17
Energy = -131.94928333 eV
C 8.111718053012765 10.881076193048138 7.0747563409951075
C 8.066547667543132 8.705837657422853 6.030795362901518
C 7.704360797461236 7.588699404647522 5.31596882387985
C 7.596697703168142 6.414347977173601 6.148558651811069
C 7.614833852825074 6.584444860224779 9.828888737393864
C 7.739719918135405 7.7243137013642675 10.320692526978213
C 8.362277990022282 9.084863082870363 8.484589843056451
C 8.204624884573233 10.532016801577399 8.405565589789985
C 8.000327484078984 9.019968600082732 9.912750571309033
C 7.848733127880383 10.432492382049588 9.818169265524297
C 8.124627598388365 10.118833008704497 6.06124951224288
C 8.27344652727251 8.215507603701653 7.452131973811032
C 7.9504054510882725 6.832121755655301 7.479186139102699
C 7.589035879179032 5.9556938297976085 8.557835441948404
C 7.0932898565118245 5.137169576168283 6.24308715261207
C 6.7028496500484165 4.044390543980832 6.936769937896286
C 7.0868252574770425 4.792076394500034 7.996048294998245
