18
Energy = -119.38245341 eV
C 12.156568 13.606110004247656 11.224705342002865
C 13.608367446684486 12.156568 11.221653022974943
C 13.073166531063876 13.073172300167034 10.161254600454475
C 13.073166531063876 11.23996369983296 10.161254600454475
C 12.156568 13.638254191788436 13.969994615413269
C 12.156568 10.707025995752337 11.224705342002865
C 10.704768553315514 12.156568 11.221653022974943
C 11.239969468936117 11.23996369983296 10.161254600454475
C 12.156568 10.674881808211559 13.969994615413269
C 13.63075199541414 12.156568 13.962763543334813
C 10.682384004585863 12.156568 13.962763543334813
C 11.239969468936117 13.073172300167034 10.161254600454475
C 12.156568 12.156568 9.287202108571945
C 12.156568 12.156568 15.056010449054988
C 11.010584234620865 13.306389763848172 13.267940512447097
C 13.302551765379135 13.306389763848172 13.267940512447097
C 13.302551765379135 11.006746236151828 13.267940512447097
C 11.010584234620865 11.006746236151828 13.267940512447097
