18
Energy = -132.91585577 eV
C 7.882948817991519 10.667959700618342 7.149638971766126
C 8.612758562718103 10.414158914371294 8.421694038491466
C 9.026771469460183 9.760633767245283 7.2764409222932
C 6.747338705073374 9.753402041712572 6.934985058425397
C 6.264208115135761 8.94831136629423 8.084959332160413
C 7.938224882109647 9.865826615916495 9.512097542601365
C 7.3287049631490335 8.376267109503374 6.7133203975017475
C 8.78350464202896 8.375538834417847 6.8513729682895255
C 6.391533202665862 7.61067154555886 7.508183276678435
C 6.7860390165893305 9.376539410385659 9.324384471466997
C 10.921189516899048 6.80791872860368 7.169210515226933
C 9.776533317361409 5.900543478516957 6.746867813205204
C 9.614191283266363 7.30567728732296 6.887508900740499
C 11.085484466416387 5.3780244525472645 7.045212638549463
C 6.4152361032591285 4.961040857493582 7.99662736472568
C 6.290366960484519 6.327853932078606 7.955027829526168
C 5.381078459075527 6.060801609479293 10.314306162601797
C 5.8218103004930635 5.6022261161270155 9.161853447940523
