19
Energy = -148.57480914 eV
C 5.94384945798416 5.680343150329234 9.356430772023291
C 6.098090344795879 5.3957216975247455 8.028104327685082
C 5.606855287496398 7.783619022626447 7.022216347251096
C 7.093453956524257 9.640653067767971 5.842855683365504
C 8.822371025610545 8.22431351598714 4.51142428392601
C 6.673132923338844 5.75915495314429 6.031113848311582
C 7.556771714840106 6.0086895696752025 5.020789310935187
C 8.932896730312754 5.5746527320940364 5.057352279182115
C 8.38349912614787 4.3596624374711475 7.0302588473589855
C 5.746895258591807 6.431322898501028 6.895691242932758
C 5.490958533335372 7.977710897433472 10.11324513676913
C 5.623352895691065 6.655657790776676 10.096683380806754
C 6.138129399870872 9.091057304493164 6.659398114557904
C 7.9420223185045415 8.983904048431656 5.119837840664601
C 8.626217980226826 6.873145650678563 4.597654454722238
C 9.185508849573978 4.690393165428722 6.110930259066308
C 7.057480187090905 4.816434099939497 7.1432793980614395
C 5.3813879938470714 8.901280687078021 9.260156556889283
C 5.47622788823411 8.929667822415352 7.883510550665405
