19
Energy = -149.6576344 eV
C 9.379994747091581 8.145089562641862 9.141536560762242
C 8.553787315624216 7.072121624953703 9.555978545549149
C 7.2315002739120695 6.5560278256829685 9.234583090910185
C 7.345306371702977 6.191204584782932 7.84018578313907
C 6.294575658388914 6.353915296480555 6.908724247625343
C 4.719130519952553 7.280108636645434 5.1806083402837375
C 5.931308907997952 7.256983231118172 4.691999574319122
C 6.861673569401692 6.854520887413074 5.670509160006331
C 8.59794066448752 6.510245357386533 7.240545712897155
C 8.300996726781039 7.095435702702569 5.937080045936348
C 8.937294681480918 8.314857028863074 5.791298467287872
C 9.452346635199184 9.386088474168998 6.226217609755253
C 9.563609219745869 9.720186900749988 7.523292627205015
C 9.611471303429223 9.473629827414875 8.764353764861163
C 9.35484760515072 6.975648818393079 8.358898166068432
C 5.863414351686963 6.636301741328175 9.534693493740392
C 4.917335797169981 6.561565837027794 7.311850962779202
C 4.900506527191938 6.57215379252289 8.72930110184802
C 4.061177568183764 6.92053959965122 6.235738676375644
