19
Energy = -143.87517427 eV
C 9.694854939910934 11.016439760114904 6.214179984366972
C 9.327417745546356 10.674492390338543 7.567214180382914
C 10.46980455488519 10.030008247045433 6.954697805952232
C 8.900596816256423 10.26954177453277 5.32338491282245
C 7.842938798191455 9.667534167211127 6.129339208913181
C 8.021001960937827 9.982513854084731 7.567547181902974
C 10.513915628429812 8.78779913406787 6.303936164703794
C 9.44729507748553 8.876028765807739 5.363938658491486
C 7.028148014320544 6.426046933971927 10.67925401349501
C 8.165783117827038 8.252583804274597 5.751791042993602
C 7.324926859521095 9.398891514990654 8.585743273658254
C 6.795946326692008 8.57552991383313 9.351003210875092
C 6.94022044370102 5.136813098225043 10.498432698628278
C 7.693091136093032 7.082260939794282 6.224943723314824
C 6.332775720747645 7.401090259790745 9.884577566927204
C 6.363856771298657 5.737343015323968 7.938486913666715
C 7.165695411426757 6.218860904573784 6.955178194957764
C 6.236802822650975 5.144451337074544 9.250328608139558
C 5.690306560786076 6.447711491927112 8.970928282550563
