19
Energy = -146.68913742 eV
C 8.670695181842973 4.704323429699334 6.279101023126453
C 4.714285815863437 8.598574681497121 6.497191469918516
C 7.127025111146459 8.148687389575267 5.89237595835387
C 4.959606704120697 7.928737060726179 7.757508704315302
C 6.283776793083882 6.312310686914137 8.290866787585381
C 8.611061918981093 7.400183837198921 7.228618718330614
C 5.642509111912251 5.338602191071063 5.391527706269607
C 4.814374864156016 6.158183436700068 6.158896109906442
C 7.479623351544895 5.659651681478768 8.37550924813754
C 4.695660557497595 7.516104204303251 5.609672498711253
C 8.012992495320225 5.703321960982597 5.48379148317868
C 8.51208901471893 5.010676260271364 7.583731149285742
C 6.331312218352461 7.797241628583279 8.143126656506928
C 4.993726714303288 6.431564454410302 7.5509378345614895
C 8.154323792767775 7.081804203864583 5.867212931454696
C 7.464875201678967 8.291424798981879 7.357743024738795
C 5.8332762495128785 8.351484179764643 5.505431018703505
C 8.746660128068797 6.313533377861743 8.153343401059495
C 6.784125154190943 5.252351487635465 4.910771374505455
