19
Energy = -143.65331048 eV
C 7.111643356872534 9.5582577235704 9.23195694941775
C 8.115838343059501 8.669038198401912 6.957001277306108
C 5.390221385813974 7.951076520841652 10.286711266560896
C 5.135274728894707 9.026121950860938 8.199138678527914
C 9.340199075365419 8.027869807018575 6.8462702747345805
C 5.248900912547848 6.8077302084917015 9.775873221986421
C 6.825021467658127 8.081717516339312 6.460639126906016
C 5.810099633548596 9.046427687698799 9.485677687551462
C 6.081007430559633 9.038841182583381 7.224182754404987
C 6.611700933397181 6.628145286259076 6.4289554960781405
C 7.38013040327446 9.499947802257076 7.856010933258054
C 5.366080984740194 6.091312528817171 8.647617736127339
C 8.513592360313988 4.7431978295555135 6.039044308297803
C 7.533604157002815 5.795958867531556 5.751726140950453
C 5.834387579238995 6.146689240126322 7.49033252078252
C 9.646516446400156 5.767143723740749 5.763382791947638
C 8.457344362530323 5.7962377292452345 4.66199041063331
C 9.825118185467295 6.992998479659698 6.362922116633929
C 9.420703590300821 4.630378262493918 4.809883447179384
