19
Energy = -139.40552781 eV
C 6.708922222879256 8.856080204453596 5.350045666932301
C 5.818034687340019 8.243685232285744 6.252338891973608
C 6.91055322102225 7.3975354503193405 5.988604872513829
C 7.460532790090383 9.870788134502028 6.0877036498748645
C 6.20702331693254 8.653303388590448 7.61940143090339
C 6.901085398259393 10.012388636149193 7.485636396807706
C 7.516156146931814 7.745659976406128 7.404929325282332
C 8.37323939264113 9.053506742301552 6.935216984401926
C 8.218411266230335 4.44059062882961 7.63177676704427
C 9.546961426731977 9.29887803318257 7.588704809742389
C 8.710800479163835 3.213619007384003 8.227155333465927
C 7.309302729180139 10.540776931066253 8.710134863870763
C 7.904255404172942 10.10386734211372 9.727172585946542
C 8.232701499349348 5.585827843493608 8.468866941507473
C 8.7161147952462 4.388006719979468 9.065881241783968
C 9.950360572570114 9.29194759363231 8.78644731039967
C 8.42958259013915 7.714286426021134 9.681886664932774
C 8.825579318271986 9.005893661600805 9.711965673783418
C 8.07691804323253 6.954582976806844 8.565590273937088
