20
Energy = -161.09316812 eV
C 7.749731944065458 9.480463173663336 7.128322381994794
C 8.80855211092842 10.257006134772297 7.160638129031535
C 9.928141598433763 10.800975279919864 7.351236839171916
C 7.000895078736192 8.485819505185493 7.326162774209546
C 6.672708564179582 7.366817218832585 7.941143763771685
C 11.098125763284804 11.30425896178939 7.674572848962099
C 6.927182787310904 6.520137852002451 8.840963045982978
C 12.141786195754952 11.816273488387544 8.153536079275415
C 13.4888569647011 12.997613114160604 9.94157405904595
C 7.589070396804283 6.242355678546951 9.94689192771525
C 13.020225077485382 12.425922357676503 8.920290881385112
C 8.34844407115863 6.577120526174053 10.897493548846803
C 13.447642193460837 13.349949665475574 11.2110259600642
C 9.014309295146042 7.375746714252136 11.700088687674885
C 12.84699428258165 13.246126864985511 12.316703029218973
C 9.513352020320662 8.369991902595208 12.291482005442523
C 11.956995033342363 12.648473142617704 13.082889031297318
C 9.971912664237463 9.497900943100147 12.783910759906307
C 11.123030964835635 11.724920094529224 13.284320083886008
C 10.446647971195619 10.606732359296721 13.141359141080013
