20
Energy = -162.02747691 eV
C 11.803890718788296 12.126842001877895 7.009702428429284
C 10.73100595067425 12.758571076769977 7.0540615701861595
C 12.777097252687385 11.248458389095976 7.26752540168167
C 9.520485289295834 13.180346491663187 7.423027002081776
C 13.446226768424248 10.317372856730849 7.754932470549959
C 8.445557901343648 13.304906598114218 8.038339446584216
C 13.81885952525576 9.282864705455184 8.516115286522247
C 7.473521007469544 13.140915491585755 8.93735553394058
C 13.813030788798223 8.376275016229703 9.370428548548414
C 6.836782467499688 12.706850621790595 9.91451897678163
C 13.440115310239076 7.575333008766799 10.371519545607155
C 6.503059761542092 11.986598705909868 10.988564768746205
C 12.781602035770149 7.060396848913591 11.295187453639693
C 6.557189228292747 11.132249291317073 11.89253399880992
C 6.95089046775902 10.118899169651897 12.667390012341079
C 11.797034563741411 6.869976294820673 12.177231462620028
C 7.61155672766779 9.169837149972166 13.130845098132975
C 10.73604245587387 7.031523395876066 12.80884656491627
C 8.549783292875363 8.240537882786047 13.326309567014667
C 9.569702269617547 7.534678786288136 13.21899864648217
