21
Energy = -164.44123743 eV
C 9.979411999217287 6.03472724173711 9.778288304137181
C 11.056396872760445 6.696731804412253 9.993181380334432
C 8.647834629428193 6.319622397223669 9.931226663550214
C 7.415594980475628 6.922986776551943 9.588041376386702
C 6.57943175602551 7.70111313137338 8.830564435493327
C 8.262235343146699 7.54822582761858 10.55982551395743
C 6.416991291327868 8.96576183148834 8.699904594149947
C 8.780611484969857 8.748081013056945 10.803582252476454
C 11.95943726650824 7.626580175784481 10.166774749618678
C 12.48917273621161 8.793201010458171 10.20527721842092
C 6.561525922964757 10.26604865362454 8.662768237382258
C 9.368031144019769 9.428684301238704 9.888326907730587
C 12.602387113096468 11.345732960981183 9.971353474011151
C 12.721179148629826 10.07881734481928 10.175818432151182
C 7.1319834683133205 11.41115576875138 8.716620991233889
C 9.945413739331432 10.049026245010444 8.916383846446523
C 10.542186154421525 11.19349583471195 8.76523583569145
C 11.590423972087182 12.00805191823241 9.312642921286203
C 7.9806100458586835 12.39528875133179 8.860279532862373
C 10.366588881104594 12.60420631641715 8.973851969638272
C 9.070946286943252 13.068986953726663 8.99340395414716
