21
Energy = -157.69877934 eV
C 11.09996011424628 10.316835997487386 7.396322113970206
C 10.09960549536646 9.017776637969465 5.796129709792101
C 10.815406596001248 10.050368056670424 6.155455239671253
C 9.041575101043454 6.906410806618473 7.230145681255228
C 10.808373843085882 9.59516905155507 8.44198423554879
C 9.713806423535779 8.13799366700586 6.753465446199671
C 9.370300790825894 7.243721283121996 8.62435914685058
C 7.982956811043088 6.023305277730586 6.986221690205111
C 7.817730080254028 5.102557513201334 8.146669865174298
C 10.107676774230338 8.457210457304898 8.19468821024805
C 6.551939983019264 6.4433295069679986 7.2194932199635975
C 7.700293254357936 5.702288158482331 9.42434175684823
C 6.508995028444541 5.497559219909085 8.429527530922574
C 5.898200041704366 7.650793514288506 7.26463173660079
C 8.337315657707272 6.993096783449408 9.595552541758607
C 7.587478037212614 8.081396919847116 10.039103906731889
C 6.047315568501398 8.950173102268655 6.688610432555171
C 5.8886878837252885 9.961466169218172 7.576579225505563
C 6.385194225571656 8.529480839321389 9.687517168099347
C 5.397934770275485 7.974251414793352 8.662113525923353
C 5.612949047489012 9.369748681832199 8.846785592004613
