21
Energy = -161.01023297 eV
C 12.292230108106782 8.097690826626966 9.625262776784398
C 11.549237917681229 9.150044805901496 9.534813759491856
C 10.842042123522067 6.694769277606171 8.48272215026982
C 9.927820475067668 7.705936919248237 8.320771936381206
C 10.322313771035175 9.090360680344432 8.9250669015237
C 8.717121639182121 7.962503038231583 7.583923611270914
C 7.779364346585882 7.3636481293676095 6.687129985475671
C 7.0586189251872735 8.473265419880299 6.054506874289583
C 5.8023172958912514 7.7435479295471215 6.064440677126789
C 5.77481407677741 6.015828181954996 7.767746478424943
C 6.517562765332575 6.586899143641496 6.70873924721896
C 8.335833935248388 9.389503074276156 7.726432337136098
C 9.2712187904222 9.967607951307022 8.535209247369712
C 5.004582477075177 5.3858255022690935 8.784195837430957
C 11.96256046856081 6.958442885791252 9.069441961433974
C 7.079932047462437 9.588036087971822 6.984989882308502
C 4.778389822941021 6.746318282829562 8.4542248574027
C 4.512411745328398 8.096725848727973 8.144898627961537
C 5.094043112984179 9.298581406133582 8.641584386810827
C 4.918839325562205 8.523405999591352 6.777694341305639
C 5.738862831103836 9.673157444120761 7.3991873083822215
