22
Energy = -172.79170499 eV
C 7.527138863025983 8.6406190444494 6.1718962717764105
C 8.90590470532217 8.84976676689572 6.521974909328511
C 9.248035507112341 9.903482934280758 7.505096490589876
C 10.178988507582856 9.356976038745222 8.465604801817891
C 6.816452628760085 7.414039712542196 6.390367076099878
C 8.895537770229685 6.362679257945291 6.827765314279443
C 8.225957897261962 10.713343830809276 7.997508604526466
C 9.53779264598662 7.6288314917004305 6.971907616705983
C 10.109447809042932 7.916452188008446 8.265171078735225
C 9.976020505591157 9.521807365436864 9.879716056829892
C 7.48116558186708 6.256052316878212 6.710537231196432
C 8.727304261323686 9.427745783169387 10.53513331556858
C 8.20686373878334 5.823184158643676 7.953010707238252
C 7.219994845590118 10.23959765352647 8.795993706967192
C 8.283003667610702 6.47624216399008 9.205600029989121
C 9.602367611939131 8.281895118659275 10.465187680736548
C 6.649990876405958 8.413838580086535 9.60678860953551
C 7.421043437174775 9.641017183791249 10.122402689632171
C 6.433492693451306 8.629867976338046 7.06457670742106
C 6.323295956460151 9.146311837407843 8.356886443321997
C 9.513693533556417 7.276230394889759 9.430045140429266
C 7.103009289591457 7.153779390702684 9.5296024348709
