22
Energy = -173.13399649 eV
C 6.410939288409749 7.997900000018719 7.545272244545602
C 5.32298220374995 8.435940660256723 6.715826396827648
C 6.931968113753968 6.637587877036814 7.488731933657959
C 4.490078149664936 7.653936586380011 5.897392776248994
C 5.146224196547476 8.058715301556354 8.142587446544534
C 8.042811224787506 6.996038426430948 5.263255618168375
C 7.837689994299158 6.210711369314617 6.476724884293665
C 5.828692457658281 5.7926153885401535 7.950483946516834
C 3.9635225219945474 6.651008116511648 6.847044965279344
C 4.712624306680745 6.519345327439976 4.920544125698942
C 4.6517966484002296 6.688307762396858 8.09462765335227
C 4.0758085141223415 5.582435173417981 5.831087779916048
C 5.726334427516072 4.5123336755120205 7.308162777329679
C 8.234831043647048 6.100029943702853 4.147512754895025
C 7.093010795032801 6.9397549154336415 4.185784369621352
C 7.853063542747951 4.827928728274454 6.004807436725458
C 5.852641938055929 6.16202616035345 4.189312809584227
C 4.7757178761236085 4.418661078804409 6.134964101398862
C 6.743204849307829 4.038333410806945 6.448366344907627
C 7.831536181710748 4.816805532757463 4.521917402278861
C 6.36362992666007 4.74874515781848 4.292885865724315
C 5.786619181837861 3.8865667899436347 5.268433749193553
