22
Energy = -174.08448998 eV
C 9.953383621766843 8.34471963562803 6.6096605708304885
C 10.205730476622358 6.9881306716783405 6.367217458343045
C 9.23022982756535 6.216230724743944 6.514803264273793
C 8.991334533244405 8.450976703675728 9.986304030529245
C 9.495786062327792 9.243855549597221 7.582158081567859
C 8.433025456026376 7.055432206980133 10.159705238935802
C 7.897643488806636 5.859268675721919 6.723606765583711
C 7.778132559594706 6.0465302286836735 9.41009028716903
C 7.661940525237408 8.150819852090732 10.441270954018973
C 8.80191613507152 9.25079896838842 8.818591525829456
C 8.895068119149023 9.223050653296252 6.307747069009864
C 7.45731356234503 5.759973962631175 8.076632442833525
C 7.3350110663723305 9.419496228879854 8.618947099056545
C 6.9676889983565085 6.597801449462587 5.893830209825995
C 6.426497375409733 6.321989219307541 8.895919112150247
C 6.72914654811204 9.210101108468109 7.306735502325283
C 7.510409830731011 9.054709710197535 6.069649835980479
C 6.6310268808400075 8.604543961496715 9.56852215739717
C 5.868887163903513 7.612294897447332 8.7830085324627
C 6.927274050621006 7.931473813906057 5.3951681081904805
C 5.87984071391019 7.405094486525264 6.235221726982923
C 5.750229742250963 8.139426487179122 7.443071187760337
