22
Energy = -173.69307357 eV
C 9.029008235477331 6.21901994628522 6.359803169342625
C 8.911652868972926 5.832401748755366 7.737997074044813
C 9.261084314300163 6.806887709667662 8.70079764567473
C 7.86685122097084 5.806849268820788 5.62070684116794
C 8.044540256721694 7.190368655799003 9.416869598274538
C 8.519564503955921 7.576490325482548 5.98459258679319
C 7.729979663788202 7.084920609197776 4.856688067385054
C 6.848908494313583 5.3740752145171236 6.587071026687589
C 6.949493158409981 6.359574317483455 8.951736350326078
C 7.517655634982127 5.495210756193707 7.934764490016044
C 8.60838923227814 8.005153466311368 8.388936854312687
C 8.041892041554316 8.409190269621448 7.089916509161199
C 5.38583533474967 6.966756935823116 4.243971365115809
C 5.4855398191438365 5.731597785865945 6.5019156492301855
C 5.69793183573608 6.988973754377802 8.647422500693333
C 6.600747187031851 7.3591253533884196 4.191609266937929
C 4.874124232045282 6.6708566448628 5.473333658005736
C 4.891670210390484 6.4921577556929035 7.596695605855786
C 5.801058299942713 8.38567715680141 8.286101197127225
C 6.685284046307242 8.825815836058613 7.280713893059985
C 4.514879573066089 7.524740172019864 6.566020671784047
C 5.2692581226116495 8.65015132003955 6.985917934132188
