23
Energy = -183.44974278 eV
C 9.629279214510383 9.430349198664095 6.487060961260801
C 10.777128327249931 9.151929940158167 7.4755589707578745
C 9.485722605248865 10.710584206337108 7.126262726391617
C 8.60003385139074 8.628569965869666 6.979898415427501
C 9.153655908728236 7.5517529675142425 7.7726388526158585
C 10.580528584996953 10.47502126226577 8.043543809939164
C 10.499449042169527 7.947267240938826 8.221494545576784
C 8.347871962393137 10.714410803520384 8.024092474363531
C 7.786054436624224 9.378036269534341 8.009466276479623
C 8.781411699878406 11.281247725206299 9.31896460888121
C 7.5280319250374355 8.474007378896346 9.157784122502571
C 7.747135445884707 11.28744945838913 10.274452484989425
C 10.210223679047914 10.862096178200153 9.390315266275943
C 8.35207606931371 7.260901673535341 8.894529771315403
C 7.673211432326618 8.772712780029222 10.591434760128253
C 8.07772402727453 10.099380363471008 10.975781349244803
C 10.534950430975979 7.745999198630146 9.64680733560961
C 10.511950212541585 10.14847326601437 10.562536249431806
C 9.225657742283689 7.183077225752624 10.022676670550254
C 8.67859120490891 7.820451845599505 11.182064899087592
C 9.425062659705539 9.934163994230014 11.517349074412312
C 10.797723239058984 8.702854449478924 10.690129131607316
C 9.72257967571245 8.56531598502709 11.76121062041318
