23
Energy = -172.26103864 eV
C 12.8911418 13.564406413888154 14.777683854822513
C 12.8911418 15.872710660022827 12.75804560659692
C 14.081594869415394 12.8911418 11.149224793168116
C 12.8911418 12.8911418 10.30028104593126
C 14.104682099556642 14.171855694851313 11.773047524504188
C 11.94267138635576 14.622634876265563 14.367865185558623
C 11.677601500443354 14.171855694851313 11.773047524504188
C 14.204872984900804 14.842611042633784 13.024160953169345
C 12.8911418 14.984362282318264 11.574667523773819
C 11.577410615099208 14.842611042633784 13.024160953169345
C 11.70068873058462 12.8911418 11.149224793168116
C 13.839612213644246 14.622634876265563 14.367865185558623
C 12.8911418 15.765150934221085 14.508221223902044
C 12.8911418 12.217877186111842 14.777683854822513
C 12.8911418 9.909572939977176 12.75804560659692
C 13.839612213644246 11.159648723734428 14.367865185558623
C 11.677601500443354 11.610427905148688 11.773047524504188
C 11.94267138635576 11.159648723734428 14.367865185558623
C 14.204872984900804 10.93967255736621 13.024160953169345
C 12.8911418 10.017132665778913 14.508221223902044
C 11.577410615099208 10.939672557366208 13.024160953169345
C 14.104682099556642 11.610427905148688 11.773047524504188
C 12.8911418 10.797921317681732 11.574667523773819
