24
Energy = -185.54278196 eV
C 9.583137916347631 7.208486739673129 5.481023003256433
C 9.248107088248679 6.4296684218071585 4.389267134857898
C 8.015737555048768 6.347557350769392 5.224695217314997
C 8.80413159754985 6.428688484750149 6.440241278009312
C 7.121951435218476 9.594407908005458 4.884898672889582
C 6.447905261393536 8.346527632140939 5.06744793569176
C 6.761676411801053 9.919362382583946 6.270372464235197
C 6.698950602569758 6.961635599832818 5.261383230382758
C 7.560235744241084 10.274893326807339 7.320039091377465
C 7.6148472307754975 9.3877617105837 8.362822276487627
C 8.593869617826913 6.181781043414248 7.78421341635912
C 5.718110990092015 8.836533826616133 6.2636340629443845
C 5.901852625334352 6.587313354616762 6.408688589358922
C 7.405957235871873 5.366664435134631 8.0766926014534
C 9.011394557757809 7.052686451207045 8.971109617215234
C 8.766270945064194 6.30900655698652 10.08462500903236
C 5.64671087621733 7.5677373880201415 8.563182273942985
C 5.417041100724522 7.788047323101454 7.117131807872909
C 8.162546171593151 8.30367993278551 9.027279974303704
C 6.892569364696281 5.373083960807506 9.444703688948785
C 6.1483116966164735 5.616367338717666 7.380187792701206
C 6.762233436060701 8.340771212391353 8.954261947830737
C 7.777410732801074 5.586205259519959 10.484007186825401
C 5.866555472647649 6.125084788303185 8.737138001085066
