24
Energy = -189.05596346 eV
C 10.563449091913355 11.594674063243032 11.992587676228526
C 9.428819742942222 8.765529143393982 12.422428081352958
C 11.429808841928663 7.958918380996065 10.50550167009868
C 12.248416928358862 8.652828785927891 11.29957891895666
C 8.609240258899456 9.158091372053368 11.289860307559465
C 9.306619616434244 11.033874775900541 12.40390851922773
C 10.719227703271171 12.216319515287008 10.671564848810897
C 10.374341721008435 11.042070159742588 7.668112437466463
C 9.03022118529342 8.596683612061582 10.018068374621565
C 11.776559058712872 10.739960166034004 7.970328125044169
C 12.252699218453603 9.66998901740132 12.045344758041486
C 9.527414716027046 12.22909600504859 9.853031844117899
C 9.473639266178438 11.74440803987969 8.424540665676902
C 11.480557480278472 9.323019098378984 7.935375956002366
C 10.075905924705385 9.561441480048233 7.88354890922336
C 8.420291651240806 10.595675414613336 11.389984466964792
C 11.299521247015248 10.489198932839532 12.619873661397426
C 12.387013564331058 11.599394016498684 8.873402180310581
C 11.880182361607048 12.091229030984408 9.9087441442136
C 8.397606440564333 11.382009840937295 10.210873565273378
C 8.974875382755313 9.418696028022827 8.782455255074881
C 10.201374028850319 7.853709609090545 10.222921809324014
C 8.494599163954156 10.754911567097464 8.93709161953024
C 9.987500216123996 9.868156344518905 13.010756194634107
