25
Energy = -201.92845949 eV
C 9.673223591835969 9.114780786086792 6.715769358599659
C 8.645052867228802 8.100994141732436 7.008460833373753
C 10.971884640941623 8.906884159946985 7.157988258969842
C 9.11650555633492 10.439912318926318 7.0700160244764785
C 7.59232313714608 8.782507399212692 7.723987211210253
C 8.743358598628118 6.785865716491807 7.477073661332497
C 7.971863532798726 10.193269319971307 7.874495668430534
C 11.678889298225878 9.23429043419032 8.190814645592583
C 9.90245408073019 11.510000671771325 7.4933991798442765
C 7.083895747098481 8.286649802381243 8.962845119810135
C 10.345184954603075 11.817174519733243 8.610106002471648
C 8.313724797478635 6.380753590566852 8.589479780887041
C 7.808983621966632 10.53054709130193 9.283819916541283
C 7.6617027681753385 7.104461789610619 9.588779287190304
C 7.150881058705734 9.382219833130398 9.885962573512867
C 10.200390096744632 11.264001041569832 9.879901488851033
C 11.822418990104792 9.531381881424078 9.447896031406982
C 8.866063020365464 10.899835200285468 10.214896970492816
C 11.07165126891701 10.186727486691428 10.41286044272455
C 8.137810758392462 7.504623557507753 10.915214832273117
C 7.854954730147804 8.927971957725605 11.051388397555872
C 8.918769529735023 9.859496509174301 11.250893764807058
C 10.289216590643818 9.416933875760703 11.39207870615248
C 9.360968404227963 7.250207102139342 11.53188504313251
C 10.29589270766607 8.066574161511078 11.748051149203672
