25
Energy = -195.52338911 eV
C 9.649454195031346 4.826535808593085 4.440778803910102
C 8.80212155575147 3.985029645815028 4.975359653340609
C 6.748239918325024 8.127148025771021 5.992630849416136
C 8.945325490777378 7.126796480980338 5.315848620023016
C 5.892157279829322 6.9510269078024844 5.911126219085341
C 9.42930835859784 6.091680323826788 4.782172924061912
C 7.833361180066477 3.4861532478086867 5.666569201245398
C 8.18213067749292 7.882290995363772 6.150547461310831
C 4.906207883534674 8.562032165498156 7.325142567699849
C 4.74896189104276 7.214726852009123 6.761460475528671
C 6.0269458618076985 9.210605985553135 6.699663496629061
C 6.925556575689064 4.347229127800816 6.2176932350783325
C 6.268876539110656 5.593466541042178 6.031147688990282
C 6.619364407932857 10.427096674652905 7.13049802127558
C 8.694665102477973 8.16615401699302 7.555076060222777
C 6.060217103731965 4.860255892158259 7.217760907099573
C 4.854290235479046 8.401378960199905 8.73295868255907
C 4.4002787020192216 6.304478957092785 7.7445341100423954
C 8.85286384770392 9.523113087533783 7.8191235352852715
C 7.885119291138031 10.250600456156535 7.31887960647835
C 5.387243215677881 5.481173536673253 8.322690052973831
C 8.402621904537815 7.178311061310289 8.501961718427685
C 5.389639922303293 7.576831960969684 9.52512926345055
C 7.484109091327443 6.55194420084028 9.08036110425465
C 6.104719628152843 6.36771894709308 9.274665601150211
