25
Energy = -201.51822104 eV
C 11.907490861119213 10.653066333680481 7.5742546124549515
C 11.966340888056438 9.415445422654543 7.771256003377435
C 11.526895779808578 13.103955672209896 8.49474468880496
C 11.617098347947637 11.705696319225916 8.415165033036146
C 11.7313082845403 8.748609891823255 8.972566697741186
C 11.168280959933043 13.40441023904777 9.818251191988068
C 11.307435354169662 11.10114991945284 9.748229125499629
C 11.804850304084722 7.398852346971343 9.3146217887955
C 11.344720041208697 9.713279698555661 10.068400588320975
C 11.003930207139446 12.149045075501935 10.632923699572844
C 11.025687243721954 14.67048528417533 10.34776620491965
C 11.576337680852708 6.8483540536137575 10.437760504278838
C 10.925751793011909 15.941379175279065 10.767605614763038
C 11.00699564396504 9.424990056206925 11.42463461902057
C 11.221697443832381 6.968875708983192 11.683251777352112
C 10.654351836900618 11.856796809766017 11.966951565867063
C 10.623405026961004 15.058649583647645 11.8125369996281
C 10.663196058800665 10.483411253244936 12.296256755790532
C 10.362224400987913 14.180413117501043 12.69921726023507
C 10.909912456218658 8.177732105555132 12.273226607116097
C 10.294819864509059 12.860575409732615 13.045000421556175
C 10.342826271302055 9.900209059891601 13.63198658606337
C 10.503045435865486 8.521958784647854 13.592241369903245
C 9.975592774732895 12.214185337660169 14.244053564084284
C 10.01415361104351 10.976821911684386 14.445445290543734
