26
Energy = -202.14625683 eV
C 8.39998324828106 5.919101776956805 8.078326007608519
C 8.934365495270738 6.582382350385627 6.9215772703820555
C 5.7950695310248355 7.034242865575046 5.104160359429139
C 6.8473326790171045 7.958054396199944 4.719324444428766
C 5.20787513199913 6.899774631423004 6.4018626888975465
C 8.845432536450854 8.327460767375067 10.771835307743803
C 6.820342183657294 9.038129400673904 9.33350049588034
C 7.90643538414364 8.455241635405654 5.491616352753453
C 5.676266891269953 4.583585540105123 5.547337982431583
C 7.513827087378011 8.148291576424501 10.290340742498184
C 9.463084061067265 8.731669597684636 7.4432352835984394
C 7.492789868038647 9.724662095999726 4.889132664121014
C 5.356240739431975 5.391189502589244 6.697248124339316
C 5.922083838751689 5.888756782256497 7.879289421336582
C 8.636927146558293 9.775321222794842 7.915241464119083
C 9.686013303819054 8.23919688581538 9.847971395488562
C 10.009466565848147 7.910960100778883 8.534937281733475
C 5.443284861097987 7.29160662553798 7.777568962718409
C 8.861873000112496 7.916818183529895 6.397709780174925
C 5.929180064984167 7.985424185029649 8.857120384207894
C 6.852393746191145 7.072324727595068 9.624360885735348
C 7.134374905660392 5.966406544697132 8.711541976031748
C 7.315435158396589 8.890683538929677 3.7101354928116317
C 9.639541158278423 6.595461497602035 8.154846177049903
C 5.964550211939312 5.63970719387102 4.871399857832275
C 7.593409026651136 9.923007766321879 8.581061790920236
