26
Energy = -204.76344335 eV
C 7.255481243345326 4.774823771129711 7.966608639375943
C 6.486039009520845 8.461422910516461 7.375845146363549
C 7.0690816291018415 7.2221723591097 6.939171947717759
C 8.829954930248956 9.797432177462703 9.79617512855735
C 8.638499564270756 4.741930913505032 7.603787196215257
C 6.648918392901493 10.102004959707472 8.73649773250615
C 9.659806150929613 10.754542256387976 9.053993109572136
C 9.713497800772 7.708054375579307 8.650557463136401
C 6.873180426180285 9.848286955491348 7.266158059200348
C 7.688885172112433 10.709949837321844 9.46230141047347
C 6.690867951888804 6.113493630320228 7.865551946588237
C 7.101454686071072 6.48230959310611 9.224845105927919
C 8.690387713145078 11.483993973756926 7.489499868822897
C 9.290546738074976 9.57669651159361 6.930269773430557
C 7.401549172792903 7.840619142041054 9.545423684193004
C 9.15717847790593 5.103684822467009 8.980640618651199
C 9.811897205185273 6.324996367091814 8.447271169814355
C 9.324097987445727 8.25521162956013 7.2921350924249655
C 9.937860219284671 10.668241384697199 7.660974841114301
C 8.508869387907513 7.147839859936015 6.757308662565801
C 8.515534977736511 11.764519092388387 8.881840293105773
C 6.469744368077359 8.69836639451795 8.858252930511197
C 7.777297125469646 5.224636279113635 9.334682540988185
C 8.7593103085896 8.404698779537513 9.63277713528455
C 8.050835954622276 10.423418350302788 6.710139266080453
C 9.234706838102765 5.952137503605707 7.122775067626568
