26
Energy = -205.6119297 eV
C 8.218416562014594 10.854372932925477 6.713284292855292
C 6.957181483026808 10.610049836383151 6.705767489587982
C 5.995286666181079 9.738351148822623 6.7109690400625235
C 5.51239335303188 8.551171713716286 6.709171527078208
C 5.645327040514528 7.258950075447366 6.708297520185437
C 6.379365399132341 6.20746717686969 6.711727880119893
C 7.499380397879847 5.552886647112397 6.704775168302354
C 8.784454204398472 5.591371067650685 6.714111858801772
C 9.968836615768884 6.117728606083374 6.701505443351645
C 10.655992092505876 7.209672498340114 6.715618593120989
C 10.903260649270667 8.479347666080352 6.700434042624202
C 10.392517987282908 9.669190007705875 6.7151264621087385
C 9.486228702216417 10.584995087603499 6.702237315366357
C 8.873888598672268 10.820382100267585 9.668493641381087
C 7.588814792220859 10.78189848953916 9.65915695088139
C 6.404432380783234 10.255540141296475 9.671763366331657
C 5.717276904046104 9.163596249039879 9.657650216562171
C 5.470008347281437 7.8939210812994975 9.672834767058957
C 5.980751009336563 6.704079549483969 9.658143157384275
C 6.887039484525701 5.78827365984343 9.671031494316944
C 8.15485243453752 5.518895814454226 9.659984516827869
C 9.416087513525307 5.763218910996695 9.66750132009518
C 10.377982330371033 6.634917598557368 9.662299769620779
C 10.860875643520236 7.822097033663566 9.664097282604953
C 10.727941146227597 9.11431867199942 9.664971289498004
C 9.993903597419768 10.165801570510023 9.661540929563548
