27
Energy = -216.50600635 eV
C 13.070096254888394 11.323834122470391 9.263966192061703
C 11.905978157828345 11.650193824001866 8.521624770448604
C 13.526993907026187 10.244519046499315 9.736744463905033
C 10.787768968978519 12.54144384717023 8.533694558583973
C 11.502619297188977 10.378706698458531 7.968583534653569
C 12.842236835511454 9.013410880618919 9.60611808838577
C 11.848378709520833 9.108296504409225 8.551815332025075
C 9.686766121084972 11.833106704875346 7.977636266098007
C 10.10669270842962 10.466989651934862 7.602400068542561
C 12.516345477561469 7.912434764551342 10.415856566935883
C 10.620848204219998 8.406401212033032 8.539361834876363
C 9.572682982687342 9.232710748474089 7.95215405893956
C 8.316348477492669 11.798764920375174 8.302060147959182
C 7.068228775987494 11.921354478328142 9.000988012153046
C 11.552815670040284 7.185929037509568 10.722268459766473
C 9.713974080263318 7.732302075795542 9.39789715020821
C 7.52616751595255 10.669630587594963 8.554470369133282
C 10.167912556214933 6.9800699515725535 10.571738544988568
C 8.595331274758466 8.638846467712721 8.858381855590418
C 6.129736018544704 11.697590339557944 9.984401811806103
C 7.41793596671176 9.399591877336913 9.16218842648845
C 9.20464401057498 6.4540957350922366 11.414090788478783
C 6.35343453055843 9.338833706382694 10.246356958694895
C 7.989335095076395 6.54659772193783 11.680240822338543
C 5.769874594209796 10.605207769295019 10.49742109056324
C 6.848590302547716 7.198686662796548 11.511246148754132
C 6.293843431866036 8.195003298824068 11.005530368994206
