27
Energy = -215.63627334 eV
C 9.802241446622313 6.195625775371917 10.672739278928987
C 9.806876079558544 7.153518022773426 11.612369361396206
C 9.733094570106692 5.659682388779956 9.549585908467469
C 9.786271386400678 8.313770605262727 12.053126883653588
C 9.563335331283577 5.631452181743364 8.219693925124579
C 6.132639736493918 7.992960083577194 9.96795961780477
C 9.766881065906706 9.709223293078344 11.879549765932532
C 9.35434633968658 6.029846146824765 7.060349282506549
C 6.510346775038658 8.854334637831332 10.802919872391064
C 6.297861416851533 7.432851091594188 8.775270416794934
C 10.904675130192398 10.513942752440258 11.629201673613956
C 7.331306572314759 9.939215208687655 10.669453446065127
C 7.053476028689881 7.537011934203764 7.783484048373391
C 9.022144028644627 7.1738121607106295 6.289374534306973
C 8.661161681708645 10.312857595815291 11.160292673650424
C 11.086248010474652 11.232898009954534 10.614732619548844
C 8.001550725693832 8.031592021943707 6.906524639579284
C 7.640281741213732 10.100746244901405 8.09760399198524
C 8.19820622100582 9.476993616536763 6.983154742674297
C 8.94620698159382 11.094180685097754 9.997210335639457
C 9.717834552303657 7.89861990177047 5.338343998163735
C 10.21993972098583 11.487189588177879 9.537658240259201
C 9.85434193496346 9.164226038696286 5.3956508790632745
C 7.70597732478252 10.583713612048042 9.319507044977923
C 10.340107975883567 11.538945546120534 8.12088558380625
C 9.341825317413168 10.087739293818226 6.2691632496986145
C 9.989131725675541 11.113094326468628 7.023710505116938
