28
Energy = -221.27928959 eV
C 11.470265902354754 7.7807359675663 9.23653183009304
C 11.875244138303467 8.93283714076364 8.484057289744278
C 11.336827655345301 6.495084441436142 8.678698038836204
C 10.597443042843262 8.240640095522407 10.252076294485645
C 11.088226308939735 10.032174802923702 8.786294146540078
C 10.700377375556902 5.702009485111687 7.966212258419849
C 9.572893315144093 7.680562680355782 11.152801726620085
C 10.235898716930338 9.610635582340773 9.91549395332811
C 10.620461839514723 11.209235757372047 8.200010569307054
C 8.654147050199164 5.462757833574568 6.471996974982898
C 7.62170868053332 6.095547234376123 5.9207192262641195
C 9.689897190222322 5.350953999662068 7.15969347131404
C 8.20754081956742 7.472578369152575 10.779901692894311
C 6.8399795540425075 7.013307720666692 5.5787262802969835
C 9.376707477996556 8.655512583573215 12.307700912787842
C 6.258916685403126 9.487248429523172 5.76860436148112
C 7.090380143604186 6.8875481577476885 10.272218509313033
C 6.262932248340137 7.702234883445688 9.729734897192738
C 8.466848831783398 8.885550296848498 11.210683442561402
C 6.623184937818313 10.596620502332124 6.412376302831552
C 8.884881292816944 9.930514114919367 10.20040071310427
C 5.888836818508411 8.946961487055512 9.476880810622509
C 9.510454152475557 11.757172486107926 8.062447389540553
C 7.883805294251015 10.630691518063031 9.407774744381502
C 6.37686606101765 8.257101003567486 5.5615485514511915
C 7.242359651197514 11.370487237247252 7.169044386575624
C 8.165674486749452 11.453844993029598 8.221354504408104
C 6.681161016173924 9.937768651925792 9.478567715443027
