28
Energy = -213.6012626 eV
C 9.559047781319414 4.723678254202878 5.683620798601767
C 9.39977647897505 4.442329866332587 7.070074269332555
C 8.764155796712313 5.50778344087971 7.697051365113926
C 8.448989054458204 5.687247368692943 5.286699434152117
C 9.660867403099859 6.261581221509864 5.564697271297292
C 8.511957004654771 6.493565831900365 6.643760712353482
C 8.655981502680946 5.925964642729176 9.107353977711277
C 7.833682286063651 7.808664146007702 6.855303534544184
C 7.458354677597688 6.448974256775699 9.806476403655426
C 9.701426752484288 6.757547117400873 9.455968792946543
C 6.487741650608446 7.714327345907342 7.191910673504039
C 9.580761677499137 9.560597390576426 7.937487636914658
C 9.214497415075954 7.976289390691806 10.015411976704963
C 8.52747964179735 9.025522369994016 7.00561216241916
C 5.739927480677729 6.798989917846321 8.00579353903963
C 7.7556241374099875 9.769306591015573 9.555429598492745
C 6.115652212992971 6.624494997691271 9.43291998890477
C 9.091509612888546 9.197045703940327 9.330570146528165
C 7.875852963506701 7.667021421270633 10.482968157628695
C 5.57050410809871 8.172727462769469 8.237967944291395
C 8.239049747718873 10.368716213701553 7.34855244598011
C 9.614022045721644 10.97232568118584 7.553898460355886
C 5.797257226997359 8.145844734662875 9.670275954408707
C 6.962485897213084 8.748930323963847 10.192083147709424
C 7.448225677621295 10.799081370624274 8.589284052268964
C 9.782297621748762 12.233688374400012 8.10772023704845
C 7.41576058443556 12.156514823431664 8.920947330449652
C 8.561964875665144 12.587436912832537 8.457809493229963
