28
Energy = -206.76066971 eV
C 5.450908338070054 6.902249214764488 9.761089680078516
C 7.531442353017989 10.333415332554363 5.694520929403425
C 7.58356752063424 8.27054546526777 6.905882959948489
C 10.142066479755211 7.76009132128512 9.250180297853575
C 5.84521068086085 5.001144027858756 7.816611019197942
C 11.128786053070293 6.9054039144505 8.66944971147291
C 8.815836148762852 10.948336094220965 5.974376107663478
C 6.936484906357073 4.925518709556951 8.724618865627972
C 6.256494309744279 7.44154430335956 8.877307315123357
C 8.220178262260418 8.13419530408255 5.581905994400023
C 11.193176834436033 7.6938398809839725 12.563286889768719
C 8.159455111733994 10.557380224035766 8.022156177297436
C 9.32091113139682 10.080713966079196 8.763551782559242
C 10.600627598773412 8.838337391540357 12.234375463605428
C 10.03371103080283 10.183478480977474 12.12007773150182
C 7.884947956184893 9.267085792831086 4.812668232486473
C 10.828103784704867 10.089252329469229 6.876152151883046
C 9.963285596089733 6.3741708956924805 9.087962659410818
C 9.735970942863057 9.008606034495392 9.686559325589215
C 10.148029177767377 10.80696329133284 7.854726856199816
C 7.378139054408929 9.738792730530301 7.016433617662323
C 7.167365086436962 5.820958173838977 7.567723138938655
C 8.941233238111767 11.544247647120962 7.2699673107865905
C 7.105204294372308 7.294535951185222 7.75073460462346
C 9.980731095477791 9.365149660163011 11.02186949705376
C 9.932501786605236 10.01294466850601 5.777758086514273
C 5.7631823293244535 5.633417211638624 9.199630429784525
C 9.286920557393891 8.92588471579233 5.019364537890677
