28
Energy = -217.49905861 eV
C 7.96643800904273 6.697937068903383 5.620500858698767
C 8.92866191464136 7.242698695142304 5.020920645119078
C 7.267377871039832 6.425611387275921 6.803573857818907
C 10.120976764260158 7.799282155136207 5.321493955691487
C 9.60535884588971 5.768717154313697 7.968875141580371
C 10.474627316451361 7.0472189523715825 7.718222016740718
C 8.298033225625327 6.081921539823446 7.752441953348756
C 10.891186292451838 7.56055275819996 6.527564640384828
C 5.990370542768183 6.935982235925814 7.105094663535588
C 9.803577039406855 7.757755939402035 8.766245166547423
C 10.836197953095292 8.862937518402653 5.920045425172779
C 8.846095469174687 6.6834183321185145 9.094294275029153
C 5.652625864620621 7.320482117711591 9.619172063417837
C 10.345207227866455 9.869303242638578 6.802905935676442
C 8.172394935493722 7.112863508106617 10.2838644009895
C 10.594607727346652 10.563707386183752 7.95874554039492
C 5.346721652822032 7.313260776468989 8.215165498292661
C 9.474385412446066 8.948041568331083 9.51317267696796
C 8.555719706984231 8.50078468538927 10.519520162360424
C 9.083856429962253 10.01704445905294 7.409422133246308
C 7.115474861554174 8.855886070271794 10.64936832545958
C 6.743850554386434 7.491808247715661 10.421456853702754
C 9.450672198907437 10.310566210347414 8.904083825578164
C 4.924881665659686 8.431094736962695 9.029184899751632
C 8.567199197682044 11.21838617315267 9.625181270026522
C 7.377546878724558 10.99270084401268 9.887449835695929
C 6.412967603741577 9.979173839787224 10.128912922098218
C 5.244629614870205 9.712344088437256 9.351151713642862
