28
Energy = -223.07883135 eV
C 8.058583805467029 7.508012681199782 5.831955726608246
C 9.337069786121463 8.031606612180813 6.190664327653994
C 10.248626329215549 7.6535805305184965 7.331001711427834
C 7.42646354607333 6.175335424976897 6.191304325013029
C 6.897661291267845 8.436528962882301 5.84172546518342
C 7.820817715548754 5.5097727388053075 7.4265799780611434
C 10.065577678467513 6.498587346179709 8.042199390039418
C 5.792698218655171 7.682658067478142 6.448161557561812
C 6.050891576209641 6.3205893138179485 6.145270082029136
C 7.128820800755649 9.776173999943152 6.092818687671864
C 9.497144596914948 9.436577787884941 6.586969749927362
C 9.151324977128759 5.444904334158799 7.859817251706291
C 5.5691323843424785 7.871897248801761 7.828672450154925
C 7.073089171122054 5.907490852043573 8.641496967865502
C 8.415938233210351 10.285731999103811 6.456033004532305
C 10.23403100202682 9.079472487474462 7.777774327613857
C 5.983910387777064 6.8188171746523665 8.751636309759284
C 6.136099736283449 8.843090187684462 8.857381909551247
C 8.044556417567705 6.284955032930732 9.70272208922166
C 9.316130633888669 5.959252114000148 9.188144333117657
C 7.328090268342344 10.392953780843554 7.349453911960034
C 7.172000434425374 9.84364368673076 8.646815669189069
C 6.333941247192991 7.81425968329624 9.809160485970994
C 9.852950560526391 9.443687982931923 9.076321450056971
C 9.970690400929547 8.658234541491552 10.252712633200673
C 8.342751900157609 9.661622261065506 9.447836662417982
C 7.621508702984662 7.5270168797212 10.346425357210952
C 8.52837027766382 8.615196458894703 10.420220538576244
