28
Energy = -212.97236636 eV
C 8.008009530525973 6.902155215395395 11.04319574071572
C 7.2093693474974705 5.848217625259633 10.754348031812262
C 7.217207507186633 8.19372403073493 11.222660358187468
C 6.02719714386308 6.544135968679762 10.393727689294654
C 9.752275907113425 6.528392653909239 6.783749411264352
C 8.353691029744851 8.11252659667096 10.411491300639547
C 5.868575822742049 7.919240641028484 10.982427161742784
C 7.303152657740626 7.43597191673094 8.298380123105536
C 7.226946847324296 6.6141016621063695 7.019658536061283
C 10.240080592182075 7.770539346698011 7.282972110485316
C 8.319331870790464 8.128992157186627 8.902853831782087
C 8.467986871060699 6.301329215101642 6.335520246310992
C 9.394723634203302 6.693677054555163 5.348466741693301
C 10.600696823247734 8.494475521219265 6.055035155050216
C 4.835835400213961 8.684402491542487 10.41999202724969
C 9.418907502770434 8.646490618215639 8.05241286705907
C 4.740275471234949 7.581724888662155 8.31835601612472
C 6.217063156570147 5.720071656735052 7.728756347905372
C 9.824864832576115 7.986789455077376 4.896669303760048
C 5.929657802030211 6.703369924358724 8.898521935087194
C 4.279583974461671 8.42619652660347 9.33439972525625
C 5.751883314486213 6.44061801402831 6.627227775883054
C 10.373115219397395 9.870042825919404 6.228854635346222
C 4.7365677223184175 7.337270854133711 6.981368440551715
C 9.07211404217462 9.096873190825418 4.436529036093698
C 8.546877016597998 10.334606434201815 6.425662391155239
C 9.502269169729296 9.951058895724652 7.414019369266645
C 9.26586516664084 10.233270839297536 5.198054422989348
