31
Energy = -243.75463284 eV
C 8.766763243245611 10.581982222745964 5.712217171082044
C 11.65067669184273 10.176612493825319 7.7672281620406975
C 10.575276693292258 6.753705629874257 11.175404223586185
C 5.029851317502542 7.727382932276549 8.714288339119332
C 12.110233682374094 8.64598959891917 11.994225201154274
C 4.439222275738673 8.091145809375757 6.284903775836459
C 9.947068091848145 8.37537717138357 8.085594768200764
C 5.073854457082811 10.49454332488824 5.0518098162902145
C 10.625848526485994 9.429839135654351 7.225821562445515
C 6.28528178900353 9.801557016730607 5.355182689303052
C 9.919382208935035 6.5338836450510955 9.950060843294885
C 7.802178944650342 5.368003633904646 9.008437891171196
C 3.6903963719760737 7.989153160717626 9.028749421127305
C 5.051737452809599 9.2207514064817 5.649248933718752
C 12.676620150832338 10.298514649288363 10.119362306888878
C 5.040505907102824 5.846253155208125 6.550523111150267
C 7.412837107018434 8.00427813758515 8.256157021901105
C 9.78690560904828 9.599759387667474 6.089955496440572
C 8.502263395191207 8.36258634773287 7.626279144838403
C 6.612071611293553 5.743823212462467 8.340427704905567
C 5.861105208239723 5.20994168105529 7.330565763606809
C 4.512990001433223 6.773297946282178 5.807847927597463
C 12.21665449713675 10.32640835467308 8.892057610059533
C 6.381807277182896 7.246528593087416 8.579669373046988
C 8.85744919735566 5.651374910609606 9.591196587075114
C 11.285647623476873 7.664143642011651 11.709278315163168
C 7.667567242465917 9.707956105983722 5.466220798626166
C 4.176280452122844 8.129000134982038 7.696470433079922
C 12.437804102581847 9.599035382346873 11.170251282108147
C 10.245476751008347 7.499376934232162 9.02567030331564
C 8.567019546879521 8.850110288031765 6.2373988567853695
