31
Energy = -240.50021668 eV
C 6.840643145503823 5.6373626554408025 11.704973547242773
C 8.475617171882313 5.235002312351268 7.069440731039499
C 9.074797528607572 11.59469772016271 4.953481564365212
C 9.776889218744007 9.339065673464313 4.788630871070513
C 8.36892302705802 12.225455060062702 5.861782061365325
C 4.941237458148546 9.885556993178623 5.552960989886691
C 6.01714795763857 9.838725154554961 6.217809508297676
C 6.914378321638847 9.780680593458424 7.297228398269775
C 7.8818199787102845 5.62546566866023 9.390417679821349
C 9.658176654204588 7.8869827619387864 6.835002834928529
C 7.475387156696799 11.013797990046823 7.9353446588585435
C 8.391395768196471 4.375895906754217 9.685621859678047
C 8.033590005184033 3.281844234904379 12.083615513269647
C 8.312460056944673 7.545172806986628 7.539493083073507
C 7.297852990502673 10.106626308337155 10.177173350560807
C 7.352226974572627 4.478494196781533 11.969848345556114
C 8.532841790358294 4.448262190113912 6.051355801149447
C 9.574269456737326 10.573210821591978 4.378193814300539
C 10.835310841442377 9.133464467515772 8.633556760942286
C 8.279780121892292 3.7489688429478285 10.8137902626939
C 7.111274825322133 6.326014656000773 10.5129466727432
C 7.995041446910925 10.861518459518308 9.302211314338798
C 6.814621575156329 7.668294328104659 10.435891108430036
C 10.448457964806106 10.20805545445789 9.357058265364481
C 8.190783638759195 6.144763808906149 8.042072205009124
C 7.474233833436757 8.559840969232052 7.576874643249986
C 9.78811230115451 8.339283362445846 5.561880890294716
C 6.849759743021013 8.929467332053912 10.465098328032498
C 7.913077765127246 11.903672011790611 7.00765196596891
C 9.404993926452919 10.865491369283523 9.51485343788226
C 10.652698718838453 8.261199791238406 7.766349239527585
