31
Energy = -239.37294407 eV
C 10.434003712076041 5.825675602215567 6.42732083874935
C 5.516628074510189 7.7522139650602835 6.671777343246689
C 6.616706882393455 9.294134610422502 10.754195480619208
C 10.54228455690025 8.06285107850617 9.33277694962613
C 11.613605627325555 10.098129179499136 6.864603614759061
C 9.248477023983243 7.615445095733647 11.5214054879464
C 7.435120528775502 4.893366366332963 9.792623286849205
C 8.735998620743315 6.364011234544792 11.386100411666929
C 5.693823030225866 9.35378422679511 8.380037539849967
C 7.405688094872751 12.209776825810707 5.423407237440753
C 5.989907289202998 9.389954928593164 9.579112751494788
C 9.522240249850151 9.732565544101236 14.587742770075401
C 8.55706273149374 8.686612823677946 12.364692993481045
C 8.273246286027696 13.126476353990832 5.155181201784872
C 9.870436084780803 8.631586884731853 5.943266445180908
C 6.704029607670253 11.169089448541712 5.812122545086032
C 8.146646713994079 5.455191714955556 10.71461122860298
C 10.78523828859949 9.002949830092657 6.9029477803324495
C 5.72595713366951 6.572687074085229 7.0575252298376006
C 9.055538254968006 9.204951174889258 13.510038165066511
C 6.093936965897564 10.123952318529355 6.1600600642396826
C 7.402566587032763 9.081747833926025 11.68755526873613
C 10.738341876968578 6.678813513572352 7.38062663893914
C 6.127930227496057 5.507230739062963 7.708877566915477
C 9.185956122101151 7.775545551993136 5.23271989464769
C 5.678617510724058 9.108482302103752 6.985605941455588
C 10.776178299124558 7.914857255351248 7.969571594287541
C 12.511299292452877 10.931951542849362 6.513762100080398
C 10.124853571358983 7.977770240476869 10.492042450857758
C 9.705655957139106 6.628837873968844 5.658239455208349
C 6.737225409044627 5.000112169252939 8.708418092757938
