32
Energy = -244.14064766 eV
C 10.811082498940557 10.516384832947843 7.279495013843946
C 11.089861100915739 4.484381428443757 6.939783078578815
C 8.089277381603118 13.168134938210333 9.763350428711826
C 9.976105651746346 11.224696408444487 7.88572561141629
C 8.238628585999589 7.459118928609779 11.87444654649168
C 7.9452569261238635 5.990265107164262 7.7563445659187495
C 6.623868490135353 5.6578791483559865 7.408481554370078
C 7.847164439109636 10.890344044791336 10.570231883924567
C 5.023477883304461 3.905574757991244 8.68156589569204
C 6.867829422150884 6.646883303405873 4.013948785295614
C 5.064859670597149 7.552282374837584 7.535654456672409
C 5.458137717291398 4.921124592539527 7.9687632951365845
C 10.638080121984117 5.675713348809442 6.902491554086617
C 6.664337732982251 5.42050850467385 4.417302756597788
C 5.384514176695801 6.2367242258374835 7.343458326894683
C 10.143246065732868 6.964318717146585 6.996893739479367
C 8.015907981322696 8.719657923994774 11.841108828320522
C 8.5457728516015 5.590975658673181 10.208994529075506
C 5.65127309657319 8.641685608885545 7.685960319035296
C 8.754741851751445 7.20402222628768 7.361389086248027
C 7.854819703013812 9.926470508773553 11.387603428161803
C 8.471142753862324 6.3645204315427035 11.244283723847253
C 8.143035259511404 11.811081524918954 9.575456613281093
C 8.725891823528547 11.050130074732214 8.461294523647185
C 11.206457263791883 9.3142020694711 6.876560859305325
C 10.913078634667418 8.109963668779034 6.785326311299694
C 6.928742637653846 9.098272606238787 7.842939598221695
C 8.089712777885879 9.818028612544548 8.066990221799191
C 8.191506999167215 8.465953727239407 7.620693907869609
C 7.277262889212226 7.874762754231762 4.14891354409021
C 7.8219212702368495 14.415936784317246 9.838730724849153
C 8.40650195636722 5.499926151483185 8.947591023747599
