32
Energy = -233.32527564 eV
C 9.545964938160559 8.658100170442305 9.97218286724552
C 8.554183624573644 7.920265632510018 5.696378971873713
C 6.068194567991263 8.107265838218593 6.780918284131355
C 5.63588211588914 7.230902594812751 8.978964850953153
C 8.581431131835904 9.943717296523836 7.099867770698177
C 9.72991231892061 5.417190367672161 7.153663924540586
C 9.419445034227035 5.004209263125006 8.682336696460345
C 8.492842940301184 8.061241377002215 10.820365754511357
C 8.37326247252571 5.118860441025267 7.771564821683531
C 5.68770597182745 9.23428562968074 7.5267706066510405
C 9.255177119606236 7.451936582374847 7.855942534928821
C 6.308022411550783 8.917869875560665 5.5920289176843525
C 9.823575262868598 6.804420244306093 11.286453438294311
C 4.37650460367035 6.447151516807765 8.400047268309455
C 9.112668975061949 10.57706059566857 8.340341039701284
C 7.569303769386315 11.939686290412444 7.476988129772473
C 5.3186596694031305 5.699282717512606 9.277511728362086
C 10.616960518007096 5.610631937554454 8.29167712639423
C 5.623565349636194 5.901609784331894 7.848073394691445
C 10.503378975814975 7.021847270236648 8.71250264857238
C 8.884877650160362 8.56573379682669 6.837206484755545
C 8.817116272221968 7.418427244285441 11.956007780047392
C 7.456330018899681 10.733217813130945 6.744309791141894
C 6.166564153323 9.046098176603655 8.819583411733143
C 7.288778364280683 8.45584214769626 4.7619799907688245
C 8.077602308260408 6.617581747714364 7.886898408477634
C 10.373281356309386 7.399471033076374 10.038163575704335
C 8.221971233495696 7.65121251917015 4.388260484245319
C 8.587978397415108 11.921349942209996 8.339580571805012
C 9.568229959292772 9.757517717392885 9.330671759224476
C 6.607279968994466 6.972054583017833 7.691031073295033
C 6.1823573918505454 10.146401842412697 6.295635458798329
