32
Energy = -251.6655913 eV
C 9.150062073870725 13.013370155166433 8.367826309237934
C 10.758180305278467 7.330390079142631 8.026788613370243
C 7.820319826889498 5.950151111893129 10.198264887508458
C 4.451822037643873 6.43453224146943 7.046819393034664
C 6.713207194972582 4.764126827923387 5.601341335852883
C 4.9535415239516984 9.783772192436343 5.588513342938243
C 8.850350644446136 6.433705348957872 10.883365115501386
C 6.520267838455207 5.342841242007727 10.22079891814882
C 9.081956846459903 4.5190597792221245 6.986546145218677
C 11.264204324610343 8.600934594315495 4.404928955219767
C 7.423443499500429 5.849483211939005 8.761082739264499
C 5.968444725241591 5.901144700163623 8.995785332478034
C 10.723975046265124 10.889535798217214 10.90287321643654
C 10.71640069085803 9.601728362710604 11.21954873679927
C 10.967834334982 7.659297778158158 6.79805504666742
C 7.319102920656404 12.571008878787191 6.653493109800099
C 4.523248604229784 8.61670004603615 5.604659021883735
C 4.919799685619663 6.1531340008618125 8.231126843909017
C 9.887739180560711 12.667539976127433 9.321010148227248
C 8.052282606603802 5.121091101463596 7.724853905080767
C 5.640356588030212 5.218564119959916 5.119597516164403
C 10.469757214834392 11.922436086335672 10.241474148053854
C 10.408228520357332 8.395739238063983 11.176164679160363
C 5.603852759180775 10.931083471298065 5.710791501822235
C 9.958335280344983 7.231665535283369 10.52049486844527
C 7.777774339420774 4.685498389693708 6.414748436365493
C 6.396778815945848 11.830510980146027 6.071680645678036
C 10.464040050642085 7.170000917327181 9.246676589990088
C 8.231835908568566 12.953465821617675 7.424689297904698
C 11.134533068965807 8.078428504578186 5.5871432906060905
C 4.658105731904447 6.0124716493671295 5.640170454109114
C 4.2751345448248825 7.310474017256515 5.904371138973174
