32
Energy = -245.86378992 eV
C 6.841740414279407 4.198557636844143 8.5477424974186
C 7.296678784707355 7.555119802105886 6.506508248325165
C 10.125698100633446 9.964262751311942 10.370142690073862
C 5.944916941077495 9.17232500411836 5.283113326660524
C 10.8276190189139 11.399916186860876 7.208832771780968
C 6.7209940473636305 10.13450109956765 4.9907867918707565
C 10.843192770918101 10.579784807538296 9.499769076363213
C 7.84210346690484 5.122289653794488 7.968817785786096
C 9.254986778489911 5.134505126782533 8.600388597541016
C 7.197577713512032 6.62486401970595 7.842433884998561
C 9.896052547129091 6.058246036710078 7.6118296459014605
C 6.060860775262977 3.1565049238532397 9.070555616250306
C 3.5836390688773605 6.162515580482014 8.175989450664101
C 7.760338821391376 10.920416827059872 5.140697333755458
C 4.902305939347203 5.705610916147341 8.610724094851015
C 8.397294785790576 8.184358558335388 9.65876612022569
C 9.100099280286562 9.101736743304286 10.452172595686228
C 5.0208694857468625 7.468881251464678 7.044689035950207
C 10.199772313964633 4.5388618973620245 7.605200030832088
C 6.571561377903702 8.413158833465365 11.112844963940173
C 8.603267563290588 7.881490298419723 6.321224629796391
C 9.312872242730522 7.326159900551333 7.435309063477771
C 8.279173849155097 7.49416075421297 8.543772165870077
C 8.886079209728452 11.274403127354663 5.624032308869859
C 10.020243598679627 11.478346152662757 6.2386921751543545
C 5.757261253357891 6.661469935759489 8.012781045953796
C 3.6371935420898813 7.089588519052538 7.316032853793502
C 7.8382745861803595 8.705384659965102 11.052212562970814
C 5.534705558337262 4.498369784322417 8.931650217298525
C 5.951139207552068 8.076951040166469 6.1510402857885325
C 8.952218463290144 4.888954467608917 6.9223245409695675
C 11.2584148720046 11.184001587260074 8.437664727233239
