32
Energy = -245.2021422 eV
C 7.850735789656903 8.319525522860102 5.800659662872099
C 7.885053991056616 5.982807617023065 10.565082153917977
C 10.706823391820043 9.170383024179127 4.970964817028133
C 7.6143467446122814 11.388545476990245 7.451603627105782
C 4.767307338293132 7.209500778464115 9.069804443963847
C 9.614231584060512 9.385218515528534 4.286075116824712
C 10.162091179751155 7.294091373770128 7.539554831898679
C 9.628470528317619 11.836924639325412 9.08943306897047
C 4.6340018902330415 8.516019953771682 8.47033671466861
C 8.33839852503996 5.78890890956291 8.353556831315469
C 10.2710463012559 11.239380622331433 10.031549214519082
C 11.36464117171865 4.687657584129389 10.237563468749133
C 8.557884494810205 8.862720367223865 4.886525807356731
C 5.825578485989645 5.436242192971862 8.088835901304812
C 10.010764239180993 10.020971237642957 10.42615336350228
C 7.225415763404365 9.101066519188809 8.058490032452871
C 7.083913043880112 5.332811562909404 8.032258707801933
C 6.833812490726705 10.285355403021118 7.209929471825645
C 6.058301692570954 8.569840587035822 8.860505257236195
C 8.34321330640531 9.72976333485628 8.916596656392182
C 11.54267624513875 8.682018116648962 5.845977793537288
C 6.550983724829956 11.461422946089426 6.469728780754594
C 8.910201574041011 5.460614538865565 9.70331225071599
C 8.597623065225582 11.149486177713973 8.459717238739232
C 4.7034496147682265 5.958318003316237 8.535308851917236
C 7.862200281259296 7.996029660003851 7.109038065172256
C 9.106895555126494 9.229754454326875 9.950276227714541
C 10.175374323888924 5.12278931481244 10.00903923001157
C 6.994145763042851 6.862455214247751 10.533703954678973
C 10.938507168958067 8.011481172428017 6.830065143642647
C 8.841933169128122 6.966989579297685 7.695362955105541
C 6.053391517256533 7.583723551259809 9.862317942333288
