32
Energy = -251.83390231 eV
C 9.161005681134297 7.06100681655973 6.4149785990711266
C 8.889828838979149 11.107642087530943 7.459145055284445
C 7.492883518489177 4.879455699260908 8.204208427967654
C 10.131027273719807 7.654013063753459 7.389094192620564
C 6.435403099151386 10.589909599019379 7.1301660262259325
C 10.9191465301998 6.114153463979067 9.255073124344587
C 7.087994623119341 5.484690607372333 7.071755492828181
C 4.956853478202244 7.249800739808883 7.077375020835235
C 8.6475627522837 4.948891559664465 8.820673625510821
C 3.7867226486437744 8.019071830471294 9.267361139684363
C 10.76047397958058 7.445638238901983 8.613573285829899
C 13.27908153499771 5.354824777824854 10.11427839046135
C 6.997112286857903 7.098501519069126 5.822093589602943
C 12.098695470659347 5.777208009121271 9.89179339972255
C 7.325455452549926 8.502237040034188 5.878226865690239
C 9.733454420210515 8.976183796603088 6.969423787860318
C 5.551316857314829 10.626683981226877 8.172099730649329
C 8.723596710199624 8.458690705453535 6.085948753492821
C 11.109757588236848 8.66557356160506 9.35553117061787
C 9.789323662144618 5.331169445654126 9.193501392062315
C 11.606229712104586 8.635004399178989 10.655497220940056
C 9.902690455922624 10.15057643175536 7.743950620441652
C 4.301595519040327 7.361147268623369 8.279430697830183
C 4.784778421661186 10.333302554970407 9.15328347981134
C 10.702144098922368 9.910514719017034 8.84181129064516
C 7.703079195029252 11.227411437803607 7.1637874222393245
C 4.299721715532963 9.19205185566213 9.548169075040144
C 6.030390591740268 6.411147460444774 6.596482900495397
C 6.248885157446114 9.346290603978092 6.381253208855433
C 11.637877942168188 8.69344203728162 11.929772199933982
C 8.09360665965747 6.2236695002784845 6.202364401276609
C 5.092059523692791 8.60306943566649 6.647078977733748
