37
Energy = -291.87656928 eV
C 6.630145886312994 7.007922367701096 8.828761088609792
C 5.996243114963726 6.108180280312591 5.038227687204232
C 3.8381201499270365 7.83866420659022 5.193176576811406
C 6.182584771708111 7.50814441639694 5.852404749559941
C 6.222035876426225 8.39152449311849 3.099220839659798
C 3.7259502004425054 6.978394890852763 4.079814586311219
C 3.911518526117529 3.877559694586152 5.071699042649031
C 5.768905652188251 8.969914378012474 4.154840286057629
C 5.812048309913476 4.294876439301032 7.025542949264972
C 7.18155607706898 6.3563031923115565 4.223714991543789
C 7.809198439698347 4.350780336570322 5.423147836122468
C 5.064458634578264 6.288873032704519 3.706460318552773
C 8.161870667501066 3.984738866021986 6.839663546521815
C 8.281141442922003 5.794748637120319 5.027659436745925
C 6.42507724894498 2.818638984743016 4.10657285473977
C 3.4062964584775983 4.645801997729645 3.9421448448715046
C 7.548690468792056 3.257618846474093 4.434212152651128
C 3.6591732168888154 7.080827405966889 7.595162046398979
C 5.493377451888488 6.519504946678946 8.85446729182536
C 7.674534399403842 4.314188143482593 8.971492186108897
C 8.706001247288476 6.240713199574764 7.575603902237174
C 6.162913695241033 4.6314221765816725 5.615038879432523
C 6.988421278403732 3.946530440664009 7.707102991841744
C 5.3756696940495745 3.788594541183498 4.527173154426516
C 6.360515564770073 6.992365454116717 3.2378032585271637
C 8.488820694584133 6.575274755385535 6.150898784651051
C 4.489799255731824 4.80419629632692 7.358902326439041
C 3.2080476727566203 7.120759431219632 6.308811917213343
C 2.797252815557196 5.820181715789682 5.780385629546951
C 7.6788507199375395 7.216548292530881 7.928987218844888
C 3.5763493733628584 4.663052047047335 6.243219010953599
C 4.732527372220179 4.819795775063067 3.5646423042160955
C 5.204391665955919 8.412400880305839 5.311312663754743
C 8.55500580306452 4.891905057756605 7.936895819930337
C 4.3732175902706345 6.005569261856951 8.157949258693954
C 7.450392151088913 7.558326847105819 6.519177513661674
C 2.8079301784663655 5.874192037728533 4.35674382033284
