37
Energy = -289.88147602 eV
C 8.096896907018332 7.761245030263252 10.516746862649947
C 8.542114432993925 8.395211746809677 9.313090998487315
C 5.997661590487073 10.407879878471142 8.277731501234282
C 8.38466178400319 6.329003817507992 10.426700790496
C 5.968049315117173 6.239553000138483 10.324548936402074
C 7.159513011279084 5.842705608117445 11.169744263764489
C 5.162256316145029 9.409195929386462 8.09736775056522
C 7.361878774464774 10.114813061531965 7.82743956931863
C 8.153490127062735 9.633070107862498 8.807835607771354
C 6.796174121362863 7.199043675332711 10.969345380296392
C 7.2454418383481665 9.572295202472151 6.463692854207763
C 9.162805723742421 7.347027172238818 8.520096203561453
C 4.566525762250895 6.1082521682646576 8.022880521088709
C 8.708866901627848 4.803519918290437 8.377210790871816
C 9.195252574953175 8.08277872299767 5.967555571984669
C 5.45642862459294 5.765687396649516 9.16504698132248
C 4.509283566086187 8.882924773369478 6.886670667854854
C 5.7854630650954 8.100927185894117 7.45841751317579
C 7.929773978480246 8.672888351914445 5.598520070126271
C 6.044922992903339 4.703445881044497 8.285012670698173
C 5.959659313827443 8.859981085404039 6.165546796284271
C 4.574617443617295 7.257762798000677 7.044825760873683
C 8.888732110229187 6.05536742111566 9.16057002666021
C 9.591861445164575 7.576850395824822 7.19861731646239
C 9.761586589671161 4.418732651490381 7.582888824970976
C 4.996990317427351 4.954058821218001 7.288200810440462
C 7.3851077586556615 4.307477390157037 7.949291566315918
C 10.090497673906524 7.004722366144822 5.978678484330128
C 6.688407446975145 7.989926839988067 5.17171705240856
C 4.768173119863378 6.6260473061512775 5.727087129625532
C 6.255070989901322 5.311669864434144 5.059240405859392
C 10.39257321333078 4.939356923751404 6.59863409401397
C 7.480683769497596 3.9192611754455116 6.581624152452437
C 5.054840180773021 5.261679831500747 5.888807682847465
C 10.643182404415143 5.781492906414758 5.616955923231286
C 6.048021359137505 6.780769608831798 4.944335264442302
C 7.233518134406019 4.435830407746708 5.461133065631299
