37
Energy = -289.10451988 eV
C 5.067147951054675 4.501771836810676 1.512778930062839
C 4.487962937454573 2.21587451005535 1.7569542708772015
C 4.2612101050906865 3.296656308136529 0.8851424285761961
C 2.8993282110963934 3.1943019103489627 1.395463213092227
C 3.61073600525818 1.3834567489436633 2.556919864704594
C 5.6039996702621115 6.1647258593514636 2.089806713351384
C 6.449013415836624 4.176358742712591 2.0656696434455633
C 1.4431478810688123 4.067361518559616 3.0271030636685654
C 4.501974163167864 6.416151234500614 3.1137276138728622
C 4.089483640639659 4.922510618937898 2.652438415337091
C 1.4497511954477815 2.595766842057883 3.2707212993512202
C 5.896739376723084 2.4288488486611057 3.9173777937978684
C 4.532159263437968 2.4788790460471763 3.2434963896554407
C 2.3628891741564466 2.0672610106896854 2.2754851951512682
C 6.6949633789654115 3.4757024302017863 3.318512291589575
C 6.704155744634156 5.482939336465658 2.6211194164129683
C 3.3440447218426943 7.354993370153061 3.2364391947162647
C 2.78373707326432 4.241287278201318 2.420890995507014
C 0.9101299046167968 5.114915244158891 3.7059463219767648
C 5.772714213338612 5.119297334850482 4.936649178023008
C 3.8689016503926497 3.7791260176826222 3.538408633442923
C 6.717193997185944 4.748693557188997 3.985356647562211
C 3.1054334474383096 0.683597182162325 6.026629244890631
C 4.875854226022479 6.2124307840229465 4.574955457006645
C 1.4996700890888086 2.4651850626214675 4.699836471266598
C 2.4680172353442944 7.071643387923728 4.089207827187074
C 4.26530057564297 0.7883717126331042 6.52524695001442
C 5.880509729772156 2.063832322057258 5.188112949961574
C 2.4532745094945354 6.118729207740744 5.1595695117438884
C 1.722067645719508 3.724753747858439 5.461713974855517
C 4.125233495296163 3.2660154242825157 6.26244363745398
C 1.5267815381202532 5.0356876316034676 5.000019068299467
C 4.575315813132928 4.5161713696683465 5.666005796054029
C 2.2467587913048885 1.709142178190238 5.7181433055913375
C 3.82457574928154 5.7934002935591025 5.435467275100515
C 2.7311409756423126 3.027580054215111 6.215423456230954
C 4.955163605583208 2.003061138565493 6.157298661989333
