38
Energy = -294.94361869 eV
C 4.675524022411753 3.0570701469697195 6.151703625736435
C 6.319145730286981 5.064380288241012 2.7113108803673884
C 3.390615375579015 6.053696462021545 1.1146252299782882
C 5.647903830326633 6.444696464244876 5.25135570123126
C 4.503642918346102 1.2994643517142688 3.345228229368355
C 6.1030100960993865 3.585743699479588 5.887146433082262
C 6.249266335349389 3.952711868756929 3.4586840049952947
C 1.2528239408100623 2.2371666061985795 3.285065335432325
C 2.1960326760070332 6.2748538897491475 3.5342549844649556
C 4.325319337008886 2.4848527571091137 2.428351907202205
C 4.174196847926429 4.917111382776258 4.071122850740712
C 3.0204913432739504 4.321918623281829 4.832261796002059
C 3.737882155557841 0.8775730472725085 5.788763698111108
C 2.0082327305690306 4.800954025531436 3.747822688682579
C 2.269685773837698 6.795219513230097 4.8485366016107845
C 6.39892046490171 6.1581164783824764 6.2291321165922104
C 6.145821913001726 4.79592627563011 6.617547535632343
C 3.015465667698848 4.919374560692721 6.245428183945215
C 3.9024684199117345 3.049460872569301 4.752199945114838
C 6.648769054409628 1.8041443653739226 4.281526002426337
C 6.728461160682678 3.1335093361142925 4.616665467524516
C 3.2729746787120457 4.997142548587794 0.29774369434845277
C 4.9473138453902825 6.097082307985572 4.1346794907604
C 2.554636503772784 6.2160639924618 5.931015482579622
C 5.124454734936189 4.901393629991089 7.657858950842051
C 3.430000366749374 1.4471352401130617 4.4326429858299115
C 2.0921166437990886 1.5371184542794978 3.904275544712708
C 4.305972274559962 1.6737447586590166 6.550732730155653
C 4.068649284207729 4.318175829312486 6.943795534827252
C 4.341603049530203 6.6756908060233595 1.968189382480727
C 2.9700207321522236 6.6450202894607315 2.3587959498348363
C 0.30949830384396326 3.0551689019333472 2.6037489838378516
C 1.2181792690402287 3.8840060647720973 3.112580502749879
C 3.93467849725877 2.707763122313354 1.1879628424103212
C 4.659617409370929 3.627120597310568 3.5166843328956197
C 5.775770228185783 1.0611372969046406 3.7226822382781815
C 5.483561503402575 6.1456370486329295 2.7425453219120195
C 3.6070145188900584 3.7923957337170573 0.5450744511014239
