38
Energy = -300.51651154 eV
C 8.059024662598354 8.917866350419079 13.84979622469518
C 14.12825172417873 9.707112186792397 10.326441394674054
C 9.814435267684699 11.72745295516543 10.816996972862755
C 13.152405500604349 12.004406555434015 7.9168448118659605
C 12.602428941728595 14.772181040765565 11.214150694415538
C 11.203444308624906 8.214795804516633 12.072956170792715
C 11.65879122691262 10.525434271972706 13.156480212952037
C 11.286333711220248 11.443353993061354 14.177828072373387
C 11.250645168218291 15.085522072426448 10.990132249834137
C 13.05501042203157 13.998147652160757 10.077673258172403
C 12.774980742875574 12.464809194189023 12.321195398292973
C 10.607341061691574 9.663208205117538 9.809105788219195
C 10.704258531880996 9.710675523335143 12.351807930030178
C 11.482220614186161 8.604899897926437 9.818199123549567
C 12.084224271339732 8.133643447782802 10.95891024201069
C 14.409113935690328 10.248019375665091 9.161698169464383
C 13.368380800432377 8.788086151044212 11.11263697005345
C 13.15864164209763 13.500088470723634 11.451217920233438
C 10.211913403672781 14.136808380223005 10.9315799996913
C 10.772214750014108 11.875297864172564 8.392575571179338
C 11.996070888504875 13.77977276081695 9.110407144155786
C 9.90492968501904 12.944657772224206 11.604867185073054
C 8.910634283885752 8.081042797307356 13.425351305179417
C 12.802009863441363 11.03947545618088 12.318901917296325
C 13.549357168192245 10.094512805988348 11.609551248699727
C 12.19708504051277 12.479318402273607 14.655759958652038
C 10.253477352961175 12.870361420447255 13.008222247639452
C 13.925506550529143 11.075150955010404 8.28655239260387
C 10.26178897640006 10.377231382991988 11.089953518784691
C 9.742948818423969 12.01264466173743 13.9712105649668
C 11.738504394050103 12.877474187756285 13.372386591328203
C 10.082205755232147 8.33096008199449 12.744549228602578
C 9.756180978683421 11.79435722437621 9.376786442436739
C 10.907495948583705 14.489451014324095 9.706012137798604
C 10.26361239702244 10.620705343073015 8.78289081952186
C 8.05101134981889 10.168328336593285 14.286399932982999
C 8.626321085973084 11.282247568305872 14.144556915675143
C 11.956618095340518 12.633271274176282 8.2368444257719
