38
Energy = -310.54872769 eV
C 3.0995365486552586 3.6972291559455273 4.397155871818213
C 4.567056758711104 3.861785819628441 2.4768911003040217
C 5.752065833139803 5.971951211378422 2.8801920754405415
C 4.1767235163946355 3.216630463777156 3.681997933945924
C 6.955348507698423 6.530746060990708 3.286829828079476
C 7.835286117746013 5.891818745559059 4.206599508393911
C 5.3988704845620665 2.968923111711803 4.5034851384660435
C 7.819146993964477 7.126750513610682 5.075409453318178
C 3.4976779540383336 6.377826747355363 4.233408274915621
C 4.71423293810357 6.75788935041864 3.538686178074501
C 2.7740202934397864 5.172982082536831 4.457401250885688
C 6.400453832711314 3.8628209184416855 4.012828737030193
C 6.757252137992527 7.657731604417565 4.224303212112323
C 7.566950455855602 4.530404370181804 4.674851586729272
C 9.012238149320007 6.065044742522001 6.6785133203812155
C 3.108924521979149 3.790152384539802 5.864193683386845
C 5.711499055164501 4.526561134315511 2.8331565399293726
C 5.032467721918279 8.664895777542235 6.681227843078411
C 4.527121306305609 8.11178809400656 5.491337620061174
C 5.359036201499568 7.810513453216819 4.337732265118152
C 8.08690547881622 4.249046628185888 5.995643188914005
C 3.497451161475228 7.132947196818461 5.514463152478363
C 6.529884661166952 2.6711005782367807 6.53107791695552
C 3.099509984151597 6.1905329731221865 6.602813422983129
C 2.550707216658809 5.098289144427749 5.889658826366192
C 5.293210645607579 2.727362889257565 5.934322157840108
C 8.159342288098632 7.115024625665422 6.4571516059152465
C 6.287260703538527 6.276316155683603 7.963758953738482
C 6.249966985818339 8.535692620511016 7.445984833930254
C 4.959641530538439 8.136186056439799 7.9481740529047356
C 9.280395645015421 4.849089426461085 6.468686404383688
C 7.016711541531881 3.8741855870286694 6.971282818961431
C 4.267461553842634 3.495903839470899 6.621844129210437
C 4.008072203752098 5.825816659551398 7.655183883113118
C 4.7381165486795025 4.536826086856443 7.495008438235422
C 7.079260573872418 7.368286276160409 7.415443168340036
C 4.938978851643952 6.747887552270882 8.202732858048421
C 6.152588899876291 4.836435765040124 7.611944569496706
