38
Energy = -296.68871816 eV
C 5.250517744916433 2.6197949118300183 2.0426873519856423
C 2.9684048004197674 5.245930031352232 1.4084398093216963
C 4.279126033874567 1.715697991553509 1.4899385218573034
C 3.93379578083309 3.0855275283925376 1.0614388939512651
C 5.3435527105712035 3.705660117711566 1.0919176936603139
C 1.6612253034205646 3.467834307368392 2.4411518323839765
C 3.7710416740759896 -0.1211853552410332 3.1327605889522534
C 0.8554923995359072 4.935461488480439 4.447546885096535
C 2.196744843916833 1.1454237621579346 2.2815524391386903
C 4.89703723049997 6.1121814970804325 2.262535638642791
C 5.566192308210618 4.760159146162586 2.217480563647306
C 6.368660359257556 3.522285145277451 4.33661723519144
C 5.349788385426657 3.6083482465779166 3.2298677791708394
C 3.482406505303636 6.2298465774387894 2.282516391677434
C 2.7418187817999984 3.882339787243874 1.5187111779819598
C 2.7609352112493304 6.4624960938866245 3.5181354954624067
C 3.478965200072651 0.6926832596961595 2.011011716303042
C 1.0184169880606362 4.554064797966501 3.0859890588944427
C 6.044765444761038 5.950470147251852 2.992974273367375
C 3.545448077216651 4.660511931395168 4.894442569224363
C 2.1275100043555355 2.0607941349231655 4.5601556689379175
C 1.741419641780344 2.119034196421908 3.09762401919136
C 4.9272218828888725 6.596536001835734 4.891200013458359
C 1.1876688019911037 4.272137752206281 5.6372047424737355
C 1.4810669579215163 5.822579629241138 3.5681833487559906
C 6.514835588560755 4.733850853310115 5.146019219527082
C 4.193631771710299 3.6426342268340783 4.238550661422249
C 5.79738168532239 2.761370488280888 5.443412609307882
C 3.6876928757020933 6.129000165498293 4.612157143200959
C 3.8287859743075154 0.1302640700348555 4.373919237285295
C 1.785785795245249 3.0372385760814002 5.471471591604983
C 5.951509257955556 3.9442764509526893 6.322156937149913
C 3.4634818162751517 1.4136883216785334 4.871122443071125
C 6.1063492586568895 5.91465457158474 4.491548814178459
C 3.5875344349004745 4.221416511340667 7.1828405297175095
C 2.6569329621676205 4.181205277473849 6.0404414927487124
C 4.436146423677311 2.3716812519654282 5.038754979664839
C 4.848594241487655 4.249991265080801 7.1034057907202435
