38
Energy = -301.43041764 eV
C 1.504955972051313 5.333700419008455 0.23146401330995198
C 4.998627553646328 0.9561931569390689 2.8156082790163843
C 7.905344050928695 4.562221443765132 1.8049548276066396
C 1.144935716929087 1.9096023778160502 1.394463352437754
C 2.0192923643597847 6.299732752269811 1.004331129371385
C 1.0274998571817509 4.174134833556257 0.22931714485600266
C 4.715941706316782 2.279485633664632 2.5264609683334895
C 7.135942593719122 5.362528791938262 2.738475942436365
C 2.3231596629317437 6.590724687673003 2.176536117852968
C 1.771373944053173 0.9122617877757547 1.8108982895193018
C 6.073189936761044 0.7487776503386829 3.733523305730528
C 3.8111304381299878 0.18911868607920565 3.3491095700065774
C 6.771614106170257 3.9551890339356124 2.095914880207465
C 5.503535817141734 3.4839117284824113 2.427033476869681
C 0.7994883549308435 3.262024159019321 1.3184901538465856
C 2.486856544963152 6.412536988261887 3.5412698948718324
C 2.4229570661768913 0.2869233373929243 2.8499865648164207
C 3.730663420795908 6.424546894653142 4.281459035556483
C 0.6055141156773036 4.002423930312723 2.486522024987809
C 3.602465164134223 3.0524900319357235 3.2283443389232693
C 0.9935841725102648 4.358617741590722 3.75718904283467
C 6.2673460323768975 5.82813414275049 3.5108636859325353
C 1.5391439333961474 5.604772275062498 4.3158716583354595
C 3.501900677547096 5.809041517501858 5.533471828393799
C 2.530040281387316 2.51917235731189 3.911238448157168
C 5.946880550513464 0.7784991179418402 4.97427653349559
C 4.565673131955336 4.202637698837027 3.2285037933567047
C 3.653837997634263 0.42680426863165216 4.796506041208965
C 4.659571545326122 1.1215323430576043 5.556886777764004
C 4.979718040647678 5.460915284455126 4.078633325864204
C 1.527659106524026 3.312890173493673 4.617594474495643
C 4.537602346943292 3.7669732829783045 6.201345114867697
C 2.1718062874122355 5.250993586979881 5.56589074853595
C 2.07646324703722 3.843066669568683 5.851736372961074
C 4.6833737849433446 5.013925052730476 5.571442953630081
C 4.315948889194373 2.342149657722462 6.164100497860793
C 3.24046918115821 3.2391231121150956 6.387690441017529
C 2.5865994313039726 1.0543304172648178 4.064701975541471
