39
Energy = -303.39662024 eV
C 11.055130082256188 14.515481954487532 9.559214086449096
C 14.228871311999063 10.602698652305463 10.787998826751672
C 9.955941549713407 10.004994874001223 13.000635018417114
C 11.569945996695013 8.859117892819285 8.93440598452883
C 10.706487740821773 13.507236348751285 11.778002595613664
C 9.419713195610742 10.569552746556855 10.289227657508196
C 9.093607602030326 13.510479385892745 13.36158084323067
C 14.646221845517978 11.60642579396796 9.806210255708638
C 11.21908910923118 11.425434927259214 8.628374688588075
C 11.907468322714829 11.359837925129327 15.177706933179206
C 12.049117977449246 12.779920065756713 11.701985772818846
C 11.699058992294194 12.822518416878475 14.862589772007162
C 9.588778254979987 9.041557873327875 13.978612957930796
C 13.606793091280725 12.103111496067395 8.944469011513556
C 11.773554556725975 11.428334385832523 12.214427242293244
C 10.374844115059688 14.140542496969207 13.157591671219558
C 10.758466704609031 9.320848651500686 11.920176464739859
C 11.123925540272882 13.877182272563637 14.288631750497961
C 14.665309739044261 11.174958271130164 12.08084006324518
C 12.210012321290327 14.297990996473052 9.094870963163926
C 10.555968650850975 8.584496494330402 9.612290490833262
C 9.136621209173997 11.822647977048032 10.98884717429445
C 12.592899772814603 11.16720659852372 8.582064228782317
C 9.998007881496676 11.4882393406619 9.146378513542329
C 12.974332124803363 9.950056544741447 10.579856302973006
C 14.38186131801689 12.207534756364902 11.103753921658246
C 13.205047909722198 13.072047417171563 10.971164079941962
C 11.992543177621235 9.08097911573374 14.242234324284437
C 9.925843199452867 9.291375123070948 10.633263113779059
C 9.607429549148192 12.460742372329138 12.269811848749724
C 12.572350189649901 9.800103327001487 9.163447471737491
C 10.908344324506297 11.720293586393145 14.37686713370389
C 12.41701570685563 10.049678507237813 14.908629453406496
C 10.886951801387356 8.737130974157912 13.34232428396797
C 13.139605060098974 13.41264172027629 9.513372705396302
C 10.199373065275323 13.834253443992194 10.358759281137722
C 9.458455136342558 12.680860367925062 9.909569260449176
C 11.97122942841537 10.184953042547981 11.591845070632292
C 10.43062843052591 11.413611140585449 13.054156006888734
