39
Energy = -302.79778873 eV
C 5.245396311229228 10.502218958978357 10.958060112649148
C 5.719496073894576 12.074247453659908 10.659058603776302
C 9.20853311360303 7.860194592529301 9.67363472125255
C 13.296039394172153 6.931769416112423 7.952905010808047
C 9.671184917158982 8.80693521411294 8.681500982115955
C 13.947937345126135 7.98760094415219 8.658325431500616
C 12.441611796662324 7.254994150189212 6.884860425522977
C 6.051131099950271 9.500735078472218 10.885921206685936
C 10.183477843003134 14.113912077260165 12.089439814894382
C 7.8060232994008505 6.724786552258356 11.022386461999565
C 11.54076739504972 12.794040106795324 10.532787679571232
C 10.80956801075353 6.760473719925236 8.471443357995605
C 8.113151557996167 11.645656858449168 10.46668818585344
C 10.291543950932132 13.131988740755672 11.11343926555246
C 12.545129124612425 9.684815607976546 7.442778665102044
C 12.713973715866969 11.137511451563887 12.042530567226498
C 9.83159545215043 6.58994947987586 9.535898258967274
C 9.317751552679486 11.944981352351295 11.262991144922541
C 10.596283236324284 11.530281847611658 13.40137615774121
C 10.239346171458386 13.681071628274797 13.318923363109562
C 8.142879385127774 5.438501930408127 11.209158031288482
C 10.410902458029122 12.739383613302705 14.204266522964364
C 12.352161297158666 11.974548614262726 11.02893331489169
C 11.726979825874004 8.475735867259141 7.037687101474316
C 9.16082235798001 5.704826352720333 10.346158245427434
C 12.038218453731062 6.289716346493535 7.929912807706475
C 11.860420977336114 11.050644177220066 12.98003367871482
C 8.107164918370328 10.331916955827571 9.731780904985014
C 13.54421633805326 9.134640794678424 8.324282585132336
C 11.220144045236344 13.291973909818392 6.727033037204195
C 6.986098685769178 12.367746785223162 10.528957340841336
C 7.296539617031979 9.231207396423024 10.389587290456156
C 4.490617179332064 11.652427151536934 11.064448927487925
C 9.757067468259349 11.291872571478233 12.336332010763801
C 9.02961977307752 9.992432618274657 8.824144012822805
C 11.69101927846598 12.09332949106222 6.889136386192293
C 8.034683731823465 7.9793570137417555 10.445530500136611
C 12.157644165884292 10.923941389976612 7.17062798992916
C 10.632037873959298 8.088223045576298 7.885652732404988
