39
Energy = -295.80927003 eV
C 9.825670645006154 12.943881186627518 9.528620974035872
C 8.60026849026866 10.503483761744002 7.452629508789405
C 11.853236151161157 14.163693696406215 10.159706248678267
C 10.12099802903178 11.727523935111833 10.248592925234318
C 11.519234904647112 9.733586435022609 9.64304555165815
C 6.9474642715711346 13.381783852433085 10.52337316219709
C 6.96610559479553 6.542646557074265 5.861673847109712
C 10.42272242127008 6.154285777995188 7.1182204313453505
C 7.9264022844446105 6.655113716584867 6.894589664632077
C 10.878753323838296 11.738631094358354 11.43170566612896
C 8.70965204758201 6.435045609299003 11.54750102082099
C 8.690787588421236 5.072746093549347 11.570719433843145
C 10.717189836406696 11.913215837480257 7.474582512341904
C 5.972881896799389 6.39334851190886 8.014939127782185
C 7.277702528269964 6.544894369251102 8.158295389817646
C 11.54254247424879 8.738179389576331 8.544259227980417
C 5.737709887683021 6.386167894263224 6.341867633289326
C 12.370241770717247 13.537220058115842 11.107358207726046
C 9.551385116217563 8.446549365911732 6.926816858600756
C 10.074536328632561 10.628408518372856 7.90946919145951
C 8.931311003956882 5.54482799672852 12.866429345541349
C 10.805042849532262 13.89731763451332 9.27267965826562
C 7.697838548896899 9.95845792424913 12.12560808800111
C 7.059749453144999 12.270442268415447 11.192631630145817
C 8.501529169931846 9.440270491776586 6.80582129378262
C 7.337508966866222 11.120871298263978 11.71042169588166
C 12.14005091838957 7.450456831699841 8.517315064804237
C 8.133320163054748 8.796395195993327 12.404078949436089
C 10.451594407499194 10.663585704949679 9.380735567838867
C 10.490386621837514 13.012151800448004 8.184897367418962
C 9.366002051393984 7.042404981525422 6.8579904255861
C 12.06152567391375 10.967773484114693 11.580360502741302
C 12.056508871929186 12.404111729713149 11.892739640554609
C 9.12131410593005 6.655515972178252 13.573715912761232
C 10.596198217570599 9.191147433855143 7.594609152332074
C 4.832774350909435 6.284184736546153 7.322907884337746
C 8.57828225794934 7.555004829781965 12.55669649118541
C 11.447711556411152 6.7031663100785 7.700535469534792
C 12.343548062707411 9.945762066273648 10.74357740479062
