39
Energy = -302.6506381 eV
C 7.166594777705162 8.913307624689931 7.341048697203341
C 8.318355279926669 8.249696053121369 7.700098383322652
C 8.612468449952136 9.86040674248813 10.44888762327314
C 9.736389426907222 7.526848435933017 10.15260129843422
C 7.659683704876107 8.929580870268332 10.633908487440701
C 9.554568997584697 9.080946263017072 8.153963596589707
C 8.424559172809127 7.061375297270831 9.738349890778014
C 8.323349046408383 6.766153219597394 8.237750955811308
C 9.586804212427317 8.953756605951488 9.827959157677833
C 7.2460947529318265 7.650086012704246 10.350836337610176
C 10.850382987736317 8.578387739006773 7.531434307836419
C 10.691625839789275 5.878313236165224 8.5651181540918
C 10.96038948237784 7.5113129605194615 6.502866091984304
C 10.80842639991404 6.783837328026186 9.741470654896068
C 12.271418415293171 7.076632982093732 7.0279651373854275
C 12.04728332976853 8.094528844805891 8.129783804519342
C 12.055357407450183 6.196815876637629 8.140107097533253
C 9.855109257623837 6.688037853922703 6.346522180764037
C 12.154109800012344 7.202195204908425 9.274152975623327
C 9.625136579669366 6.159821412251194 7.688630653333783
C 5.877860423334448 8.287446377866395 7.110895872469231
C 6.022289539272261 6.030631604827528 8.975992475126365
C 5.529300892034899 7.0038383932031385 6.523346731256863
C 5.966865002415225 7.252076490899476 9.810381480204208
C 4.33180360813969 6.891576949388634 7.426770981724868
C 4.80690869586828 8.147105720250375 8.082176612733626
C 5.031076007654695 5.786927516311501 7.924177474093877
C 6.153076857011718 5.732808649827169 6.849190889593325
C 5.0189825876991465 8.246678393792667 9.484281822274877
C 7.055998443206486 6.013207114241584 8.022850401474665
C 7.43549847919378 11.944003884114164 9.229799399198042
C 8.398616980393095 12.59483726555287 8.222751171312225
C 8.382437896212307 12.585416185905714 6.835252430197891
C 7.18289283944378 10.39312050464262 7.457242366706064
C 6.664682848070584 11.007851254615986 8.551080787340865
C 8.511684933247574 11.19216645918145 9.911693169205385
C 9.352259869796116 11.557401978052733 8.824064666007118
C 8.439140627710513 11.140239296730382 6.907101833605984
C 9.401468577588519 10.54157902236679 7.828447973079458
