39
Energy = -297.85767796 eV
C 9.502068416106205 7.945179143367614 14.098153153654502
C 10.888616305194956 11.797068314314409 11.951647979804322
C 10.282815494087561 6.653225236376641 9.347658467743788
C 14.905322630718638 12.590353707153987 10.861541190387724
C 10.446025026013674 8.908646754452256 10.03229633837075
C 15.977621891421437 9.061255766004244 10.534781423835163
C 14.992514571363461 9.811569584304696 9.895340239850114
C 8.910818560850567 11.832815390899219 7.2968608758197995
C 6.525482663489306 11.65995762753213 10.982872589345735
C 14.759932470539374 11.29642253016243 11.379598850286404
C 9.78488950500353 11.239796245637038 6.481197040694254
C 9.511157004599518 16.864407376666747 11.949083964883835
C 9.586424072604183 5.6242352407175895 9.460346923567764
C 8.460966295340935 9.869534752964165 11.186610269670688
C 15.648954380072581 10.22411707487044 11.228916669018771
C 9.756021821064012 15.578989878030768 11.941738933531838
C 14.58230456130841 13.490595169381315 9.8482133883222
C 8.676238370566342 8.390457221235817 13.123787187460726
C 11.182135379019329 8.410296646758251 7.830138703799968
C 10.82858131261531 10.422199015430918 11.990795824793334
C 8.05094203032004 9.059181134092613 12.226866609666693
C 11.121733359578876 9.21644528544385 6.896216942129252
C 10.512399975807659 8.676933394583294 13.584020112424247
C 14.248475380542406 12.176254038199923 9.527874916987226
C 11.206944799395501 9.619030184273411 13.055554642178889
C 7.515286145770205 14.12377890257253 11.018939119854728
C 8.247951947533341 12.021287175437388 8.330393496186915
C 9.95691806630596 14.188676674553818 11.838745158696229
C 14.067289852383269 10.86175544485364 9.982849083977735
C 8.794905146115108 4.566411855292751 9.541424168899901
C 10.739773442545292 7.95007523174403 9.105950963326473
C 8.672825974229983 14.580874722307106 11.408371367542392
C 9.958060253705494 9.740415771422143 10.912644051758322
C 7.925296842516406 11.9908297512916 9.66201597199867
C 7.719264962995054 10.923714105871165 10.61842038861543
C 10.601079256514874 10.31082149580265 6.324827412683217
C 7.193296201247512 12.889385455418052 10.589653258177732
C 7.769622477977043 3.793515579925092 9.518323720796705
C 10.616068022257602 13.016083148021474 11.925274497253278
