39
Energy = -299.52045587 eV
C 7.700715230959882 8.895947995746292 5.345864648589408
C 13.053359255546233 11.916562368326424 12.414408238044077
C 8.359574676161346 8.408854433046548 9.091228935547845
C 7.508940578907854 10.221145917099314 7.156302086540533
C 10.953609658573827 4.44435275229326 11.388972115814278
C 7.306693296344918 10.594367489516417 12.135870088764692
C 10.299193382934556 5.254670915369332 9.149081181385778
C 13.138800546454458 12.108275849033717 13.836409003136598
C 9.640775631505235 6.1829832071734545 8.629886273666015
C 8.775385628712332 7.987950794277096 11.475098034895879
C 9.289991851824785 7.222202304543665 12.298938270741132
C 13.394974629708596 11.950161305515378 9.62331614286922
C 11.645652194035321 13.686228889219258 9.322254907189548
C 8.299313201253364 7.843108759787573 7.081700211242073
C 12.292947988680467 14.454574954294094 8.401468096232703
C 8.241758122165486 8.776512742700557 10.4463226609902
C 9.963151800434106 6.175520377551996 12.79779913267563
C 10.822824307942593 4.550312775088084 10.1433425790868
C 6.599173267806178 10.871287225637111 10.349031576571038
C 7.657264588958921 11.452439277384995 7.808709506912437
C 7.926638790013384 9.029188829340729 7.8145212285245735
C 14.064242132694433 10.908105692778378 10.400760861499318
C 7.257910664339101 10.039724108157587 5.745630325045942
C 8.16027728737628 7.70650194996622 5.693899206519046
C 12.92451002954992 15.091585329987826 7.484060515055831
C 9.161363252718282 13.128149150065651 8.9504279600517
C 8.847985498465661 7.244218802868589 8.32638491644917
C 12.202345239471274 12.703715675118382 11.591567110379529
C 10.25816800292896 13.5596587955446 9.326809516569107
C 6.51910061575525 11.723215195347828 11.434816921009157
C 10.586738272164009 5.142533751592392 12.46692907225971
C 13.847252875051023 11.048140240845363 11.678834377400387
C 13.333714201662138 11.61311372526156 15.123696559163275
C 13.123316811921343 12.952197097916748 14.933740460286538
C 8.1848899161679 12.394582824605576 8.413115008561856
C 7.563711981709879 9.972289026858792 10.833978294345378
C 14.013826211165282 10.929508903427429 8.965169164707241
C 12.42742068331883 12.793945229770193 10.231484471357152
C 6.824207911127559 11.763116998647202 12.762264460417299
