40
Energy = -314.14586443 eV
C 10.183754752281883 7.444832929049486 6.301042761899987
C 7.770496208730205 11.41524015806041 7.009943274690802
C 11.146738064110824 8.119505652181973 7.055828223897273
C 5.35723766517826 7.444832929049486 9.239949655560293
C 7.009943274690802 4.125752259399852 7.770496208730205
C 7.770496208730205 6.792136234722783 3.3506218845038966
C 7.055736665684851 9.168481119045374 9.642982816799933
C 8.485164193563008 7.421486765278308 11.146738064110824
C 10.183754752281883 7.444832929049486 9.239949655560293
C 7.770496208730205 11.41524015806041 8.531049142769477
C 11.146738064110824 8.119505652181973 8.485164193563008
C 6.301042761899987 8.096159488410928 5.35723766517826
C 4.3942543533494645 8.119505652181973 7.055828223897273
C 4.3942543533494645 8.119505652181973 8.485164193563008
C 5.8980096006603375 6.372511298414905 8.48525575177543
C 9.642982816799933 6.372511298414905 7.055736665684851
C 8.48525575177543 9.168481119045374 9.642982816799933
C 5.8980096006603375 6.372511298414905 7.055736665684851
C 3.3506218845038966 8.748856182737509 7.770496208730205
C 9.239949655560293 8.096159488410928 5.35723766517826
C 8.48525575177543 9.168481119045374 5.8980096006603375
C 7.055736665684851 9.168481119045374 5.8980096006603375
C 7.055828223897273 7.421486765278308 11.146738064110824
C 8.485164193563008 7.421486765278308 4.3942543533494645
C 7.055828223897273 7.421486765278308 4.3942543533494645
C 6.9448785037473115 10.1731008534758 8.535233847397823
C 6.9448785037473115 10.1731008534758 7.005758570062459
C 5.35723766517826 7.444832929049486 6.301042761899987
C 7.005758570062459 5.367891563984479 6.9448785037473115
C 7.770496208730205 6.792136234722783 12.190370532956385
C 9.642982816799933 6.372511298414905 8.48525575177543
C 8.59611391371297 10.1731008534758 8.535233847397823
C 8.59611391371297 10.1731008534758 7.005758570062459
C 8.535233847397823 5.367891563984479 6.9448785037473115
C 6.301042761899987 8.096159488410928 10.183754752281885
C 12.190370532956385 8.748856182737509 7.770496208730205
C 7.005758570062459 5.367891563984479 8.59611391371297
C 8.531049142769477 4.125752259399852 7.770496208730205
C 9.239949655560293 8.096159488410928 10.183754752281883
C 8.535233847397823 5.367891563984479 8.59611391371297
