40
Energy = -309.96342357 eV
C 8.668705027793415 8.138482874702795 4.604585632275689
C 8.240278944885157 6.7768018186575665 4.957966384605122
C 6.484058790396233 8.310550835195052 5.255257513656927
C 8.96295588780132 6.195449258931311 6.09901884182595
C 7.553779603915235 9.077949223507412 4.744493792648517
C 6.850799511458709 6.852782175647897 5.317339611440805
C 9.244077640849548 8.552876804003073 5.8083246467522605
C 9.550048049670476 7.354246788210563 6.6203936980838485
C 7.190999162563309 8.124495989855115 7.60438796595591
C 6.673500329345945 8.934105046089751 6.570484552680503
C 8.114817045408106 9.693379397204396 6.198365307641901
C 8.021034532758904 5.598224380202566 7.0594770449906035
C 6.712806845356835 6.162766711655387 6.561131010346564
C 9.91994284813108 10.225604054782625 7.842333968467497
C 5.7628761493214276 8.450917083219696 7.914407633380471
C 11.273837190869024 8.479257557902018 8.980208234248705
C 6.223006048761526 6.93834282648977 7.751478649119532
C 8.607260831712633 10.570459787296945 7.341099219529237
C 10.631690158371878 8.923719840993598 7.729952490813768
C 8.299645080840367 8.273345389830423 8.56345828272731
C 9.621825944564343 7.788625906066625 8.005741235631719
C 7.801964764969437 11.004794221502111 8.53904642088698
C 8.1377994491784 5.5998542134517235 8.496329742541308
C 6.840587277292121 6.237622476081611 8.943017902892251
C 5.971093986410437 9.07467609976917 9.258868378030755
C 9.899161994283629 10.363274184793946 9.296071087042922
C 6.75861793615659 10.214848861737108 9.359581717981097
C 8.839483400793823 9.248693371637557 9.606534754524436
C 7.566004029617943 7.404574935867921 9.537708736063008
C 10.103315331845804 7.169539992704184 9.34784973852342
C 8.67307194177851 11.118626008115955 9.721687365842143
C 10.823404310559788 9.31990102171337 10.035385822045223
C 9.132173640886725 5.956463866610546 9.584359185076382
C 9.7432191407614 8.294086795965905 10.434897612384008
C 6.676908136879564 6.511600620827647 10.453465514538957
C 6.51176961117546 8.125526047287945 10.38464044650889
C 7.785637314173607 10.005054389216355 10.431109880074557
C 8.237006073826942 6.605211319080885 10.666755821665404
C 7.53807278545096 8.779359407678221 11.271254710125868
C 8.651248490887138 7.842393657216463 11.40001468813208
