40
Energy = -319.67780043 eV
C 7.215457544828599 6.071309318444618 5.95544690843363
C 10.159789696784644 9.638292122201543 6.19015393171816
C 9.116683424848924 8.727832801857332 5.90004079704314
C 7.832939152889792 9.202039670869882 5.5171333901073645
C 6.600767330554661 8.460987525341253 5.751740653796103
C 7.227564185379713 10.398685205888638 6.2894103382634725
C 6.391719804469483 7.200272838073878 6.248415249153729
C 6.072994254019643 9.591281769519597 6.498162029682727
C 10.096205609140045 10.929644172351878 6.791608784585254
C 8.610905312655422 6.230566882386407 5.98003377795835
C 6.9990864967442 5.017420827453622 6.923482951637784
C 9.062780535118414 7.486740032952498 6.717317630713131
C 10.979444106373302 9.86637324508699 7.351509133951484
C 9.408830645902324 5.0803555945896886 6.48718032449808
C 8.377078606407533 4.422737818692351 7.226595046842509
C 7.6973467971725 10.892354320138198 7.556349297016591
C 6.151240077547494 7.067639293289171 7.7392985032214145
C 7.868983820342566 9.223015667293355 8.419176476725928
C 5.679956327671042 9.41484206245378 7.849922941819378
C 9.13753035090769 11.301860920579326 7.792489502974026
C 9.39795254852688 7.325223242527289 8.205120034661824
C 9.693718266358411 10.66281202797907 8.941153082454775
C 6.689594482464305 10.18847918804569 8.604604200051789
C 8.577610130152797 4.874078918156805 8.539296613395633
C 6.472600468212997 5.6271498490661305 8.066382416019376
C 9.439793594253624 6.013121381594649 8.921930625886372
C 10.728599988838925 9.678016760972906 8.71576047213598
C 5.5743489476714805 8.15532568910299 8.548840055632333
C 8.861964952427877 9.611226226160724 9.50507752275606
C 9.922782220836794 8.479040512688828 9.380789357396086
C 7.9666725435703425 7.862873004736798 7.9635783640177324
C 7.345742498559743 5.328998158288523 9.174944013184438
C 6.623263194274499 9.64366811361573 10.022338726426531
C 6.075206679962709 8.296104270053304 9.933047495743265
C 9.111504247650315 6.39380744975149 10.270109468581404
C 7.621549653466851 6.138871871258051 10.305745869268593
C 9.441878955748207 7.6601568767593795 10.65665657086949
C 7.918529254694986 9.519480272976262 10.656426181869065
C 8.144711901948913 8.237408666451216 11.105690336352248
C 7.043664730612551 7.418898770340798 10.636034263145374
