40
Energy = -321.11545156 eV
C 7.265739260152027 9.025712598225404 5.0037967950467594
C 6.8568803322860195 6.538097546482494 5.310817523873192
C 7.6993445948631445 7.71599110113485 4.9467629726179085
C 8.959246107352456 7.442850124402362 5.734633924887447
C 7.745686424059463 5.484442864174392 5.858896555948248
C 7.9450600950245365 10.070190212005263 5.819215001193913
C 5.629162119404561 6.885469278645023 5.974178167340902
C 6.028309865067207 9.366925725207487 5.6910544742119304
C 9.141032005769429 5.942876841408919 5.694333349588534
C 5.208524770605548 8.33756141938567 6.177025499713509
C 9.584533097169505 8.506543278979441 6.865224268029156
C 6.718554719860039 10.521786499855862 6.403406659135545
C 8.26161801360813 7.681133803121455 7.0147192222280434
C 6.24416000089233 5.348919326726566 7.826394037702747
C 7.221398827531182 7.828987053849363 7.662821490968418
C 8.933399109654623 9.823024911945364 6.85381206507141
C 7.5181356298709705 4.960275546261953 7.220972604129605
C 5.24271865387732 6.097116141954188 7.138075126474085
C 10.726699775635662 5.538050784527174 7.490362441283892
C 6.071777182463145 7.939575850432198 8.311960768414819
C 6.9736591589135974 10.639658670170352 7.821501446197769
C 10.82800712081899 6.727683667697381 8.396165601943537
C 4.702429030789719 7.023826690475837 8.119552645821766
C 8.322956714708054 10.200711157770153 8.101319571057841
C 4.71710753158157 8.4255960780209 7.606640813104476
C 9.88927018337901 4.9309023463393915 8.55694047675223
C 8.459204577790585 4.932434829373356 8.355055009924518
C 10.251662109511429 5.450926631814907 6.246526338283949
C 10.098661184915297 7.97645120925587 8.19592364838463
C 5.120742413640982 9.303135152963607 8.762288739567468
C 10.137001549433474 6.052897643978019 9.456633211345746
C 6.170985162497377 10.292130387454506 8.93252393407561
C 8.26287332482129 9.295280995332568 9.30685532189655
C 5.54033682837898 6.943258501033515 9.407337565808595
C 9.174103414108153 8.179725246239142 9.337914544745459
C 6.451258797959364 5.827215828783396 9.19726979209434
C 5.818254020364371 8.390091561919123 9.76601315176817
C 7.86359405134216 5.806449113252386 9.405425671784336
C 8.944123072673612 6.741558456181511 9.80202072256531
C 6.937066635599345 9.469812391594091 9.892906313392274
