40
Energy = -326.79977842 eV
C 6.5713574574359095 8.561479857878602 4.973704009105799
C 8.10432047013764 6.618104585103338 4.610881915056964
C 7.052872827582323 5.691030625486345 4.989887114045388
C 9.341431023084356 6.268741368376937 5.325682235299438
C 7.841183971600529 7.999310291423939 4.764471771610194
C 5.452729455962501 7.731769730621131 5.297576953494398
C 4.715722084029318 8.500904080212674 6.371526453104499
C 5.708768068589563 6.206223158282454 5.3023679355449875
C 9.056368523440051 5.158373769965759 6.167288559056246
C 7.6833138529583165 4.743669406119681 5.915347273887759
C 5.564278333214476 9.618798318828986 6.790183251670819
C 8.811551635623369 8.63616293349247 5.718212458561146
C 8.620309558839065 7.8746675758666385 7.049584364875078
C 9.854535129045559 7.467507332203969 5.971357311461699
C 5.092546427536143 5.5209801432635475 6.399680650141596
C 8.037385461988643 9.866021221367943 6.433194410472555
C 7.427473352044453 7.295139184130798 7.266980719927883
C 6.708566983480933 9.673359847286306 5.944646480148986
C 7.106899500379877 4.359397725637243 7.185407318983129
C 4.400719740419135 7.837049661451727 7.610888255624516
C 9.279129108117864 5.125646256089906 7.617533146382846
C 5.742670051291464 9.590697625189746 8.22799340078487
C 9.891292808945282 7.411064536480635 7.437211585893101
C 5.741966862194845 4.6335560791518144 7.390538396667894
C 4.8617347886085955 6.462299336901896 7.53636386099205
C 8.178506674076234 10.069556411207273 7.891841951117918
C 6.258401393439233 6.9779239245735205 7.360783766723293
C 9.322251848094018 9.849977831738915 8.690708233426795
C 8.035022446373116 4.708223988023572 8.242597513760922
C 9.718935842584973 6.289822249948914 8.316353740895089
C 9.499072869471771 8.998849791744426 9.587816936035399
C 7.044432381301104 9.65592858356922 8.754001594218314
C 5.069889790139032 8.427513412960808 8.76019687562999
C 7.68435972969956 5.656475978462517 9.314602917447118
C 6.2884977628005245 6.1419194426685175 9.456101856933694
C 5.384119395031751 5.488074824650748 8.551656282019174
C 8.563756944782043 7.945696294304937 9.826931511272907
C 6.063936280438074 7.643218096532488 9.57963637747651
C 7.218677527601907 8.497171392169093 9.695861647329842
C 8.778719292847502 6.575400781861135 9.450106618150416
