40
Energy = -314.56945439 eV
C 7.901348779064658 8.424125282721782 5.0132497540697205
C 6.728557497395661 7.573711870081013 5.176845098231639
C 6.75330487948054 6.384680254873501 6.012690958095126
C 7.528548307587429 9.79157929970994 5.28529864267735
C 9.407734838432575 6.616516247091648 6.229887844386872
C 5.756408143994665 8.52327943401912 5.828952975340559
C 8.90254995761227 8.044721010053221 6.07066653656104
C 6.096698477828945 9.93901777569629 5.638533706722341
C 8.00892089557262 5.736688128302425 6.353087299857978
C 8.180388673512923 10.359722812281031 6.4422501376485775
C 5.753737406363183 6.459602082971718 7.094380166382684
C 10.46800809309024 5.521380679395422 5.660583963885599
C 5.848900060249565 10.92043532813331 6.649304736630875
C 9.030461204212996 9.289126280771736 7.056594617093953
C 6.669019375472408 8.463606237280525 7.160583701156967
C 7.225725635806218 11.155741997730068 7.185517367381954
C 5.235813986267846 7.881927850670402 7.069901633886676
C 10.38669879232355 4.9832032886792454 6.944241865883215
C 8.090116340778483 4.747568229253728 7.349770095121998
C 6.41488106607749 9.298941210479295 8.202427681511299
C 9.434234544987994 4.342962445335516 7.814640812820448
C 8.016996426644553 8.060925070619092 7.28558679111009
C 10.288608243737633 6.387348691579766 7.366355442764033
C 7.266844081220925 5.142092982096178 8.517643300160035
C 4.919080099238466 8.923900495171141 8.348393898939346
C 5.354712335558693 10.415873385233564 7.9938397847178395
C 6.13004953058496 5.991707154472841 8.405862397758655
C 8.700939376228462 8.708588582085879 8.46965325079242
C 6.882316859131169 10.76834969782799 8.561181433077756
C 7.4587173604858545 9.503463396732295 9.232096665130392
C 9.523301740472698 4.7475862666511235 9.19613248549296
C 8.273797695420367 5.365972354193908 9.537695691835427
C 9.381785618255366 7.609202987375644 9.298883262349204
C 10.408157490483587 6.785283985228895 8.739738987563282
C 10.576812591107478 5.612275188971518 9.588168563038897
C 7.1097003317807 7.33613779382012 10.268864878747937
C 5.334278598482179 8.224582672924384 9.57460028814611
C 8.372604636718268 6.7726035407336225 10.006861038394511
C 5.917637215493639 6.914093469042943 9.523303163729564
C 6.702983123201481 8.712854850066423 10.287109391264744
