40
Energy = -332.45821394 eV
C 7.491637390753738 8.521345679613928 5.030420287045121
C 6.682739991742577 7.329713700483233 4.737590063123712
C 5.354984677418238 7.464850899447634 5.162509470448565
C 7.4490071467498495 6.187866794031457 5.180138408125124
C 6.668406771416072 9.289747903133238 5.929356272955973
C 8.879495847184488 8.072274892022183 5.148562118577827
C 10.042170653405986 8.41623939314432 5.841846915178857
C 5.344794455298336 8.650366448786782 6.002224671152766
C 7.079930811787145 5.668228987057602 8.78216717145119
C 8.782857032239399 6.606702243941384 5.2767717975787045
C 5.477280182158136 5.137179876257447 6.217477231693483
C 10.62909642267493 7.139952186392755 6.426302811497663
C 4.773205399649509 6.396629462934101 5.879384581038625
C 6.9040150179290505 5.261579828260409 6.1610957533646635
C 7.025619104099161 10.00371398876261 7.116019607727969
C 9.676463772198435 6.116960993611526 6.288220988681776
C 10.349704479283687 9.089526258467643 7.0829154224349935
C 8.155899109899341 6.2083525134941775 9.548416727144154
C 4.792474508510221 8.267730052159235 7.2644043283429935
C 4.348698050010019 6.902150795825014 7.149882578497717
C 10.850984997911757 7.785328873028801 7.648578424144478
C 5.7595738705598265 6.235941176391609 8.948618293559836
C 9.628930934703865 9.946473869244466 7.945019903928583
C 4.974123863825852 4.603437660939384 7.4314844528070365
C 8.23093769490323 10.334652136196949 7.85515114215982
C 9.358313634563507 6.208710927135729 8.745303672593495
C 4.714279665149771 5.836099700878937 8.08869008953771
C 6.33389728834981 9.737752187729425 8.391131451257616
C 10.328722474509233 7.270387484774323 8.883440380236621
C 9.041216710883923 5.573423192672219 7.46431306920498
C 5.389969993036863 8.70662358622074 8.504387605818893
C 7.872588733067117 7.284271789842412 10.490752292151663
C 9.7820016821342 9.645318869769573 9.33326806949567
C 7.563860515016153 10.152206746334402 9.145244223562447
C 5.728041515038058 7.633486134811065 9.46099838544158
C 7.648326932975982 5.230547011692591 7.431033110015568
C 10.013426331732903 8.295681165412162 9.815305790491456
C 6.556170574335319 7.790384987784121 10.518315296648508
C 8.499137911715593 9.681313924933397 10.055616201696955
C 8.817526809314359 8.317358634517143 10.618153897320498
