40
Energy = -319.60673097 eV
C 7.810439202379302 8.673861922006402 4.499610722427549
C 8.194704577553912 7.23912998243146 4.386909507779545
C 7.385244168419677 6.111760269795178 4.888275306059335
C 9.514525833980413 7.081466915964645 4.906380420875719
C 10.001812730884685 8.408004596380572 5.200162537391894
C 8.929391735706247 9.384995755948918 5.02339860145939
C 6.154455112392505 6.379485131003734 5.5109848392998675
C 9.40601219816245 6.025557565787784 5.99083929543622
C 6.548918722834568 8.90797950796748 5.1400367421280295
C 8.180603629794113 5.268206405236311 5.816278459300688
C 6.205435016197567 7.775694005418805 5.980468996156241
C 5.66492123334591 9.121506092541177 6.155006288904007
C 9.843711986257691 8.666074606203479 6.631543224639141
C 8.66356214511436 7.717247629696856 7.033097920973889
C 8.954297806730317 9.864086104252573 6.502896945862975
C 5.956212824302652 5.566128243350244 6.738645682232496
C 7.356996470990909 4.871502050474764 6.959389443503691
C 5.608507829853301 9.42555112523642 7.59727058067531
C 7.3350297906057325 7.4864352263957725 7.107994056964928
C 4.677064852403265 5.632017017286215 7.541612779223634
C 9.729367849966541 6.375071925362899 7.412214156504462
C 6.8502669750861465 6.331817288181453 7.7504562510777895
C 4.810339862351731 4.677844901030056 8.548600752831511
C 10.056205834714602 7.795886158810084 7.783399675400292
C 6.807552345762654 9.934496843843972 8.203333499175514
C 8.22711870173286 10.076194670556713 7.675743001176917
C 4.905315083382065 8.447345094780918 8.389175025261041
C 4.38211863293021 6.9768681188193495 8.2438093681029
C 9.088246175031182 5.820445663517268 8.596279939074426
C 9.447736949434063 8.163720155480936 9.073193320002371
C 7.835403374113626 5.129598480508588 8.36547292804102
C 8.659990964205335 9.340699409975766 8.977259360016859
C 6.813720959065043 5.770296279246892 9.306118962616232
C 6.729242912022524 8.149276076966775 10.022987442504727
C 7.32667920657227 9.317964372748559 9.433915988952434
C 5.371410906342755 7.994121626818907 9.687530413819529
C 8.846476563143254 6.916613652045266 9.552759552651535
C 4.704613119869214 6.702883738995623 9.618095203003564
C 7.506823584851659 6.91436794646589 10.008861671088756
C 5.386588013407663 5.434863324360158 9.617057019298272
