40
Energy = -311.30726292 eV
C 7.4633910730169815 8.792173316356605 7.416582134852764
C 8.913314934115169 8.596595659484427 7.5344893517593325
C 8.326535360074187 9.588090387699232 10.371951385914643
C 9.833318521169895 7.722753552769675 9.932575136138196
C 7.482618723925374 8.597531772247862 10.864846243449326
C 9.79591845523023 9.649122991094439 8.242165310404514
C 8.667241882824147 6.825529886261563 9.84024461140557
C 8.623025047084896 6.134988510306753 8.54251868717122
C 9.501954396854163 9.120010777657793 9.715917307204505
C 7.44183883494826 7.269638012786669 10.497366377336814
C 9.323304910971824 11.000932390797011 7.8055781076365935
C 6.667288315601586 10.93405818477401 9.06433647597477
C 8.16296542268612 11.170380127663602 6.9493671379224
C 7.722246572951397 10.856197193980599 10.013676043518245
C 7.854687119869151 12.491030654970498 7.56994355417227
C 8.988036282835406 12.21316366368211 8.524313977040618
C 7.053436145391702 12.335814807997656 8.715065636394622
C 7.1299963434893865 10.140363870037818 6.649393930101481
C 8.192121717171393 12.235933693171239 9.726166381341594
C 6.748002174157071 10.007480913930948 7.995627585627637
C 11.154951039778691 9.278096861645652 7.690775147416398
C 11.019156476350625 6.2061254556734955 8.461441372669958
C 11.051843419669524 8.198583282087151 6.74921933944624
C 11.0494683473824 7.13981591497746 9.554804006298818
C 12.380053492561599 7.668767961876695 7.035265734860015
C 12.375542009567651 8.69490480278297 8.183226670475817
C 12.323972315218278 6.673824816885557 8.022555760620948
C 9.75441983920845 7.565464184676472 7.014585818618384
C 12.413188652708637 7.655388893818131 9.174547487539591
C 9.762858129638609 6.247475870312218 7.724086706865189
C 6.640889368131264 7.510360906131084 7.426756394324432
C 6.3377812093635235 5.615023141686877 9.062675836531625
C 5.685834305430756 6.698902433467722 6.527726536971666
C 6.180866083813343 6.630279230705615 10.069492288303117
C 4.392927239579844 7.197906188960582 6.897330744610784
C 5.152258420005484 7.6352985568505805 8.050219640467656
C 5.723183751972333 4.793370726961821 8.138511916224244
C 6.286790290513439 5.453842251299961 6.984217875468518
C 5.221953497739243 7.3006573187371915 9.36390028687027
C 7.267232514956449 6.220534267879662 7.962947299442479
