41
Energy = -327.52746421 eV
C 4.729657506839979 8.953055208138737 5.234578080009003
C 4.11253512470409 4.222257922089591 5.570867338884146
C 8.476701224199012 5.5815502264692824 7.887711805965443
C 2.973118735824535 7.627807301249761 6.560945759880981
C 6.985637683936802 9.36446680183564 6.528622175438826
C 6.2170904755232135 4.343151539271134 8.455884520111564
C 6.6531526472904154 3.255609428634522 5.093449006544828
C 9.152111014335363 5.338519877027543 6.527445249610877
C 8.092427411218095 8.39897903311108 6.361434499087697
C 3.4633494241782588 6.468185797421482 8.728046431845792
C 7.3322903535327235 4.769794975011572 3.8536796881587065
C 9.4392253583752 6.391921321481158 5.5953171389791
C 3.566374480358673 8.037800908436113 5.418507589834613
C 7.492825767014969 5.392687407547081 6.68883604644878
C 7.812550711381608 3.4871077205900187 6.980558491667828
C 5.035300019929311 8.367206972962167 3.966839987260132
C 5.788194151944021 5.535995507090875 9.173788964190836
C 7.954598389812321 8.138178055232125 7.8218959903347
C 8.63680330845332 4.078430907299785 5.963309943769673
C 7.057435185573336 9.25230118173668 8.015300010759098
C 7.978711409172227 3.775791730338628 4.713281629188445
C 6.165938676383394 8.095638527296204 3.2453034366036904
C 4.012334369301153 7.302371750955406 4.219533533840599
C 8.807912919594182 7.66877217652339 5.463802398519928
C 6.546234132459481 3.0218503867077326 6.497452722749941
C 5.8571411521314465 9.524950912043767 8.803265310313956
C 4.2675650381528305 6.019828402477934 3.90925040002912
C 7.629840056463452 4.378542387715925 8.085724948103772
C 5.558543587520526 3.5545215599301208 7.436447282229841
C 4.380603543290646 3.8721758748045536 6.729280508614104
C 5.990623917979426 4.201487474492088 4.167459917845464
C 8.801876731345903 6.673065268525251 4.414148753537951
C 6.726892749499572 6.594859682675663 9.190698880267856
C 7.760209269904962 6.106175162471711 3.5820600704224685
C 5.556580875647749 9.417728033465602 6.282489508569822
C 4.705444756786964 4.790462420999709 4.396811783023102
C 2.936085794681574 7.125659943457508 7.709383683880837
C 6.88925253841469 7.083355409944797 3.1301909541439885
C 7.87840024913775 6.848827669739274 8.464428410035188
C 5.212078027459162 9.386146495707978 7.6786473772649035
C 4.458875302952741 5.922030552901928 9.25105257271853
