41
Energy = -321.60470582 eV
C 4.275143623046746 3.621163383771006 1.4208881592026499
C 4.417980882970644 6.028137347957828 2.4491656682615464
C 6.417959919028102 4.668305091739561 2.164183487062504
C 1.2777977014088597 4.757490360471168 3.23240449374094
C 4.9840169623142305 2.3478138947901765 1.4630072438591182
C 2.9542724832873724 3.6185169157006363 1.6842186923853961
C 5.029913510574907 4.844975381003269 1.8777708086472045
C 6.2523346125087755 2.1738342005679865 1.9688840198894153
C 5.730237492895312 6.7553097977003524 4.6138605063585345
C 3.1065785289623236 6.613866941684228 2.897543333007914
C 6.974143936617568 3.2863082658255562 2.4124933245109546
C 4.145116818054334 4.041304567817502 4.359967418336154
C 5.066064332711089 6.97371724396468 3.377614916763815
C 2.2296557042289926 3.760124464876386 2.7702982349888923
C 4.788658231721724 1.033041272440265 3.8130940521326857
C 5.161350731278241 1.4216299784264768 2.6092278696068725
C 1.889802366103392 6.01467949661352 3.3550056809446094
C 2.9187738645575494 2.245582839808324 4.900600292752248
C 4.860548696353175 7.443029486474526 5.625296455881468
C 7.124418108949287 5.206931722024098 3.3363623465044903
C 3.045697013412721 3.3637133622818425 3.9484377056453734
C 3.779090037702512 7.635957130822989 3.6705665482609917
C 5.145292209478552 4.163105567322962 5.205930754109612
C 6.7201268074147835 5.6853536228517445 4.584692469746052
C 7.325520733304206 3.8018834227178955 3.669809912278009
C 6.681075230083776 4.016460952577008 5.015747490953775
C 1.8572963437506742 4.995586050947313 5.839187247326058
C 4.0305132983918766 1.3174342109306758 4.927885582816061
C 3.75332689323817 8.048828631862284 4.9565713648680685
C 4.915854279262596 5.924191729132873 7.759478192447552
C 3.0588639589836633 2.686901813275409 6.296676121810538
C 1.4835719340670386 5.347350676037611 4.559413006621835
C 2.6476915371253007 5.3060701116308415 6.959406421770995
C 5.408605012248225 3.948727386079632 6.748028338372411
C 4.594787607113757 7.0362372236649575 6.948480747053897
C 6.8299215676627965 3.0552029420447173 6.257118667769532
C 5.57973865855533 2.4805231021806233 6.524609791610015
C 2.5169187806523143 3.9204816488707497 6.6335330955171345
C 4.348412228549666 1.8508977826392317 6.285026837871085
C 3.5418713762402847 6.2279294985191935 7.503575045446971
C 5.560860381688998 4.761204876452503 7.8037420493666785
