41
Energy = -333.41364065 eV
C 10.546671672164761 12.69034373971058 8.91609716937645
C 12.926650468065622 12.321156927985049 8.666710501926516
C 10.850673838577348 10.85581570240001 13.767594549496444
C 10.875698905913394 9.319869204691766 14.180038524866
C 7.696253623778448 9.60635097170411 11.93831114582062
C 7.716117943494754 9.53585232640272 9.622529558593554
C 8.384181309862077 10.346966648576615 12.893906643670563
C 7.892515226620349 10.975729248177116 9.58682659038206
C 9.630307902822551 13.310288987382355 9.758212439019491
C 12.707079705588951 10.889479887459506 8.526495886691121
C 10.274486119600988 11.33781053580442 8.398198875044985
C 10.826945972691151 12.394167549944168 14.17388879379475
C 11.950227218960517 11.533664168652411 13.143961145981466
C 11.424860539098228 10.352594409061764 8.399881184921737
C 7.875383547082189 11.793270379026989 10.759182631308235
C 9.82258879873722 8.64858384905004 9.282103183771328
C 10.519749814480944 8.17643771895469 11.698452468550151
C 9.445487530069958 8.317802191095003 10.673967113411239
C 11.15257982903913 9.002171737875823 8.923216381589336
C 8.772800656423277 9.369981180956708 8.673463409040414
C 9.901679060146268 13.627059614483013 11.097189303591593
C 13.98388555784798 12.159369672416286 9.615997223544596
C 14.004714274571088 12.097747446552741 11.932143020558474
C 13.021037676553252 8.74893444160471 10.723471754028795
C 13.600052274296784 12.876576543979587 10.833292728790815
C 12.069613358715067 8.385552514831248 9.767493902735154
C 8.678812013281018 12.95064401189091 10.716142222211051
C 11.798788951684692 8.07392625114141 11.107269957993434
C 14.143279674369063 10.692135490986194 11.93740349895882
C 11.251354281822001 12.812549918351767 12.92613345624833
C 10.450236636618314 8.895962399428779 12.933414978325308
C 7.557789113413908 11.012656300012713 11.938120379640456
C 8.992412513838605 10.801057363354534 8.52755757570835
C 13.317335709316092 11.36161824281147 12.890408246094745
C 11.180932864825898 13.52721224494625 11.687274769794517
C 8.100314908558424 8.823638910537221 10.843001492175663
C 13.825014116037089 9.906387492712089 10.761735003473927
C 11.876981986319292 13.04504312027551 9.27308420508256
C 9.751744703827978 10.176004093279156 13.148080948445735
C 12.254612350591037 13.381295190433427 10.663346738703462
C 13.807427780710551 10.719268274804342 9.586131830839237
