41
Energy = -320.08696988 eV
C 3.392929580287794 6.413910448228235 4.47398104505129
C 7.018333029766523 6.2354368679888506 3.8766562340183763
C 5.621681751200673 6.005777755171719 3.603629397032254
C 4.341618407281154 6.456078339570716 3.6279473163121896
C 9.180271926216262 7.060620919777923 4.288497018048012
C 5.971945822066186 5.243103644029309 4.797620644375508
C 3.0816212253504554 6.068180243529945 5.74919859608388
C 8.003728793517485 5.046328891171978 4.027285537835371
C 7.331495065246352 8.707421123391999 4.855694486833901
C 7.715786548555762 7.319149316604887 4.7643520348732435
C 9.949768371918397 8.001713588490993 3.811507760574023
C 7.046309637359247 4.190270920974851 4.738734342406367
C 9.18279743851942 5.583614821805281 4.5914614127177815
C 3.242983325881121 8.283836746956602 6.909530414020445
C 7.0556894530694665 9.765890434325014 5.412954595041664
C 9.498830672098585 5.3877079096201665 6.005652414804718
C 4.07150674834985 5.001832329424173 6.491423532564641
C 5.347878092862435 5.6878835894118795 6.100059628246201
C 6.619666385735234 9.433485159546448 7.883977965324314
C 4.087865731223813 9.17820806891835 7.064537295847863
C 8.176023198032402 5.545357344868845 6.6707489614192195
C 4.7445748418312625 3.6168522355661987 6.963933450049679
C 7.418862441657227 6.607780623841486 6.121909226284085
C 9.490215336109191 7.12440426342301 7.993194614473719
C 6.13479907223763 3.3452361348333928 6.799673320873746
C 6.920334292140457 3.2529342643744132 5.68103912677297
C 2.8038104858885644 6.9496277528170545 6.905524622597708
C 6.4829029852846665 10.090166461541225 6.644459459516184
C 6.088739454815108 6.596809033880501 6.777191412390945
C 3.6955661518047433 5.184085878122695 7.963272068342211
C 7.647547901184145 4.97377366813896 7.964186210872457
C 4.557813268573465 4.1067954004393865 8.352504303425045
C 6.739898730986789 3.9363627774353485 8.090956869520264
C 9.78171079425172 6.314610692607986 7.011455846266799
C 8.300309577807225 7.391305986453396 8.643205754506495
C 5.304411793976484 9.764420957840178 7.303342432152665
C 7.14380829772916 8.268128076290234 8.415634401581686
C 7.387046113101075 6.161279890229728 8.79510319704341
C 2.9478601105917592 6.307974755391742 8.16221419108338
C 5.723882198779208 4.043652618796612 9.123184238643061
C 6.404098824597715 7.004913942054159 8.19948849805842
