41
Energy = -323.148832 eV
C 7.451796100228789 9.939034221868223 7.845397344731341
C 4.704827179049505 7.8899431319614655 7.798489792863656
C 6.543663703739613 9.41983963810641 8.504066327502843
C 5.77286795909031 8.270086290250445 8.744165514235348
C 7.836928443197836 7.218946524349399 9.722263064798813
C 4.862452317093764 8.086480211333898 6.314927789021141
C 4.060737786668824 6.669840949591538 8.123483848372489
C 4.2866037952694125 7.244688960694468 5.23837642370554
C 4.373904991329914 5.788475503939665 7.037377165113928
C 8.231872243506736 9.615026498968907 6.715151919121177
C 6.433517733177641 7.177854200012389 9.425131167977922
C 4.665773383708731 5.523126356746806 8.810357193434214
C 9.72177613898273 8.29967004959707 8.15404656278924
C 4.695258696048376 6.968506648981524 3.8337013920325163
C 6.185683918474468 8.438173315705734 5.76018501680926
C 9.304646108702805 8.61279749311559 6.865740704060714
C 6.922382393999594 7.3357617760053735 5.349876566183142
C 4.25953862783601 5.916493761204566 4.642417552368362
C 6.026317447115265 5.776898878252602 9.208837678984548
C 7.446274791921569 9.184659809701534 5.631955528630746
C 3.942426266786184 4.529352776430811 6.502589083354959
C 5.595957955632365 7.309067425941126 2.865044549938747
C 6.693875223504203 6.0170149745242 5.7254209065357395
C 8.162678098337096 8.044235942786772 4.830483977969227
C 4.643070879753305 4.3114366121218195 7.791566810978282
C 9.116230756993664 7.6057586684316085 9.104404429821136
C 9.281524532832593 7.627739582791757 5.7961853565288095
C 5.865431992186914 5.736888183699182 6.772315167097411
C 8.71430320618145 6.2505611127087795 9.26095329598353
C 6.970700993714735 4.910800686931086 8.476120337551293
C 6.799208387162066 7.788557352032946 2.9615003682090975
C 4.558460631139437 4.56476852062056 5.190680340369517
C 8.028672512073562 8.02454403451233 3.3392051339953848
C 7.256129614727824 4.708800245555732 5.305180042938663
C 5.911845689258082 3.8683751528462533 4.998033870762802
C 9.365976107581297 6.244032478793887 6.047019427763941
C 8.693436374428098 5.029280664801159 5.6973227160522795
C 6.1354543834617745 4.288740046769429 7.426079085944198
C 9.02971741407424 5.227876193107659 7.038640008955467
C 6.587708754661998 3.6514136557106185 6.177985773335079
C 8.371187363593313 5.220555422740473 8.327930251265139
