41
Energy = -316.62186191 eV
C 7.461476226332608 6.771860052315815 4.644023424778246
C 7.9259250154463485 8.115199635225093 5.1359840006266815
C 8.550668465308638 5.75618333348997 4.911180303858305
C 7.6876557709546 9.797512446465223 5.128162259822092
C 9.595975456306453 6.2979474145731045 5.759280529286789
C 6.190943107970202 9.724104134238193 5.514586480828042
C 6.223165883647825 6.431136997311876 5.277777896139582
C 8.99976986661419 7.676067786728424 6.154818013857398
C 7.865391279833728 4.6505556634818985 5.636047723930261
C 6.483823679936283 5.151971590713246 5.93393357815946
C 5.634261788668898 7.517680587151897 6.237463754326682
C 4.937040271965845 8.98194905866088 5.896656245096956
C 6.830678777083572 8.454206070001868 6.067144515737348
C 8.421917433881267 10.249341563803057 6.278215313963714
C 9.053301474731974 8.961729922168885 7.0036395905359035
C 7.425402857066351 5.508774997860469 6.917711887195508
C 5.359063766811959 10.07197501630485 6.727623780806799
C 8.411805032252147 6.621963470057446 7.208186031295055
C 9.555278890620412 5.51265727207606 7.126434515609355
C 8.486169259463818 4.434641986819598 7.001445863691238
C 7.539304235903295 10.368505185372765 7.6089846926088995
C 6.060837576108929 10.337838834266773 7.952913687132168
C 5.708137339310211 7.143106885237074 7.863502676556225
C 8.367199750266375 4.484697442935298 8.551296784574376
C 9.637911451162468 5.293634082889877 8.660813272971023
C 7.498396619844315 8.836496826409288 7.299680811867545
C 5.926833477002865 5.94052896796381 9.09643216867781
C 7.274278787510037 5.210151028428191 9.220334270296869
C 6.969248732995762 7.837403774950773 8.224521276755661
C 8.187665563447062 7.152959923390231 8.595709321568522
C 8.36542842764163 10.082467365292079 8.839952954646787
C 9.433553917035695 9.188296567481638 8.486700611222496
C 6.072314272207505 9.619565603858739 9.21464251442134
C 5.6942014098899545 8.16255449033866 9.083768241567805
C 7.450941798574073 9.618421954002635 9.842658719845248
C 9.175222165284309 7.998979618466252 9.404119833595763
C 9.456800297652613 6.389679970214786 9.60474990694375
C 5.9817701858606895 7.04954321223242 10.026802723812665
C 8.041644847599466 6.185470218458695 10.003304862991882
C 7.276657442270136 7.225271570447121 10.682211846621971
C 8.010405009883721 8.415435090262624 10.405050724123031
