42
Energy = -317.38429358 eV
C 13.875416985541955 8.716125637412638 11.242211571206331
C 6.6381210348555175 11.241295036748065 12.187423210497967
C 10.932503967554167 13.611517482191424 13.399835428441898
C 8.537982679164928 11.020028816252035 13.661826527794068
C 10.42531561144004 12.133491550401201 6.723751537698829
C 13.283102840948157 8.039788665136838 12.157053307860942
C 8.336342782701003 9.584041679687628 9.328294629047075
C 9.558659155828394 13.186341017564851 13.475202361554919
C 7.442357988856612 9.049482112260266 12.856056659486862
C 11.73203823672815 10.531232419243706 14.322316061797762
C 6.709007943104806 9.942531577727557 12.27302000431726
C 9.523407270079195 8.934441436816012 8.735253208924155
C 9.390589575927937 13.224383766986708 7.117737077701613
C 8.35373453816653 13.052347118138142 7.8504794747747235
C 13.934802981628398 9.74297054107254 8.973106656549346
C 10.497279833019883 13.37401663415619 6.21571150602961
C 7.729096540231632 12.10004944796365 8.573724568341177
C 8.250531026609348 11.007849163976024 9.256541268204176
C 9.822285512441463 9.044788670104305 13.940761767357802
C 7.07944520502291 9.939699980377728 8.855040887501143
C 8.553543292884934 9.574959323533317 13.564991842260039
C 12.616708434673283 11.54978859452828 13.795456243269166
C 6.6033930953386495 11.248667175222518 8.98586413617193
C 10.13835344819883 9.860041529308706 7.859939945326663
C 15.982219614348018 11.457200376138706 10.16298414254407
C 15.647139019030751 10.27419881966487 10.4475217266632
C 10.949684892092787 6.674521073849798 8.812347264694846
C 11.015785096175184 9.33708183301949 14.13939275729715
C 7.692890654364351 11.897474327233653 12.846294231393115
C 9.792535859560282 6.492847240661021 9.779424659787749
C 14.20349939253699 12.044904194150904 7.89148745690357
C 10.864793653941383 11.616264434768448 14.507847300853522
C 15.016900716977528 12.643102639278858 8.724523850755098
C 14.473561534761528 9.467023315911723 10.285103079955297
C 9.576651362185892 11.86317370112837 14.143951791902753
C 8.344425106922628 13.193389170030917 12.804833644591074
C 11.781499127421181 12.704846391967552 13.924358780756716
C 10.437833507223557 10.861050045272929 7.193476478742293
C 9.97823941766346 7.694869490839713 9.038217326783911
C 10.769003962354875 5.459369791755257 9.561677905904872
C 13.817913945199635 10.853667938693587 8.373428365354405
C 16.162236391381036 12.557914446658206 9.38192019155193
