42
Energy = -335.36206135 eV
C 6.158044096734189 7.620740924372194 5.525769739593819
C 8.619452723955579 7.505044666417861 5.7611083415902495
C 7.340425699781873 6.824526717251239 5.38606011114947
C 7.201809130395558 5.628439278591366 6.198377206055318
C 7.508188713089754 9.703856774618881 5.8615867883053046
C 8.7582001817932 8.991036923136543 5.731155405940299
C 6.25232807960378 9.01818983570031 5.886041461217401
C 5.285370980267439 6.9334924176718 6.509670338486643
C 5.951431508882949 5.725324567428177 6.937458359154949
C 9.276594426301445 6.547707115177174 6.833866129699336
C 8.27726933940978 7.627720834976104 7.225621512250029
C 5.436760001438663 9.20250800510341 7.053288385568265
C 9.469261573385884 9.863240885568537 6.722698006803958
C 8.311370932411851 5.423329311045309 7.090643298052491
C 8.08953196146188 10.35400662012677 7.064495040645684
C 5.842485627943034 6.6340032892290495 9.204583583451095
C 4.814786972899367 7.91352772634007 7.423188506503959
C 10.23226693414435 6.908589645843852 7.864058493830129
C 11.802510162069987 8.897625188159624 7.6348937542380355
C 10.660742324465275 9.871204349257992 7.389583174148763
C 7.559859203217669 7.737340610257098 8.247581820797944
C 11.431891102622574 7.591995564318711 8.086751067460195
C 6.009026853799372 9.786657279930132 8.25487642044073
C 7.420587662831535 10.225772763568182 8.284086904193183
C 7.122322056316714 7.324799803341669 9.61558770738372
C 6.307389710688923 5.6113640847872945 8.327842454176846
C 10.320054035834985 9.740978768671447 10.021900671599925
C 7.802630603997467 5.41521528202793 8.454732278816273
C 9.258261762640455 8.735671655382198 9.549475883011961
C 5.02186011438861 7.748535962009524 8.832628759529848
C 12.112705624403493 9.592587069016927 8.92385538752701
C 10.957726096710134 10.391104489482656 8.784895670395798
C 9.670567118875228 7.210048991899753 9.298284884608757
C 5.626251796773853 8.991875984585212 9.365449902825949
C 8.041556347755703 9.58862873801725 9.54014030547211
C 11.265505447033117 7.6003429429170986 9.580707088524122
C 9.044372069073146 9.750035087579796 10.735582282524327
C 8.32803980600501 6.418049260784428 9.408923394917071
C 11.58705117170975 8.856502792498572 10.085567314342722
C 6.845530686434752 8.726429075525903 10.235370367018241
C 8.35111619232724 9.33520612692159 11.954944061390938
C 7.181918099875122 8.981797524209421 11.661722670106574
