42
Energy = -336.14753335 eV
C 7.560828092978926 4.4826128506688505 3.1692641979796177
C 6.5648490407517945 5.312058286631025 2.6055799573075435
C 5.231270692620326 4.986316832663574 2.4180509262544914
C 4.173049794609392 4.953937239693568 3.243982157512165
C 6.9639078481915835 6.694232615447627 3.0046206694752615
C 7.997045478480432 6.627195344749125 3.980332198168848
C 6.0520752796745825 7.72170163455314 3.272130379416408
C 8.57514626871963 4.515479662289121 5.377711737948615
C 6.770715925849165 2.7504593048200525 4.982689927146071
C 2.9061600871477964 4.391129485220995 3.6046835324835427
C 5.6561908243753525 3.35728670908058 4.936351920561149
C 5.031850068692703 4.492754297337576 5.421741924566653
C 2.632257326824494 3.8652083653988303 6.023572066888986
C 8.333632191929768 5.169505459903083 4.134144956872785
C 6.075241180643716 8.55030403570863 4.430532733618207
C 7.0189755904751046 8.453226665617889 5.465818109519769
C 4.501900875115957 5.478214427393055 4.607158558100964
C 4.245008234438546 6.886135850639599 4.937697793124927
C 4.912179884490042 7.837684415994059 4.064892303972875
C 8.163454482694311 7.587487278965441 5.075234060916276
C 7.670724417421956 3.4485229050339936 5.787676448266991
C 6.122567745727572 4.421979750991351 7.713275485589246
C 2.3962935635164775 4.036708600722541 4.719880872495346
C 6.710626542658695 8.655101491166285 6.85372466574166
C 9.067332533137497 7.264686065877277 6.0694143457074805
C 4.903120526894732 4.298412133314735 6.9126087773584475
C 5.457675003300045 8.660753894343998 7.637251914837024
C 4.185508271839395 8.050297449244864 7.3301476841343085
C 8.508821922696505 5.076237213396764 6.743521946540126
C 3.5331478534918204 3.983306165112494 6.9247946117442005
C 8.048839106919244 6.925447457368524 8.237222935718169
C 3.997315836134278 7.337377632982489 6.175069052485171
C 3.892965741964072 6.486462313928981 9.162441395131703
C 7.394036591912084 4.162803092137707 7.037810412646416
C 6.17309918786126 5.194017997630073 8.92721893974047
C 5.147260440724045 6.05922173834312 9.537462636953984
C 3.5137382294819393 7.435022161914106 8.437062792576562
C 6.1981473700533725 8.279248524364801 8.874045622469367
C 7.409230956519369 8.196510707128198 8.05424807401693
C 8.768817096646504 6.375749120801884 7.128577456741936
C 6.137311817172208 7.118767016145609 9.637679607728764
C 7.206335046786703 6.229090776838507 9.151329181105558
