42
Energy = -338.3541447 eV
C 6.652670534334301 8.535528850446228 4.803433180336874
C 8.34366126506013 6.968451475674089 5.753882449494517
C 7.186849069334815 7.120889814447336 4.668230608443333
C 7.479681333116446 9.521935255489373 5.479929915531866
C 9.346072744292913 8.075656829405972 5.754112733821822
C 8.90042991364458 9.342884855850844 5.371212261492965
C 6.3808006179457735 5.937874201722564 4.646647152085554
C 4.896828533758287 5.583366415500173 4.840316663313167
C 5.359623913628833 8.331457896981295 5.489476408595497
C 6.7251491117356 4.784404645071445 5.516589422416443
C 8.770592524831601 5.68872789823511 6.476701661258515
C 9.620943242303406 9.924498506459635 6.529320528452553
C 4.211261785747805 7.701900656007184 5.429710624810363
C 5.982886404223297 7.912353931610683 6.755484984863221
C 7.250530133948102 7.264939580761678 6.8833315617227315
C 7.308215323686697 10.192232410472748 6.788605241142174
C 5.345220270290941 4.689442821850225 5.870473456467145
C 3.865676775163985 6.377415811072973 5.489054194706706
C 10.18929434760029 8.642086727558386 6.901986412316158
C 7.651557198241229 4.751614302148299 6.5382746988333
C 7.11943937006108 4.659028025641789 7.905313033933846
C 8.650378315610455 10.46907630227762 7.3725664379317575
C 5.771470503576739 4.915869845085999 8.308308432796483
C 6.507057341642096 9.747053236407723 7.967411254624328
C 5.782587150125632 8.516769993449346 8.020971832184927
C 7.379080396583617 6.869101219590123 8.17984175761858
C 3.758773676585631 5.874730560439568 6.846519106128769
C 4.806575484741938 4.98305704179777 7.183646317350715
C 9.307930015974758 5.8760755599643275 7.811197491699367
C 10.21603534441703 8.226711363773074 8.244061527632182
C 8.100921471800529 5.538552971020956 8.599192387799972
C 7.376200624381322 9.754281024855493 9.138556775710756
C 8.696227263643841 10.14769431044078 8.768787457293428
C 9.9214066389294 6.849292857708591 8.656460821306021
C 6.473185226638515 7.578261199434309 9.061222213799597
C 5.867120044337201 5.794781445928455 9.550934588164413
C 9.552518822310258 9.089264822951476 9.222397184253794
C 8.207205297436577 5.812140740611156 10.061584951122331
C 7.392650813705451 8.499729951504646 9.866268460970161
C 9.22962731486304 6.838496161262173 9.982581706221927
C 6.8854045252425085 5.675646797931265 10.410997008721235
C 8.782171302667972 8.188633669320796 10.106317080793222
