42
Energy = -340.49996427 eV
C 6.942607446596218 8.02865254289776 4.966618278284345
C 8.144336522796555 3.971704053114622 5.725004999684427
C 7.868350741706385 9.088621511786032 5.313928939449241
C 9.187206677148696 8.686105460668424 5.449183447824017
C 7.258657573593954 6.616069726711963 4.976278430400084
C 5.741454372887498 8.261764397942882 5.649054899910859
C 9.613892171013713 7.2839339472045115 5.45570998565583
C 5.8542408824456285 9.465852142980083 6.39023853301905
C 8.830801521206949 4.873167362283394 5.226167546868592
C 7.269472123079724 9.959668007838722 6.333514305604727
C 8.70999340980393 6.2595745652532795 5.008546084220603
C 7.36101372626336 4.036603722496985 6.932971135904415
C 5.292370585218189 6.9733179583858025 6.193582746242298
C 9.958360888529416 9.02714301475512 6.5851034853655355
C 6.278599331256836 4.931690139781476 6.8429831449394625
C 6.140291141010085 5.9056420682684045 5.686592430059436
C 5.794941262858212 8.072126141833099 8.28129634969286
C 10.399548056802974 7.655254675204579 6.773189835022763
C 5.198389570628941 9.335620964323773 7.65795324819903
C 9.367751432911872 9.582473488510582 7.723931840065515
C 8.015237306411176 6.683124320278865 7.410807255295729
C 8.185502663621872 4.260010064983844 8.090260116953873
C 8.847845749203266 5.567381427796877 7.827988309418681
C 9.627589081366773 8.600675207725471 8.803874351604756
C 5.212131545565887 6.8424434526463855 7.610504382641244
C 10.270813488796788 7.411680603068401 8.197363555782815
C 5.798448259250765 5.591722665111628 8.071226554791297
C 6.27399048943377 8.179890464649084 9.738373862482375
C 8.0621784145598 10.19046430884815 7.580874401921463
C 5.010398321782293 10.456503862156818 8.413021731427177
C 7.241297878666025 7.626170925251889 7.674506414410806
C 9.844591798511106 6.134265394524895 8.714471070799682
C 7.3913459479622 10.335932230643852 8.881689115166344
C 6.535007587684786 5.6193756558976435 9.32251767311797
C 7.788967825462165 4.913978971532517 9.279029217271141
C 7.416999475348662 9.13893533474927 9.729174145114897
C 8.624276519200569 8.382349572040127 9.8078425390384
C 4.969655307926703 11.653350602785492 9.115728349587375
C 8.909923356567976 5.905841482873315 9.769705554146476
C 6.203280595326288 11.041698411033058 8.978648124196301
C 8.238165161988558 7.042143480004903 10.24538517652157
C 6.8116584256464305 6.898660307199119 10.056743069938994
