42
Energy = -330.74343743 eV
C 10.717953022041097 11.662924985372046 10.001210740153512
C 8.373961104314121 12.989493849006667 10.402874008514678
C 8.286317521537143 10.401140013773693 10.420171522762171
C 8.793746806476683 9.155377866663375 10.87887186929394
C 11.660794003000298 10.099507430272622 15.41136595350885
C 10.614753123855195 13.573876501836006 13.4258598404342
C 14.80408289801728 13.421300793547902 10.3933458174033
C 12.263250124172433 11.300343818076545 9.745242979244003
C 13.572703752125536 12.573591130627637 13.131940447008613
C 9.113666834292793 9.654828456804474 9.56345642401238
C 11.6170324114769 11.059448827054089 12.077297507821202
C 11.520474243198365 13.942177037336377 9.322394785568287
C 11.616949140271815 13.695159387820208 14.480471599540122
C 10.398957664541248 14.423781174577575 10.215090541320434
C 11.481629954480352 14.742901974676244 11.17997015371728
C 10.665106124348528 10.698336414129813 14.485012251453293
C 9.112869764903651 14.028952765885009 10.273138200510546
C 12.64454893907813 10.713356577082697 14.447025863212286
C 11.50822858233423 12.57108255452758 9.286070688465136
C 14.480679383044173 8.710961100221358 11.138489748356644
C 11.52571904698481 14.13288832027974 12.422759260597868
C 12.503015053149419 13.544095228204123 13.325637144842121
C 13.88876293358985 14.282128247445206 10.246143026493323
C 9.237322039060183 11.903934507920118 12.059106494932001
C 13.607537425032998 11.55255415846876 14.04201954221522
C 10.813718829201692 7.992212051406674 11.702915165115954
C 15.051968455835162 12.14089890981352 10.894771905822413
C 13.327786689733538 8.177419980951255 11.437690398681218
C 10.310613204845836 9.521978876460986 8.861634431848463
C 11.63635688771092 10.701105278150935 13.397805809695553
C 10.430836460680617 11.504672148581017 11.430988912817899
C 13.838959798630919 12.004636532676034 11.758987341750439
C 11.225004177968248 10.369984925259718 9.301882407295853
C 9.532994983555632 12.599669766200677 13.345261485792257
C 12.1148051251899 7.823965224064103 11.647205114694934
C 9.593793164665744 8.338504055148588 11.60789042421763
C 8.187468278093878 11.773458580194621 11.001048039203258
C 12.764887104757163 11.335513016690092 11.216917018548257
C 15.665934074927296 10.941871233644695 10.625909117368113
C 15.193426788833573 9.756231244066475 10.901386292332
C 12.559385144253788 14.547646608897312 10.17615314297581
C 9.643805450751376 11.525228692415384 14.173707318648038
