42
Energy = -346.08300096 eV
C 5.547234304678043 3.6770375336381296 1.7288427354895124
C 3.426765918512913 2.525542253012525 1.0905869170676514
C 3.3684696073615368 4.901267132058957 1.5844336481290604
C 4.804721236770025 4.920127839333969 1.711842106717109
C 4.884348636254256 2.5803647404925654 1.2552938445585864
C 1.550203259116909 3.1727026424109424 2.5348264556782785
C 1.4623941714211302 6.721521908197717 1.3610475411908374
C 2.6384730295468124 3.597657939667665 1.549243251925209
C 6.311778319345047 3.6077249587378644 2.9650784394064305
C 3.3830845526280986 2.8256393544018628 4.418623052924971
C 2.7296434027254133 6.135612481577408 2.005619695361983
C 4.83257671090835 1.3596352129187146 1.993731415241697
C 1.0945749195456218 5.965167635168474 2.335177853595975
C 4.650326234876914 6.591180130572483 3.5586074747855827
C 2.32658392479547 0.741706057985392 2.3667630793713617
C 3.3943017224968854 1.1575425530801493 1.6205566556051658
C 5.423085818493897 5.788511092617056 2.6574142301633867
C 1.324264511636425 4.025482630964119 3.739190936018899
C 6.3547299607086325 4.966040917554704 3.439301612392043
C 1.378097528217793 1.796366666160063 2.765971170611178
C 5.402581046012678 1.2891305515780924 3.3003827877104275
C 2.3501090402010125 0.2331779374098539 3.7551024488123357
C 3.262940777549304 6.684409811735636 3.3079742652953383
C 1.9318022929537222 3.4884187662920203 4.988303224409659
C 3.5311006553525965 0.35351760717164343 4.543936394957518
C 2.355029446680997 6.201730929500725 4.32872995275621
C 4.867645059109638 0.2762801487302013 4.12551233764573
C 5.160691945869207 6.319498668112469 4.88700233812321
C 1.3614240997234062 1.2171425380320517 4.136011490582841
C 6.0456898998800295 2.5106813639591223 3.8607601863136636
C 5.680737936686212 2.886281723713065 5.23417577387508
C 4.788613052196812 4.703725936860049 6.494702706502462
C 1.2944430028222644 5.39921346513542 3.61673405229767
C 3.293390513009932 1.495539131052125 5.444096107095767
C 1.929941864312173 2.0303292185980437 5.160683072712647
C 2.8686565062002507 5.734204984904686 5.560200427514117
C 4.25641521483631 2.5776017121422914 5.750141435329308
C 6.22512320729883 5.279263345819407 4.789422139380248
C 5.911047996569739 4.2194035756871395 5.702200545397234
C 3.779985872874802 3.7638769435880324 6.5288034034421
C 2.573306253952711 4.376842538627947 5.94958908824464
C 4.2766223808428885 5.935853255774351 5.886339540342554
