43
Energy = -342.76929619 eV
C 7.948745081347598 6.380538999802858 4.692769549124477
C 10.087006505768082 6.646084468803745 5.546230813050142
C 8.979398597602723 7.38681728246732 5.00684425715902
C 6.887030045546872 8.869543728707177 5.448896840408349
C 8.333007655244536 5.134778889411749 5.325473095118917
C 6.65434923520997 6.493310704925467 5.386571764715626
C 9.67270256350969 5.224629954660033 5.730205013180684
C 6.056022680477757 7.685320833469052 5.737221222481248
C 6.566471134488137 9.903530579501423 6.327547705257914
C 8.359652882341914 8.57623087150863 5.751904055710811
C 10.702811924819908 6.776134160640872 6.864728554004586
C 7.214583671986456 5.445756168037521 6.333659418160826
C 7.802478799448925 10.549407294009 6.87056025532795
C 5.41951467385672 7.984609296240478 7.043509931176704
C 8.964115433326757 9.852130889106684 6.497785400719612
C 9.907888321240202 5.519493729475151 7.136353099288598
C 10.702589664368272 7.898052934818835 7.76948679947591
C 5.524029235012776 9.409511999779067 7.233845910214604
C 9.900262770393148 9.400064372106204 7.70127800273695
C 8.197660839727487 7.790454900554307 7.088794222787119
C 5.444092700670794 7.317985371216033 8.33485044881006
C 7.222716239294509 5.397124991087009 7.899205194274738
C 7.904566647576829 6.479237986140772 7.231252585092471
C 9.131911777541866 8.21044532173109 7.986348831203138
C 8.839845418113967 5.550972478358661 8.174300014471976
C 6.185948060527936 6.071402606641271 8.850671903960878
C 9.975723508983961 7.554888590943909 9.057382691322758
C 7.209641247154102 9.615096133954228 8.77762232414859
C 5.680067552569791 9.61785067745718 8.671354185539915
C 7.656612576343068 10.978450773873941 8.288324737588125
C 5.459379700232259 8.31909644534118 9.383402427573325
C 9.715702125223272 9.88854791281033 9.213676523647141
C 6.79232615301162 6.558796228969292 10.265102688329215
C 9.172086134586609 6.346506257733421 9.365875976521577
C 9.665873706793796 8.653689265798151 10.013249224674828
C 6.394146830661926 10.85214600027918 9.252421665125686
C 7.415855987317829 10.171975841457352 10.196477024097863
C 5.71098963612737 5.520785185024737 10.153672188805539
C 8.628225555228628 10.713882135249053 9.420373169970993
C 6.272035340769534 7.992663631455604 10.509837482029107
C 8.265440761876615 6.765572519376243 10.326176686386102
C 8.571783170644174 8.144067281381375 10.758982111446823
C 7.3192583696400435 8.866965222304232 10.890324921488425
