43
Energy = -339.30085274 eV
C 6.7062973684200795 7.1633263477057305 4.57590742877302
C 6.823057795650926 8.447916719718682 4.121214053130125
C 9.031058339886542 8.824419916439973 5.121769070783251
C 5.556671745849237 6.575593654521904 5.160810812320744
C 7.893469782671038 6.69049681994297 5.308173865942393
C 7.664526047047303 9.234080144283702 4.9923264097238995
C 9.211141462716384 7.366162672593638 4.885675320178786
C 5.0196784093249605 7.3720972173471075 6.227225314330258
C 7.884777988793496 7.151322897748186 6.777882979161632
C 7.3981973974673405 5.660573089180508 6.487614898308725
C 5.85356974500203 5.796269697487866 6.3833205920539005
C 9.930974483443004 9.163955693135831 6.2688574321968975
C 10.162029033844473 6.965968945028741 5.845937453021421
C 6.939579475524954 9.655155855567447 6.146771150929551
C 5.805643003363067 8.634790274743231 6.739710763390836
C 10.810067958674997 8.069541392591479 6.4924724658866
C 6.868020600891658 7.843662334095156 7.513641406474901
C 7.330905026324942 10.3519633523877 7.365587678265077
C 9.38004817404464 6.745192696168215 7.120284185297966
C 8.409097210622019 5.742530362452724 7.653941351576754
C 8.448630026365464 9.980758496611253 8.254995558736775
C 7.862853414666732 9.779416591423454 9.65596823690586
C 4.737882562726682 6.310135203226274 7.230695339388265
C 9.54051754466569 9.275276599158987 7.675513612350818
C 5.52571066676984 8.573887262640662 9.255899665119175
C 5.284638301317046 9.345130087414422 7.927901935207187
C 6.180344541725115 10.34500684455017 8.238625995832724
C 10.226674551815012 7.831623692204164 7.913597395879078
C 6.672039389944711 7.681734889724708 8.848144891491184
C 8.42015550672427 5.944953337323575 9.088122398843216
C 10.713801966626859 7.083534527217208 9.097091716252582
C 4.475993807749048 6.624855246167076 8.540515155204348
C 4.444981736723661 7.519304404080981 9.445048577355177
C 9.789753395701679 6.10306021319075 9.612838663952555
C 6.457503891132679 9.906064008700003 9.580728697770098
C 8.343900914312204 8.995885491221289 10.770243601595867
C 7.484251604583913 6.881714191315229 9.733398184592916
C 11.145216058142521 7.553580508984833 10.413265084463895
C 10.891058971079554 8.84895060069595 10.817544190693733
C 7.910786777821491 7.5676607407937215 10.889619230533787
C 10.12142234044491 6.521122980127946 10.956287363909444
C 9.597251314788057 8.70726479809971 11.40494549317366
C 9.165509578491953 7.283749115868162 11.579574292883398
