43
Energy = -358.12981286 eV
C 7.146872128805799 6.8747494342007265 3.256219029119069
C 5.016360922994978 6.216148885466054 4.021002016857493
C 6.322621909882019 5.7936744292034925 3.6579902434648797
C 8.454815314376331 7.321309724638755 3.533772778085196
C 6.8757741563334385 4.731779011377913 4.406805872689927
C 7.017638240069302 9.044261004203415 4.796934867182395
C 9.565654878239338 6.926360173472428 4.196190885184816
C 8.84473111310868 4.825819699280085 6.307035861443517
C 4.395318299097993 7.246827311062805 4.74022404449942
C 3.1148208157328985 5.153600511967535 5.603032902412082
C 7.305784794325495 8.171852885624158 3.728410330170617
C 7.948631437407147 4.422972737626682 5.27700999815937
C 8.191050412911647 9.466787572908723 5.521835031034399
C 9.234998829288699 8.520307919450962 6.051864779433617
C 9.563951973894723 7.20824940002331 5.592638278825985
C 5.876618245325706 9.056487821206279 5.728811970448935
C 6.663818002354123 3.850883826163562 5.503469145706005
C 3.8362205965142624 5.956337087283415 4.707145858174272
C 9.403608218509374 6.1705786141290115 6.562517021373271
C 8.41542976440051 4.2664937854076355 7.56144541705015
C 6.082175402837939 8.647191815347984 8.197228739992973
C 4.630262344501645 8.316558900368733 5.6931945532156085
C 6.450889449511814 9.422874611361712 7.032049157466561
C 3.004690241753732 5.725912100804937 6.905610501311767
C 6.1262975383996086 3.545711492215041 6.767347254383259
C 4.865903854007382 4.0624072952722345 7.387356570198315
C 9.015493829638595 6.491331693767816 7.930577404011234
C 8.750057791534525 8.78849005201587 7.378452856566437
C 3.7206525442377534 4.5143516654350355 6.764214852953246
C 7.148551592200143 3.634312967012624 7.768828599200677
C 7.790872400312617 9.761973963932736 6.874528266711718
C 8.538974970784619 5.318673519337372 8.56032584531322
C 3.982682754612312 8.105432318634856 6.9537055637133935
C 4.753804738681434 8.252518850092832 8.179771564930236
C 3.294208724066592 6.899511163848069 7.538688480527087
C 4.251452944668504 6.974155701711925 8.647614942069193
C 6.566587877642149 4.214348952467371 8.960330594774456
C 8.413742662439843 7.754228787281259 8.273396132141382
C 7.370227296026848 5.353813031146766 9.342409290336402
C 5.155474957989188 6.052539238077844 9.128171451429273
C 5.262733080689084 4.621066797627344 8.693188902510174
C 7.056693252414232 7.7560293768474 8.852372958395437
C 6.535195746401524 6.523429919620022 9.378625235456527
