43
Energy = -345.96594209 eV
C 7.306702441464272 8.445739186996372 4.404755148617047
C 7.743868047103576 5.987698397233369 4.731945963501626
C 8.205703698588206 7.311574676490846 4.582936996788625
C 5.922673269197632 8.216660722663578 4.61075966926589
C 7.6653830588928304 9.551099776119665 5.269802940970272
C 6.319219671902509 5.683571383622234 5.056504664240833
C 9.028170198104513 7.725764675471358 5.7702995828394945
C 5.676852227160609 6.982616427029048 5.4504502365732925
C 8.931933466485587 9.30980624689288 5.895366786134492
C 8.124099876413009 5.142825539596898 5.898543579248413
C 6.499651733080913 7.316208667142841 6.743981114536944
C 6.68889384579045 4.727565111176842 6.088952896232371
C 5.398840622496744 9.09603754574244 5.609993086596596
C 7.860831941140831 7.569587231762243 6.830861362414622
C 6.479556414796458 9.93759907870904 6.094258972759464
C 9.886587106627807 6.753811099092187 6.610216472506704
C 9.010847812886476 5.538723383612256 6.914466465243495
C 4.927128983246213 7.934538261491969 6.448274987388063
C 6.0812952307542325 9.001175936850903 8.57194450796079
C 6.052603690436737 4.812061582484833 7.277483782923882
C 9.22562105185416 9.827308117397209 7.143280118873124
C 9.757115852133797 8.726845622601846 8.081267626709765
C 8.836552315028714 5.496890655845252 8.429379886676726
C 10.302871303592221 7.30420701002923 7.816703887548877
C 8.059442399593179 10.442803308896336 7.975792344084358
C 5.531310458330576 7.717771178603847 7.835213677729643
C 6.262374321329706 5.391172911266098 8.493644668526446
C 6.667319730488071 10.20989989721184 7.486046400067405
C 7.533241568086557 8.953346351464479 8.564346993545696
C 9.825858879193824 6.436965790107265 8.969069748501918
C 9.638025741698817 9.277157314799666 9.458265851893591
C 5.552361357014405 6.612873049399401 8.884583483017922
C 7.584000866174217 5.463086611076723 9.159413695129741
C 8.34452380026785 8.01090425198344 8.030655864653003
C 8.26694248701961 9.914565556680456 9.447078865483297
C 6.1842506601145715 7.163338835724867 10.054359912871552
C 6.238471545464015 8.59688780216719 10.129710144434737
C 7.374264373926595 6.341423838566754 10.316107678708335
C 9.730231824914489 6.948260326214022 10.278869767687958
C 9.71543297750222 8.421257012971358 10.512281217022288
C 7.463944924542522 9.208299555932863 10.642051898430536
C 8.432573117017252 8.37003040606611 11.236553364783019
C 8.447640267793659 6.90525482446358 10.978738846528607
