44
Energy = -348.93509926 eV
C 13.257879304664433 5.969953470859177 7.787519553177369
C 8.57371162858453 11.931219308168071 13.336913336159093
C 8.354791050124552 9.797430912870047 4.52913569112276
C 7.775724187381333 8.656301296970383 4.24485666148132
C 11.905312723469935 12.648204324109907 11.223067161778738
C 6.432048516704871 9.048545230906663 7.7320864430643175
C 8.975073138453512 11.49658361101976 6.259348184111524
C 10.122708409139415 9.014972526960058 14.48854205736788
C 12.205086691393923 5.902784005536481 6.914446276805594
C 8.782611533834563 12.328451253222296 10.824477711921404
C 8.943490849832845 12.190181050082256 8.750548250819524
C 8.701118286371237 12.37136754095239 12.168704623309642
C 11.557936071550897 6.787046083689984 11.857047771903185
C 8.793853229359494 10.79462929925794 5.16240086886161
C 12.239376157263088 12.461686354318804 9.037986027184195
C 9.817249918357755 12.653588855157242 9.833342389806274
C 12.976368028330048 12.424361938340498 11.86965147728444
C 8.30985248984639 10.683609074182645 13.894825699667383
C 11.176713227202786 12.687138811849744 9.986335956934305
C 7.052460048956627 8.177004994112666 10.153851548229634
C 6.556369557432893 6.724397297793332 5.3402001470148
C 14.043706836449072 12.05081458721607 11.152518510550758
C 8.485143575837062 6.687926964381879 9.054451371371387
C 11.960225808473703 6.039587476466273 8.281520120024432
C 11.040361379048623 6.205613159195967 9.368322713646572
C 9.254805208882 9.907959474628635 14.56391575192293
C 7.1535317443099276 10.565724277657008 9.588741565408622
C 11.382468341749954 7.386766208460935 13.022866690162749
C 7.9834579153145375 11.699910606280804 9.751535416311699
C 14.52731770565686 11.862786579084204 9.977917348591182
C 5.959415977647246 5.624996754816452 6.005474172554589
C 7.3128817639483685 10.035916129756297 13.114738876420914
C 9.671267832468613 6.354775983677528 9.133326349100136
C 11.46806906402246 6.42146588288649 10.667498292881076
C 6.907796820408833 9.705499136326065 12.003372204189018
C 7.264767680640666 7.378913051540547 9.073036201964017
C 6.931951410199121 9.43914478463593 10.616269819883012
C 6.51401396197386 7.663890737813247 7.793125216110675
C 6.303431757989976 6.762600737048232 6.74795209576235
C 7.129071493972518 7.6090680354652696 4.514050991169282
C 9.041066205341409 11.966980835177935 7.420025366203398
C 6.735083544604633 10.088843623572243 8.354416365445045
C 13.445341121515298 12.136360552100903 9.19279441230564
C 10.924324158216512 8.115807783216338 13.93324302010977
