44
Energy = -357.67161457 eV
C 3.085403518051887 5.750610421054146 4.684330857780655
C 3.0604867205655135 8.331458784392384 7.078074414542777
C 3.801920235390435 4.8605996513377585 6.957322195290306
C 3.6818417664981737 4.826164833948928 5.531401694815507
C 2.4654119431898947 6.594886206548592 3.752098406860823
C 3.7059872255343214 5.960566362986635 7.863196121542621
C 3.863554667594147 6.445402741491837 3.7068280864335708
C 6.423160146868603 6.874081123250966 3.316811730292952
C 5.204767754895444 6.153889791938189 3.5053499004003963
C 5.591456346945928 3.5586993975938026 6.161832586830501
C 5.660053678793471 4.735513109478363 8.364396843585082
C 5.070425645526187 8.337362202243783 9.19310185672286
C 4.9576840597770335 4.0970588377531785 7.308575447479538
C 4.120951025236978 9.295705870116004 7.16080529962298
C 7.009384808450375 4.599285555860011 3.5429906677417833
C 3.0892158465697483 7.155314847246106 7.47622874297533
C 6.059067431719282 9.100651321608401 5.624085658924182
C 4.881743950848588 5.909493541482592 8.764484479710923
C 4.907414789799597 4.172198547596847 5.001459832261201
C 5.5938754657476455 4.78072417875776 3.9184870041694864
C 6.785269124379343 7.750843507223814 5.748130354501825
C 7.495230294992846 5.923555763623806 3.2223074882801575
C 5.596600338366322 7.03868825993618 9.33098937476285
C 6.953941745136812 3.284984220009355 6.325696014793048
C 8.026784213037446 3.462164718421015 5.378385554440853
C 7.292354228112206 7.6981972449214195 4.2805004495890735
C 7.716229585482448 3.87951637735298 7.404717271037487
C 9.284481018619577 6.444690123878985 5.110582879973703
C 4.638836083095945 9.261582045661058 8.503929567608344
C 7.106219550310886 4.653518702984411 8.412529218058975
C 7.424968857675903 9.049946836348456 5.029632334783581
C 8.002605923427426 7.833925959622629 8.690898131920825
C 8.388692756316592 6.653607840730584 4.080115099852434
C 7.953945911544136 3.738251447261029 4.052441521718776
C 7.002380959159585 6.951814649965701 9.395179298733172
C 4.999602833733131 9.597632818665868 6.171087044933723
C 7.7557132652031155 5.794020925372168 8.997481725617513
C 8.829446063597203 4.1660737910881025 6.400888007514526
C 9.441935784932651 6.468383577191755 7.192072271643941
C 9.23424409594462 7.43851089202455 6.161774822452452
C 7.841210977538006 8.752120676197702 7.725104028493129
C 9.445124330217231 5.385642823409859 6.203776339061286
C 8.110759513896445 8.397321954544347 6.305282951954557
C 8.786913843777596 6.5864410459413785 8.400198126867714
