44
Energy = -350.53688918 eV
C 2.533985832858515 4.911826879177852 1.9546729946192556
C 4.173188564695597 3.662509233942495 0.6913089103285203
C 4.60164723062853 6.085235127258599 1.2782792283590907
C 3.0706787054750624 1.2911513276971072 1.2083260667415712
C 2.116949881923611 5.3807173508579424 3.2679989057766496
C 5.255589519774698 2.76225381318797 0.9501141104723281
C 0.7000877020580258 2.0963803294934746 1.7359046187695237
C 5.707498291056182 5.821190714794075 2.1724846136775455
C 4.148817259304696 7.205409542771598 1.9326016411963955
C 3.6670110792815755 4.935044381937807 1.0740203520517535
C 6.953454358144582 5.741422223871072 2.7832989753297546
C 7.223469969546087 3.0580066145846554 2.8053037130916962
C 1.5858370219433502 4.217192686055345 2.7104071617323156
C 3.9797263401698624 2.2545453627793837 0.7099502879386389
C 3.417115305044596 0.7016146428599203 2.4438253296444548
C 1.7118318657561866 1.624263517425591 1.1764386708016987
C 0.9883861428535745 2.8900764112490602 2.9306256417774734
C 6.089179357644082 2.745219038700196 2.1211587258780167
C 4.048356641183829 7.575468338533381 3.1435012540991196
C 6.535288199672008 5.1575550751633905 4.219819610186219
C 1.1632719694690528 2.308728605544117 4.121432434650192
C 2.5664306574341462 6.088002067435899 4.3949205712054065
C 3.535594164772493 0.6679592095631803 3.6791334557044286
C 1.9119504200022297 1.8464333627659852 5.135904706742136
C 3.8374157325652325 6.803773285322499 4.261733116491649
C 6.44577915725303 2.5464808415613294 5.305602990474501
C 5.540103660122633 3.4689190042629567 3.26021351025225
C 5.457045671813582 4.929693419283171 3.2430623236774783
C 6.700169388258594 3.45954857543781 4.223781708661965
C 6.070362216580856 5.921172734661722 5.395148422344872
C 1.9086344492768381 2.499619434070646 6.44181107245159
C 4.12263984071104 1.7050794191763632 5.947819219820797
C 2.468050680485977 5.662029492960092 5.77270011419584
C 5.73117785032936 5.232681812638252 7.6215549885568565
C 3.2718005898541316 1.2523457512395628 4.916873155651944
C 3.8668573004649764 3.634978594595108 7.440070010806428
C 1.5248323866284954 4.874395265241177 6.368210901800764
C 3.3225678364659585 2.5490482399293297 6.865063569494539
C 5.502245380918354 1.9186117189631178 5.794487939813652
C 4.670996283399194 6.417304158991216 5.406575076786707
C 6.472901067586156 5.697335136573084 6.71225583131182
C 1.230319312890422 3.681937077453137 6.612460476223758
C 4.343119926624981 4.893308636065063 7.39632442708989
C 3.811829093595174 5.807725850442722 6.357013469836435
