45
Energy = -362.75768392 eV
C 7.631601781200074 9.596831482120592 5.653664603988036
C 5.444003521948005 8.54759032362476 5.7075261765139516
C 9.49827442524346 5.0430350188535025 5.565737786027939
C 9.899306506128875 7.321064067263438 6.056787532584418
C 7.671519524470598 8.206420889556917 5.070867208117268
C 8.39624098152235 5.877243627378976 5.089515849556101
C 8.749117840527077 7.287148149574005 5.021739198440463
C 6.358997560965632 7.57119104842867 5.2256387578293
C 6.2169525878236005 9.777825291336319 6.062629692613188
C 10.245120321229054 5.903922117286775 6.352624324431104
C 6.112976210870179 6.296567107921009 5.926767284342365
C 8.97007522348485 3.8804676274461802 6.245702700924723
C 4.645848099102434 7.927226462995161 6.847465852126887
C 8.487867714433502 10.105783833821155 6.6682186835063595
C 7.1907090854422755 5.388890748651185 5.748944834543382
C 5.1064497786487575 6.545724062971209 6.967695909500475
C 10.562252681412957 8.12256336879023 7.224771939093735
C 5.943051199390717 8.662939883304496 7.2682821303094745
C 9.073277071487322 7.905531013072018 7.18506068635417
C 9.630851694920317 9.320805672544125 7.361969614830208
C 5.640210073283387 10.096611645385517 7.322513908913585
C 10.446811126912193 5.783201921842448 7.786001741728532
C 7.647977040922093 4.237613290293833 6.517125387090335
C 4.318258645474676 8.043047640040587 8.38416645760632
C 4.932039418466225 6.709601821964631 8.496806497171017
C 8.171009829549954 10.68273867174821 8.022187584083992
C 10.688177553358692 7.0672773078635105 8.368146444988355
C 8.606085074153414 4.189212053472962 7.625864348513287
C 9.228816160331531 5.139278860402938 8.386200845982309
C 9.303344993052988 10.038571098620773 8.617921632845412
C 5.715708822302903 10.321869105361593 8.691717275544145
C 8.121786947940585 7.31170629565767 8.042020293887434
C 4.973079379056519 9.064358183281048 9.2452658718871
C 7.072408439672487 10.637684070198857 9.053854376004534
C 6.867079385220602 7.778813056104516 8.134304625199096
C 6.148340877345115 7.068114520826432 9.379908518140875
C 9.808639463355732 7.190747802536092 9.531659863267187
C 8.631164757639763 6.28867413115559 9.16768824047448
C 9.025736617267215 9.572178615346427 9.918318921496846
C 7.63762424742944 9.972493373750874 10.199237283499482
C 7.464286660580445 6.5903257383346245 10.073651845649026
C 5.78130941710017 8.34597647475853 10.136738743911682
C 9.23689929301668 8.200657181534243 10.315225918470066
C 6.955979787227546 8.825092914206536 10.733856339925532
C 7.913102831141857 7.725753080425551 10.768376920139715
