45
Energy = -360.04226929 eV
C 5.943032273658238 8.65921878771446 4.011899354488825
C 4.861360683105507 8.040353336461903 4.9071812179426475
C 7.0522851378913085 6.730060063637226 5.008115317975569
C 5.961355457374939 7.3267288048329515 4.3667352656402905
C 6.048860350231498 9.574332109324963 5.977723567101077
C 8.225862454242918 8.910219124172201 5.282284570753527
C 6.852703643809573 9.3918165924426 4.82462594308184
C 8.36037012794469 7.433456063113048 5.191634865567645
C 5.006634789412226 8.620409508453076 6.223822960247825
C 6.898728384485418 5.786881973624695 6.046579553982402
C 9.17121336900444 6.506664801061221 6.038041478483167
C 10.092456175220835 6.67400111397289 7.136252845533843
C 8.907594223589705 9.733132371869623 6.297462973900761
C 8.036116205716388 10.556077275468935 7.169966305793848
C 8.24848180701237 5.399733604413162 6.413879648221429
C 7.389262696972958 8.493992234818522 7.590259941602701
C 6.715842805650578 9.839210591602663 7.219041259172496
C 9.840725221774417 9.185437169013612 7.387547867580482
C 10.622066624783516 7.928472516645884 7.72269297397484
C 8.349125724114712 4.948036748758938 7.7318730740053
C 9.476336036623433 5.840649001671998 8.225085386760387
C 6.211797906860642 5.967557137662195 7.432406907594614
C 5.770235518600383 9.404334314882508 8.338042399997832
C 9.928104894684854 10.160458498170314 8.515822149332564
C 8.556429329582059 10.721075002521763 8.500636347893282
C 8.594956405099865 8.397235296616698 8.362434371838557
C 8.368183703255756 6.960885970447714 8.487994204637342
C 4.976440173298232 8.332202445704073 7.694210766225962
C 5.324379767101537 7.014938619824411 8.260564582534682
C 7.008879054313831 5.073622640760503 8.40190095183933
C 7.185564612805129 7.135847696132256 7.659586184055048
C 10.891841988675463 8.059933272932385 9.147169938407083
C 9.706275623934943 6.030359944311659 9.68332660337991
C 8.770265265692593 8.967198917008703 9.873242079366605
C 7.812237173280988 10.057634730642791 9.554202818365365
C 10.250878343070223 9.313002725339906 9.616294984320714
C 6.505706838003625 9.351805790692573 9.573180090059084
C 10.607831281614084 6.988127105664411 10.161294093619997
C 6.0043191667121505 6.921208508947887 9.588560054685562
C 6.934891652195879 5.750789488010628 9.649551230277853
C 8.236326656223236 6.448369311074433 9.953651949287302
C 8.063510402366102 7.816497737351646 10.72243255872943
C 10.189699336259046 7.402038209123522 11.490411544525193
C 6.580243772436771 8.07854801368355 10.25191915687344
C 9.023176323301612 7.630034211408076 11.871047042331714
