45
Energy = -346.44003731 eV
C 11.009595123373138 14.100365179778217 12.241122875816574
C 13.932675733377055 9.917530399725353 11.226746024244827
C 13.906089736249225 6.464302548525091 7.626515258984861
C 11.060389417188038 10.001285483071033 9.858259513993252
C 12.982298860865251 10.679618095102285 8.089864122833141
C 7.365142611775107 9.726936782239 10.390416084870212
C 8.74020878102328 11.130834573041005 11.83352619414923
C 5.241128332735211 10.92679215266245 13.405621546785094
C 8.637860846729957 10.219361587489658 10.615748734589287
C 12.335296080132347 10.085866707385781 9.142325887885447
C 15.286423189273592 8.796549602940582 12.563673524257261
C 13.942984198346302 14.24414451929038 8.622195249270952
C 11.288350203846656 15.455235823129897 12.218758719693176
C 6.126907861356553 9.572364047678253 14.174189081344576
C 7.879301458510669 8.499209323278166 8.652342873707218
C 12.220577813212063 15.933505319434994 11.443238576710952
C 4.867497742693415 9.570109054422666 13.542193123177894
C 15.107298301725233 10.066477067607455 11.955924746073352
C 14.57480777507235 7.2191747665207116 6.715253036663115
C 7.737852802560206 11.024049965739895 12.71688611399855
C 14.009810991093307 13.148933562338753 8.02066341745419
C 13.037271443747526 7.524168270260289 7.104831437024425
C 9.672944441410314 9.721220104372259 9.675634572368617
C 12.573657117230177 6.533656544720114 8.096692945630156
C 6.806745944005198 8.793707042923272 9.499756513415086
C 9.079753490404997 8.899993843865174 8.72377374426009
C 13.029869061743526 15.73101631300437 10.484213688519242
C 13.60643796630922 11.904395042022209 8.52808633495594
C 12.999713224643749 10.729255135635414 10.447131008162245
C 14.45022455939558 7.830940939175429 13.015152807614456
C 5.528971637886075 8.260667996963535 9.759039735427097
C 6.696533357734914 10.723744740767136 13.427886457210368
C 13.032981085014397 13.262280718308276 10.593525984791476
C 4.018983800338922 8.711528703132341 12.873016420658054
C 9.79367411701518 12.128784954035032 12.031937760613767
C 11.910286949526752 13.122465355697143 11.564655538006217
C 11.140730020227334 11.933142882224178 11.546072265271325
C 13.418460799264672 12.066955567243214 9.957954930056761
C 11.585458115736012 10.799526084683515 10.880603748541304
C 4.009390217693069 8.21835153394165 11.730940029827844
C 13.420619017589644 14.53458421767711 9.89327452226516
C 13.83194217564849 8.791839799546436 12.107979699219353
C 4.57650956545097 8.06964960663523 10.522339850270036
C 11.584785394338065 7.400099147519351 7.756345885422501
C 9.811207418319164 13.397072915270499 12.57645643551204
