46
Energy = -358.76991442 eV
C 4.362896603085421 4.008036547462964 1.0433128025799563
C 4.437044444626278 5.384028906695285 1.296027998081305
C 5.11138570169219 3.0331994357810634 1.8304368926830885
C 2.3142623695100535 5.330706813675317 2.0793540407859683
C 6.311013393184812 3.5581471948144694 2.4675566001895564
C 1.6829816444217063 1.4392099449108755 2.1206904916305964
C 3.1090121737636722 4.629357318573062 1.284807475377611
C 3.0676566788608777 1.66074748221527 2.0991013767557827
C 4.467939042810001 1.8583799455926944 2.3631857125791607
C 3.2630303162124057 5.960451182298337 3.126671788772197
C 5.847930256345382 6.36447790940016 3.0215387401661937
C 6.393580869980528 4.89987967107694 3.221300702545829
C 3.7018785859576453 4.713171791126719 3.9531837973462034
C 7.028107349688177 2.6327432286643706 3.191963502646804
C 2.7558071854164337 7.049720785732547 4.164078028114242
C 4.645816451514491 1.3163521618951952 3.725856937019463
C 0.9908488421708923 5.640538993774319 4.750004846035218
C 2.385061717426947 1.470202139452109 3.3564372858102587
C 7.163789674815289 6.985529864937095 5.1019226490877925
C 6.157845403325096 7.31630949414818 4.01793527936275
C 4.568918837031737 6.266398845289622 2.334982307478532
C 1.2688445117920457 4.345718929539474 4.879237199327086
C 7.714500621425718 5.065444791504093 3.8599811218727167
C 4.983755447987729 7.8144879703886065 4.746723066906217
C 3.384632224167482 1.350298238255581 4.3624472225348585
C 5.170312728368387 4.638208627459579 4.301658758112335
C 1.4697833088285999 3.6855131109089063 6.201021510256663
C 5.67015673771156 1.4675673067363935 4.755550260499173
C 6.864704194269672 1.8925167264319351 4.199557716932435
C 8.006993206242814 5.940934961615663 4.69903220513893
C 1.9230210145260183 6.503274473560515 5.222023119647952
C 4.984018539413635 1.7810639380421516 6.010566367881569
C 2.8290919443864952 3.1741492184581155 5.82213399947917
C 6.520773920269789 7.052039014780628 6.320949686044457
C 5.457979140631875 4.631775932439976 5.580385206942724
C 2.7219849671222875 3.9119037479754803 4.5143670008334205
C 3.7246062044045063 7.937170899151867 4.353535847208524
C 2.849333694568607 5.8694006953525895 6.416064974202335
C 5.721026678752662 2.7435369861864416 8.562642210582553
C 5.404574255757992 2.439962367654761 7.213952034870644
C 3.6052517378741338 1.9254841645394207 5.676477624930505
C 2.4763473053856644 4.486790665958207 6.742346483246665
C 4.217131918466654 6.202010986470972 6.664031001746313
C 5.317445443911146 3.753675435879719 7.640006146921335
C 5.124075029064487 7.2010739208956585 6.126987371691761
C 5.076664949803512 4.922224499270958 6.831789874115224
