47
Energy = -365.1690679 eV
C 14.877028848914982 12.05027070977124 10.310775560459433
C 15.972328451777459 13.161701117871077 13.78366645812963
C 14.317912057583792 10.769646129552985 10.38204280657381
C 11.23322830282377 16.414956296732782 15.392995969351848
C 11.877101600458627 15.505672441116234 14.508716891287358
C 15.81723621297519 10.740706767831865 13.011399227030315
C 11.251795033630763 12.428351646695528 13.198110251442658
C 14.407506623058314 9.618196664281934 11.31652451682801
C 14.690246479540852 13.437361628324155 10.401226907186665
C 11.994588957952214 11.968297695794927 11.985505815424188
C 12.387745222768052 9.491204443173086 15.158164910387164
C 14.946160530604352 9.680285806052844 12.637834515739256
C 12.98497584482161 15.368412848029065 9.975523454045646
C 9.605352946984551 14.776600891817294 12.640553710964126
C 9.732178893547642 12.234467562491188 15.363224498960685
C 9.810428637751533 13.796130452570306 9.27984359669577
C 13.25896095187301 11.491957946795047 14.09118106795189
C 10.508856226921631 15.408848096450399 14.714808434714614
C 16.13082115518942 11.861199503515373 13.447358117237817
C 13.625531062263446 10.217021161911417 14.634747624976885
C 11.8035361452398 9.579892632443524 11.868049192544547
C 15.382985760931987 14.260034231275563 13.81718888510804
C 11.639519576467153 15.350951683380234 9.774060393069659
C 12.811695627959464 14.710120322535852 13.783961603180543
C 9.787727675445534 12.165115461315345 13.60988996222674
C 9.837249138659873 11.035253668543161 14.63168120876131
C 8.747309655808408 11.915415570260501 7.864090745702345
C 9.303506443386773 12.898180873827569 8.513265543866382
C 11.894280951906762 11.428061619701662 14.113497070610602
C 15.989855435824182 12.944877639152937 10.267925645613204
C 14.026461786669593 14.718501802973432 10.730567507653745
C 12.99467350217221 9.190192912749765 11.050705656351331
C 11.144252992345754 10.21231227141149 14.42004618031038
C 9.917067792844906 14.77053637204834 11.452454053393838
C 14.282574659092196 15.19806047834908 11.961855493882625
C 11.81081854726826 10.889901899567628 11.13672922011411
C 12.918044515710427 10.427649348084243 10.333548756678141
C 10.39361845279993 14.65012136645745 10.130496138419572
C 12.402641626727993 13.49396676296869 13.34885464463104
C 14.13125059042886 9.231128011502843 13.727506536841704
C 11.556197027793216 9.264011343977847 13.197190841866743
C 14.260036461369967 14.944645632060501 13.282351298242897
C 12.720418243635978 8.794929602007338 13.923492820276978
C 9.581512691825326 14.542964600762975 14.038768436079161
C 12.3548268554071 16.468911190364288 9.299160798767474
C 9.239179656052256 13.229350471316193 14.418716270899639
C 13.251015285312935 12.414145879472454 12.816019815480542
