47
Energy = -374.61995445 eV
C 7.264006287664085 7.399756600126656 4.650983468406863
C 8.607537004507437 7.186584076304841 5.05683896682885
C 9.617059402806294 8.097282969887504 5.410712071600139
C 6.472105088562162 6.172893138934971 4.975604007476275
C 7.598545365324157 9.683964650156726 5.702628027619537
C 6.675991962416371 8.6191957664722 5.14362697583679
C 8.504108779592887 6.158074008731968 6.132823474440957
C 7.2622212533609805 5.319288620428459 5.863673473235901
C 9.125419673628247 9.430826594441324 5.74625793106372
C 4.63806511264969 8.321312052903458 7.138522699346251
C 7.764087759029163 7.199648340115836 7.178977632777546
C 9.820194307243247 6.162962248810053 6.8931427505237215
C 10.44981833568507 7.362701098180691 6.394205372474068
C 5.485902774216454 7.970207191248244 5.894355253824119
C 5.149712999210462 6.615085392995422 5.358132243225499
C 7.384605298397901 10.774922962463158 6.821913578577613
C 6.82876730125056 4.598529827127398 7.002527420289956
C 7.13685565474168 9.46315427505482 7.2939099806254655
C 10.643773514808508 9.611651199438304 7.703953176772752
C 4.172300537237124 6.148192329426456 6.223973227485245
C 3.8940781366843287 7.1393136482208295 7.339076909467341
C 5.516129365915604 4.340686784546394 7.541326955922255
C 8.292713140987997 8.426752558584283 7.541820468996872
C 4.320805320847577 5.097391045436185 7.202335391923815
C 9.735721200844539 10.30119439213016 6.771229352183287
C 10.947996250821133 8.141684654374355 7.52478219624651
C 6.875632697129384 6.546141841236331 8.222992001698179
C 6.331107893429153 7.436034969088017 7.189786519180046
C 8.633746037718963 10.831961131801126 7.579257832699831
C 5.993301302941453 8.73356760981072 7.921856687682544
C 9.550817364531618 8.470188942969909 8.067684898622218
C 9.7922137113412 6.150247633183389 8.375292199008067
C 7.259263722055444 5.137599271545306 8.434470771245007
C 3.9706371258613316 5.958868172494399 8.304924156421336
C 5.856524611530106 4.639088112158161 8.905122520268053
C 10.001014461922287 9.687697793772731 9.066010773562779
C 4.936603633079682 5.707880146078717 9.355360759433179
C 10.46024096951444 7.43326007885003 8.776030593668134
C 8.710926236825516 10.374621209727321 9.03361789960206
C 8.641599533858837 5.7924492698063395 9.161564208100256
C 6.75003865444442 7.187744820321008 9.621544662473998
C 10.098962035267492 8.430343956265178 9.884115719666129
C 6.602978065495852 8.6711256633806 9.337523190908374
C 7.826646015088127 9.320641289395596 9.71994241295429
C 5.488025483140797 6.647356814220045 10.231154216769891
C 8.16934523153327 6.913054817659633 10.026390806961984
C 8.742552424814479 8.18756906965214 10.278723201860016
