47
Energy = -372.33952588 eV
C 3.537730697394163 4.032894935917326 1.0279090162826807
C 4.769412037307098 3.277155321320383 1.1958860281801327
C 3.8987952687298084 5.34013863699374 0.5679128954209449
C 4.137524404154461 6.449165446956472 1.5139380585871383
C 2.6168718504866186 3.6773780852725717 1.998845232304871
C 1.9289675726377933 4.67024965947932 2.844107022060556
C 5.234274664357951 5.591066461057978 0.8263012248070283
C 4.472622607486817 2.037107774351026 1.846380939655842
C 6.487037935397782 4.1884232570212 2.7117818222603804
C 2.9010108725653407 7.230767758800551 3.4182839053179968
C 3.1683643972424664 2.4287762327671762 2.6090846467749063
C 4.185869828665721 6.30335789735923 3.011219472814511
C 5.801732998014005 4.267692242762145 1.5223226984209184
C 5.224031137654005 0.6031347671511821 3.583341553084567
C 0.8986496934053455 4.301853616048501 3.7085359159226905
C 3.521216691576825 7.590070636726151 2.1537262674249
C 2.8585303447439037 5.681415421399407 3.5748902943867944
C 3.9351431070901572 2.74828906462913 3.8731231773532473
C 0.6418725943468037 4.622025052657258 5.1271371235001775
C 6.217678380669765 5.976031897548982 4.395837089068472
C 6.780721928129493 4.70852343700629 3.929906591061376
C 5.25968518054722 0.9956793208013991 2.2649469828746893
C 4.104130202690834 1.2678768731264496 4.372431678060686
C 5.247485724771877 6.792695412481119 3.902927960188731
C 3.311854723799756 8.025405915565088 4.660211639777131
C 4.672108692877354 7.800299851103473 4.741231009387456
C 6.792486229889404 1.106142843534555 5.358690171753051
C 2.7306071546354818 1.66220688177152 3.838562668907896
C 6.352131303024646 5.636216756854484 5.791011238681771
C 6.328810217732887 0.4167944407298926 4.424373886219297
C 3.0059047577033766 4.975444529707949 4.931454904263479
C 1.9794779228965635 2.4830679290694113 4.97302160628409
C 6.527136405125695 3.4327179873369924 6.383289041619755
C 4.0561192813098295 1.466169312661166 5.822342725816566
C 7.021449602854299 4.3933480778523855 5.474768895955921
C 3.300038492864366 3.5717386884869 4.904451323598213
C 0.8410237061705951 3.2742629905097846 4.699303968832777
C 5.255108627742256 5.489680749936311 6.716231424244776
C 1.693951005652491 5.2266099897645395 5.846528284293702
C 4.0096127451669945 7.521473688058278 5.949470175084603
C 6.400179816032231 2.018545207686828 6.322172474471593
C 5.015969159914698 1.8238426763855575 6.731498786581658
C 5.28947052167392 4.074612010915959 7.031143471662553
C 3.157490057328774 2.6207114639076465 6.077278527218156
C 2.85053532572264 5.63259001264786 6.286339440171487
C 4.329961986672132 3.034528210564619 7.187200860864829
C 4.056242263726079 6.338850695898205 6.675675999079037
