48
Energy = -386.14175149 eV
C 6.323233589627846 6.888123252209133 4.937922602169756
C 5.7601052199286835 7.594375208495205 6.1377317436422745
C 6.320768708037393 5.587566436327183 5.453558683122394
C 7.824616747549218 7.356897547705886 5.137859602042105
C 6.264057031120996 8.899588329473543 6.491721204544237
C 5.847465961469484 5.448997615284241 6.854006504076428
C 7.379772301588775 9.671951847226515 5.836354539617769
C 8.391978875145291 8.781314144835791 5.086731359932023
C 7.629915941517819 5.1351753119863845 5.916735648713922
C 5.5122165240982754 6.755658750695843 7.345808232506095
C 7.329113856393475 7.69560542222156 6.55086000896628
C 6.040623136276828 9.10823855529521 8.028419029750168
C 8.588332807902683 6.124507794563855 5.696985252590622
C 7.035110427415479 4.66533900156526 7.2319511424083815
C 5.379471712821028 11.549979089288334 8.862201590713076
C 7.866650996695728 10.43054073530688 6.922455676627466
C 5.300862459512129 10.09921314020556 8.990102029835455
C 9.733103373270977 8.937018253991493 5.5826544330618795
C 10.140027842018377 10.165120083197742 6.271491254510191
C 9.19724956503983 10.908124414575244 7.062368707089827
C 7.471730544265932 9.718717497933627 8.225651397504908
C 5.746836660659885 7.607718213149251 8.523558751566162
C 8.52067353673081 8.623938710158104 8.33281855675682
C 10.352592820814994 7.875954358757601 6.3976280877799505
C 9.498194312012176 6.298168593144419 10.347603410418332
C 8.341934963332807 7.066578532582211 10.761081210491351
C 8.959082207186334 5.0377244351515555 9.978322007550334
C 10.359300837174164 6.643835389955705 9.167530040392867
C 8.058257447614569 8.499115445134574 10.862501557996021
C 7.5178026563872535 5.041084742356174 9.818960311145418
C 9.089649516408695 9.492206411960845 10.394394125546564
C 10.743626930510283 7.946329170094352 8.842448936764564
C 9.116661817423546 4.8006182292406505 8.572492208529098
C 7.118548843805635 6.306584488768115 10.297363586388434
C 9.634247459695588 8.782587732761845 9.231829458307583
C 6.64356843882684 8.605956085738034 10.526367332450208
C 9.937254792254569 5.824981772026228 8.0196063366541
C 7.690660307832248 4.539205914242084 8.401439940955935
C 6.345637469566877 11.026774804464095 9.849408372788906
C 9.079396303629128 10.742497216402 9.582599665936968
C 5.86636147468364 9.732319148801079 10.322105093629409
C 11.057874532743684 8.486781295731815 7.541995018902198
C 10.87039388144966 9.896402420007009 7.4636434760194845
C 9.90559192036295 10.829934595029217 8.339313901315572
C 7.670237981077904 10.751286514373275 9.282884689550972
C 6.238695716276387 7.35788957476415 9.819677138616692
C 8.367609227879132 7.574145043880092 7.479974707715337
C 9.511893882941004 6.666322289917994 6.797874993382278
