48
Energy = -390.08147701 eV
C 5.599644876234615 3.957319158677949 0.7832202224595509
C 4.699224656578621 5.0702362186277785 1.008227933192535
C 1.73915706592447 4.630415628444206 1.9001262676025155
C 5.29013814727663 2.5697288022289855 1.0342279089656585
C 1.8267983924170836 3.1977491029680256 1.9711826118648321
C 2.443330163003382 7.521638071607454 2.415663465797076
C 3.9602623476841723 2.126953800155526 1.2689504331473536
C 6.5953544011877865 3.9206812075393667 1.8319664914177687
C 6.347364604544488 2.4514286831503957 2.082539585887854
C 5.2532607855293545 5.8367519173623155 2.2991271788273004
C 3.239629691988428 4.609886352348202 1.2825641078947516
C 4.911318554630747 0.7106902528588592 2.969196216114571
C 2.984154458033682 3.1151365623805645 1.1500838498063384
C 1.3233128973567119 5.354080606209169 3.032434247736589
C 1.8699792985850772 6.672715148142256 3.3305774839403677
C 1.7614990304958213 2.4296186384432836 3.213118689467645
C 6.5244007237923425 5.048113692379202 2.6553042337850212
C 2.754325230394433 1.4146146910349422 3.379852559648952
C 6.121359843130537 1.5382406590813231 3.1041872053729453
C 7.216033019334552 4.229228326701898 4.950219807251793
C 4.126560714779646 4.779467797832632 2.4960217978524875
C 3.6735077670384295 7.774242329933006 2.313158063478617
C 3.7517391243771656 1.1576655192916947 2.3280895772110495
C 5.821353510704029 1.4987135779449428 4.64169849558123
C 4.680498089879352 0.6978958612484293 4.388633185974252
C 1.2374058158137586 4.582801154768635 4.215794657969201
C 2.2396508504759383 5.203523298141702 5.187028526296825
C 4.044919376434981 4.09284777720272 3.6733599415403018
C 4.622098714434802 7.044656697266348 3.0107928351516713
C 1.3900874541978447 3.169260617794922 4.385036386506493
C 6.442618064601607 3.628576058645398 5.938690789008562
C 5.7249964438625 2.3830003467724814 5.72849432906461
C 5.3639412282503836 5.730039957056015 6.4046025645879965
C 4.081544854031095 6.869700570783268 4.445939961529727
C 2.644855990095544 6.588267819340374 4.558701337868888
C 7.070870011367928 4.902962783564602 3.922518488541072
C 3.365544934928005 1.1620265618525132 4.693950451529082
C 3.182633758595464 2.023351952294976 5.830706939767457
C 3.4715781951339313 4.446860404845036 4.722486586390036
C 4.878710715678832 6.474917539693784 5.53441326925143
C 1.9567603873311568 4.26329946720194 6.40818628870463
C 4.611602583912489 3.6006852180574387 7.3496758660228485
C 2.7219672846040877 4.7301120918830755 8.989567172983627
C 2.062798079800264 2.9724813109359847 5.68454521595691
C 2.266376712147853 4.465551467152361 7.696698221213802
C 5.697625413107343 4.436423659282806 6.84383099757293
C 4.448786842992004 2.4685522420924384 6.458905261403729
C 3.6295987280422843 4.118068231520784 8.156882125600388
