48
Energy = -381.83206092 eV
C 9.069040591009514 8.942406551911036 5.246277999192944
C 6.513039973077908 5.841115288753149 5.320545873290928
C 7.610529177335173 8.791225682280407 5.345304927822178
C 7.072049415883975 7.282571039914436 5.639123312775845
C 9.513554146181448 10.159013256392699 5.954794082523304
C 7.185422605607956 4.676596221073207 5.859930106577384
C 7.159096154666478 9.729679584615182 6.295418564903475
C 9.608191056083797 7.689885782307043 5.577945677766613
C 8.510713434279053 6.885864642359351 6.2365638620870545
C 5.412522350970007 5.621276440542264 6.307632790824236
C 8.273848487296124 10.667726385869424 6.607205526313165
C 10.769895097844946 7.448605960494665 6.356584097692916
C 6.041655650557928 4.475197743748753 6.86322856569821
C 8.19584394859511 4.534273647771569 6.851949093549617
C 10.697640581655243 10.071378663912933 6.836555144865009
C 9.164478486729475 5.658409525219384 7.116334234195966
C 8.78629696277545 8.669887174290519 7.887091759080995
C 5.967633301090956 7.741645141833758 6.596327194902331
C 11.256126268997793 8.6528194145795 7.0439044781319815
C 6.319680603833548 8.954903061410882 7.410878494980194
C 7.071295314299284 4.552991385947218 7.875099769621629
C 10.563317660492004 6.392419261823381 7.313681733521432
C 4.978880973755027 6.8582256632800185 6.915187272928264
C 8.299665723873733 11.353303705699542 7.821633122790509
C 4.048065600238533 8.559352058478641 8.625000732923446
C 7.466525497356125 8.383725032269128 8.256218964894128
C 8.320779807163788 7.391656382594654 7.622661385207477
C 5.374586981822875 9.140939838003352 8.623933864122078
C 4.09281803838377 7.212896488739805 7.998333423439214
C 10.49556453824249 10.528076633380957 8.321254508443582
C 7.315601554559698 5.5737024213231265 8.88367005664857
C 11.32699554947393 8.26972980342465 8.523787788861252
C 10.03162318861089 9.090172079750634 8.01625642409986
C 7.292963780145272 7.938933030073886 9.717186763670025
C 10.766820243664037 6.93269413716141 8.655676670725965
C 9.229688404563406 11.140191614534405 8.839647006343702
C 8.615543992817697 6.177092074389313 8.498150982191902
C 6.642057248869349 6.4881346693404645 9.683017672499597
C 10.8354318539981 9.415483327836368 9.33668496714714
C 9.551227852219732 6.859010583776457 9.47587135207249
C 8.9084340784304 7.96343035806644 10.137848197114169
C 3.672743690379193 8.074143572803077 9.95806794577616
C 8.814296540107541 10.471702500190796 10.036742391289527
C 4.059195033831112 6.753356270042757 9.354055858160514
C 5.971587169262629 8.754561961140961 9.895897555760405
C 5.282741699767668 6.628870344446695 10.153708562109603
C 9.572035655622187 9.29798330914195 10.214887538054024
C 4.972547783632263 8.003034033115561 10.592535452465615
