48
Energy = -383.055259 eV
C 7.217495012576361 6.6957216707226905 5.021216552400152
C 8.626362859221791 7.338062852112385 5.134407948050542
C 4.7525531849722995 7.23693468606048 4.913254083096827
C 7.760504980052138 9.697244906629086 5.8373073537669855
C 8.893809091359438 8.845724868993575 5.168277884240392
C 6.167043324370227 7.669881411245625 4.934046933895907
C 7.051475513078614 5.37814230266723 5.721501516441683
C 3.7850214433462575 8.317388516686112 4.596877349225054
C 4.415870456768885 6.771885936663532 6.23566547903256
C 9.866271998434025 6.589745032823445 5.626710902706742
C 6.313185953627743 8.921616428509973 5.901156755753633
C 8.154137663086221 4.726551092073788 6.425701717867227
C 10.066371480041319 8.947644614752043 5.955820919695486
C 9.422592803561171 5.486089935868627 6.583821575167005
C 10.605371853877188 7.5836618471233175 6.324668911422318
C 6.129516659114864 5.238150257023807 6.895819862491353
C 3.995531813496791 8.155255143657982 6.0390700472346435
C 7.262204156287896 4.731196075283866 7.727414220445782
C 8.150022458282482 7.465494787893988 6.538650467385993
C 5.073101664186273 6.149046039045836 7.2728567498326315
C 8.418639252269292 10.5137087983652 6.925589891597536
C 9.742661751120975 9.877718728269215 7.021865028830081
C 7.36946915388169 8.568146141934653 6.884165981654582
C 4.984231238352911 8.985422130836819 6.781263885408869
C 10.496132920522324 8.15606647579133 8.754017373070733
C 9.859387872217908 9.356254496249425 8.299715141627734
C 5.070325799071672 8.649745411657825 8.16006438134848
C 7.582788465077224 6.159921088399052 8.232605753753825
C 6.463617685310827 10.742012179180298 8.550660782824174
C 9.95617411385755 5.92203416148426 7.95746171493114
C 7.281296279866641 8.620615476287451 8.338309300739704
C 7.803738845682208 10.716138894009951 8.248779059205159
C 5.244794237505895 7.1219611679490225 8.455413807232668
C 8.630935614794616 6.582406824483033 7.441212393074414
C 10.77077304137912 7.199048154857037 7.743443227770789
C 6.101302069685 9.326544155783557 9.045469222868487
C 8.569451608882353 9.496955926543938 9.003233544094995
C 7.819587693742118 5.0983045540648035 9.211077980745124
C 9.34063681373996 5.482435251648437 9.335749837641144
C 6.766462450581395 7.232558129891422 8.58381650468531
C 5.976584490209952 6.965774514776922 9.833212391253934
C 8.765445950966994 8.770032445349894 10.303824941454412
C 6.356383308309338 8.347900341526344 10.36590610354333
C 7.02038005736697 5.892428391889156 10.323620038502456
C 9.801591531450361 7.819931796415529 10.005989843914898
C 9.32309720331313 6.493415786026167 10.321190402332233
C 7.632260570009777 8.125444981094054 10.915859552193723
C 7.985229390233362 6.673458968540525 10.944058462690212
