48
Energy = -367.33847311 eV
C 10.4344633801118 16.762018998693716 11.297141893829751
C 8.206591660981113 11.472649483897774 12.649027592140158
C 11.372433930298357 15.915993361930036 11.365821684114533
C 12.628887307181687 13.50988440218089 14.1462822020993
C 8.234219607945041 12.018834491550136 11.373279900376165
C 13.054913661734627 10.092499800213524 11.454547169760062
C 14.829890390396788 14.654767341677193 13.83257577737989
C 12.586548782302572 11.616060243404963 15.721126568036597
C 13.880030320093772 11.660772464410424 13.54582790244608
C 12.32871913744119 14.896448454004128 11.12242900666475
C 14.777313895164923 11.930775498337944 12.477854708545815
C 11.471480140560107 13.520077206303142 9.06849783875362
C 14.326191277324265 11.690585028867464 8.308440246046917
C 9.091689251196538 12.014252769353634 13.742898914673502
C 8.070265204471275 9.830336640868397 14.208377436160491
C 12.275735350993664 14.016005914059987 9.996194623986398
C 17.17899163663073 14.90359608846566 14.415188245588107
C 11.884329498533168 6.501989864876457 7.221304544145214
C 13.890458578096808 13.303208727810171 8.002235231708443
C 12.966655803119489 10.358883398956129 10.018010109710604
C 8.426254513291745 12.515164913454159 10.258232609746278
C 12.895291978553084 13.00244096435079 9.108245199773163
C 11.807624327906392 7.004400347854572 8.511586610973776
C 8.801745106339991 9.395858657797373 15.245298031816354
C 13.739727886419336 10.98176409544434 12.35732547663507
C 14.839736970448207 12.616620573027863 7.3967481035768055
C 13.523236993743215 14.421297611222315 13.410234772261223
C 16.093446777629186 15.196632613162034 13.497536556677618
C 13.202489655310936 12.245283944515855 14.667711982066827
C 10.791121888539365 10.771472504910363 16.466931126091335
C 12.156530212722549 10.356798639069602 16.24605099974872
C 10.16610250943012 13.397785317334492 8.59672692448202
C 7.658374545650057 10.227575447599369 13.016913090331807
C 8.931280744170902 13.012514672765514 9.099295087618483
C 12.144181856779014 7.986116412895535 10.865895573608203
C 11.25456279145641 13.451430965057106 13.944235192210988
C 13.179669352925288 14.829676328491214 12.146531287070822
C 9.031600078320885 13.524151981276164 7.767485541044333
C 12.527154326813525 8.833540923289728 11.73405124468929
C 9.586090375717403 10.475747912396406 15.86594554085913
C 9.004307229218345 11.129009023422828 14.82117660598618
C 11.242697255769592 5.775096395278307 8.188781212717062
C 12.522973162137689 9.329817492878027 9.211756655685035
C 13.401277157973638 11.572612170979031 9.306286135188952
C 12.103337812936973 8.023403111689385 9.468101746795636
C 10.13855993316458 12.927647254699925 13.764649879134858
C 11.451932625719722 12.02598079466351 16.492087696233316
C 15.88170688714421 14.331155279629348 14.736138638705793
