48
Energy = -390.31856026 eV
C 6.283144699315168 8.08308247950114 4.496918655269546
C 7.702654673094628 7.875276994287316 4.565319894983544
C 5.886799800652526 9.270721776693417 5.321327826922115
C 5.319123842937467 7.30856451900476 5.172388675254499
C 8.47086890844556 6.731480544598266 5.044347895102266
C 9.761014260443957 7.044138203707927 5.730405502551728
C 7.070292543327131 9.95348907233283 5.661851648181695
C 9.36220221433823 9.479452782839981 5.540124357745173
C 10.213640071507353 8.407807908014407 5.9515234729546025
C 4.816496196255646 8.416523201856132 6.004830339430572
C 7.893563819185881 5.476602673208195 5.736405302940899
C 5.583608146210125 6.161968612392375 5.999602839798103
C 8.158621325718974 9.210730811775292 4.948713747073121
C 6.530978932149874 7.075454562750262 7.026555850705467
C 6.540714466840427 5.048366569209567 6.162202479116738
C 6.932690826342345 8.339238633130693 7.531541630354891
C 9.985560604127759 6.147685412956284 6.8328055922069755
C 9.136867841225369 10.411238209621123 6.673917911414538
C 7.726173857176991 10.618639138175197 6.83929401044076
C 8.752345010141719 5.339139491938075 6.907765414256668
C 10.718278299016696 8.812888531309566 7.235831135179781
C 5.018014553855839 6.517456726123979 7.319434328782685
C 4.545237366446902 7.964413504276708 7.34147940235767
C 9.97082639893041 9.997791184945314 7.723308178390793
C 10.54997042606317 6.55098149590606 8.077184775724483
C 7.271086331280297 10.508515279766812 8.195727707476369
C 10.885787746485352 7.940845896350977 8.301399641173195
C 8.062067730909376 7.701282625314162 8.092688528923766
C 6.489855322098674 4.7902048271228335 7.664938425722673
C 7.768606316784731 6.452421668179076 7.512945141107692
C 7.921962681748739 5.111395581298044 8.185229147818056
C 4.964721830349063 8.544296463607747 8.602876963276985
C 6.316949834967072 9.32335270435317 8.480418682776087
C 9.547370704157535 9.801040003004697 9.086048633302852
C 5.370082149194281 5.545052300619734 8.3368289614906
C 9.910940890373748 6.13198082883154 9.299816580110457
C 8.643542667112877 5.527864364342385 9.47927210035568
C 10.212682337886697 8.50595041053663 9.511500965846214
C 6.2055941771655 5.6352459280654905 10.69375182764647
C 8.13816694593346 10.154034040306371 9.309216438282341
C 7.169427017225892 9.0011074755942 9.799702886312456
C 8.031001986762732 7.84308311792271 9.454182548709346
C 5.23522982530771 7.6563840378990715 9.698945924988845
C 5.355377459694357 6.0949439753901435 9.654510979976976
C 9.69612428551606 7.325410113724035 10.176013224176685
C 8.213941219500722 6.7273700903981535 10.394898876139495
C 6.885312338665157 6.8177764781853565 11.057871415413935
C 6.23856414927436 8.081393780775352 10.630218563978412
