48
Energy = -386.14103654 eV
C 8.110756270543527 6.95847952448883 4.560328674113011
C 7.700309515510453 8.332495862953072 4.600992506526528
C 4.727777185034559 5.530745110610794 4.50716923258671
C 5.32590731565064 7.684740886401505 5.059559712334872
C 5.689697782891515 6.520129700496718 4.175146672613817
C 9.717337679182716 9.080401221574697 5.739510522011807
C 8.405091341769014 9.343545693342849 5.290530963725969
C 6.399074933032945 8.670350974334216 5.363593069663013
C 10.091918352395195 7.648336306734896 5.940772188639464
C 7.052828525947185 6.025458288704221 4.332210756224
C 9.24117658277353 6.632800139622995 5.522301336526093
C 5.417360115043582 4.518600740873759 5.268022760246516
C 6.834330770583028 4.789561327161414 5.18671863847671
C 3.928143411589052 5.95299200532591 5.662426944221636
C 4.208657256206752 7.24846409579201 6.051030987206215
C 7.231032259532778 9.82471777759871 6.037653557648268
C 6.211685509901754 7.496694452014382 6.3783661775977
C 10.220756149195083 9.369753399074042 7.03656775895172
C 10.72779160302518 8.02082079693769 7.273773060065478
C 8.549713574207168 5.861815413138233 6.630682065650161
C 4.667574460147446 4.958757731667413 6.490659174365456
C 7.485678872620696 4.831826518005394 6.40173934073309
C 5.05233763542037 7.217587462486445 7.3500414921333785
C 7.456440918188484 6.998966364221914 6.909423612523782
C 7.138662123433735 10.217253380975848 7.3763526804822845
C 8.987093613766891 5.5801297681803765 8.113368595168389
C 9.59541236385357 9.886314177150727 8.19400743666629
C 6.757399357425597 4.870527155768813 7.7122063606928615
C 5.183767289948607 8.265802830141867 8.47985741747763
C 8.473819248238472 6.79228964811842 8.813930826776259
C 10.446443808416046 7.730971241484955 8.628049566330809
C 7.653728604773284 7.620327927739335 8.09672594073802
C 5.993586433600919 9.695029702554962 8.239453575520779
C 5.378018059526413 5.467149715974458 7.563866047085604
C 8.256926839136794 10.410402475068038 8.356171734997314
C 7.748767219718674 4.955115762949247 8.737269194873134
C 6.601935454440322 8.361738869701725 8.682670421055226
C 9.87569052707096 8.955566406472455 9.26923596882988
C 9.892890126766765 6.4447975802184345 9.118419944363028
C 7.6174565625541595 5.509894581741398 10.093026461566524
C 5.881254780094881 8.393781028951848 10.057074078079319
C 8.785447955104605 6.532761086423502 10.242939901956705
C 6.487984026936557 9.663428900722723 9.627310096307164
C 8.764982225169353 8.995594076908025 10.20318309952786
C 6.430050125601795 6.067832492802811 10.547710939390495
C 7.86856902242591 10.048256278006548 9.703343461943469
C 6.73561064505561 7.426735636379529 10.811020570775451
C 8.194229180554105 7.793361096008553 10.766688088614945
