48
Energy = -391.52622724 eV
C 7.57773294857422 6.65320822993249 4.288531332987421
C 6.962980875828085 5.628852826360964 5.074203396742968
C 6.653191799672971 7.806617718132923 4.349869213325925
C 8.908310310076835 7.09293874915813 4.643738049536779
C 7.315113157281854 8.94427603954293 4.837399794508036
C 8.692799346437694 8.526857037765419 5.198649965991325
C 5.574183104138826 7.564212350441045 5.298165050467634
C 9.771208447619228 6.340051421781381 5.508639517438046
C 5.846284079061644 6.273820885441496 5.787265426322378
C 7.686673845801848 4.7559314552408045 5.985721538945009
C 9.55423754039438 4.993224629158483 5.521982552660566
C 7.143443413259324 9.982773262908823 7.158475809312951
C 6.546366802843601 9.611494482211347 5.841662354866217
C 9.73140397016708 9.323745224870143 5.99160027076469
C 9.739519030114609 7.068169810263789 6.885647849900219
C 5.450993209607681 8.759160611174686 6.176115878916439
C 10.498658102148289 8.393268025588425 6.869815516943606
C 8.521662076916833 7.94789660140091 6.617103960844015
C 5.953689605878708 5.859301105883479 7.160356816337059
C 8.836299083762714 3.9398107763497854 5.577848427743631
C 7.290178265739947 5.203643040319315 7.294424199863691
C 8.432701781118583 10.636575845039456 7.74252817680547
C 6.023811489063298 9.900267857799196 8.149092303374525
C 9.662590863604787 10.272247930878926 7.124984239924893
C 5.3664506572746316 6.421529167842764 8.26223743248985
C 5.158029981969514 8.856474078209148 7.590583715038015
C 7.85192252074829 8.608474138381023 7.590419434886618
C 10.588460543220375 9.279174315628655 7.939222880951691
C 4.910428495856801 7.786081451701051 8.480512644128536
C 5.935697039201947 6.0664521829314575 9.588846594148976
C 8.060248041765524 10.251264763341608 9.31459212691635
C 9.38953902017709 6.367726820985552 8.248838134516234
C 8.113032788947619 5.655352867765242 8.410287379605464
C 8.508655267021355 8.896460470224527 8.759416968101963
C 6.563446044388325 9.96363362555779 9.426033585253714
C 5.1809272738014664 7.955411672742746 9.91103036578345
C 5.282173762239097 6.72504226786386 10.665793171409199
C 9.966530896365537 8.640230819074613 9.13498056554942
C 9.862392929349893 7.1038686268220355 9.358917670755892
C 7.355934008025888 5.987025728775288 9.635292278143178
C 8.840539250128794 10.28258998653681 10.642290078635604
C 7.3147601376098645 8.220389109569686 10.971246542216377
C 6.203125242756208 8.874582045786012 10.310613170747704
C 7.915509824108694 6.892442905456318 10.635509742542133
C 9.89510922155626 9.272532726551924 10.497607094486208
C 8.419970092969352 9.09038186986615 11.38073705712444
C 9.657967874992373 8.29074631515009 11.493396461488114
C 9.331186476640246 7.0798566658196105 10.713843800784906
