48
Energy = -386.87234256 eV
C 8.676027781838998 7.910067192458696 4.288462469529876
C 5.824644929935926 7.592072032467669 4.6102825397543095
C 7.317652999358721 7.198141901670207 4.567669476064898
C 8.383766617328602 9.359833631903898 4.652578223776929
C 9.928258236315475 7.55564598223623 5.077168744625744
C 5.97797585022554 5.328134372650697 5.517089217122692
C 7.002219515806945 9.59099808958361 5.402097060594567
C 5.716433898494562 8.827883669672469 5.4151518171509405
C 7.285839131377733 5.968616490274928 5.3881090089053565
C 10.027704052958782 6.393526460876149 5.842390530369405
C 7.824125746365766 8.237351857728028 5.56991120238524
C 5.163737456020544 6.54621695001857 5.318787862358699
C 10.28968167637071 8.713175175803004 5.900514113239523
C 9.434170478851886 9.808807201869715 5.610863405768576
C 7.892325890732678 7.724541466457009 6.8810703423545245
C 5.788497133583396 4.534931682023213 6.642588366900782
C 7.369297856139116 10.372975105479904 6.58347861563861
C 5.125982809186527 8.477714693710709 6.6824960260541175
C 4.604628717918593 7.104025545031746 6.552048864445747
C 7.668016359316336 6.295149523025255 6.777947376365186
C 10.20512623744507 6.747889411914459 7.269945974957602
C 4.367824322473792 6.2647775956836025 7.643233875867814
C 10.428642933727229 8.251223560204727 7.3037807680055
C 8.794298168008305 10.50845579699578 6.670707869739178
C 8.337531178704577 5.166415134345864 7.543779066210109
C 6.923523980280578 4.340520752060812 7.697905432504503
C 9.46472419469003 5.937192931706958 8.261138453872944
C 4.646200833344053 4.8133945074099485 7.5149547353345305
C 7.107993305663066 5.799726534685222 8.075923923712352
C 9.217462372886837 10.290013164368554 8.004216907945475
C 10.08680316914733 9.17939273753837 8.349283423473493
C 4.921544554398105 4.28994516389543 8.785847648633384
C 6.878544654603344 9.92725201387844 7.939896196329556
C 4.73242722240563 6.671827643619825 9.027193454148378
C 5.78075772495054 8.778247876482325 8.053488357636162
C 7.210234411229109 8.450424328949804 7.787601514766848
C 6.289234373077896 3.8734049642840205 8.972711022126624
C 8.892510788778091 6.3620386086546095 9.502840838833611
C 8.03203129849286 10.19442362104166 8.870215157897714
C 5.021625212313987 5.413646771408312 9.758624117093701
C 9.091086517527835 7.581116959186107 10.149198001038917
C 7.315669899884898 6.146129697714683 9.57541074939126
C 9.634127454323815 8.817189713865911 9.69892228350719
C 5.499455255973707 7.839727784052065 9.251664933853684
C 6.742023533405001 7.513432576456784 10.01056993889089
C 6.374243348846711 5.049190131307567 9.958180632130007
C 7.80345458675838 8.238417266554453 10.495948765284112
C 8.39237571523841 9.50723811349705 10.038575080114462
