48
Energy = -393.87603592 eV
C 7.553311508831326 9.056032141177006 4.877537451261081
C 7.774055104752174 7.535647153417651 4.822517451338001
C 6.42732012594248 6.973406774265506 4.315173960472707
C 6.120354943220193 5.663001703950261 4.679208697909303
C 9.006815247580015 6.629498324054143 5.018077085415767
C 5.471416729081597 7.934972579189105 4.911890472029197
C 6.114799617087179 9.176880886520443 5.15165172041665
C 7.215349065306336 4.876834254771927 5.250600297305616
C 8.227036717863204 9.84365127021038 5.806932452080206
C 10.024455372935638 6.977001264937981 5.963308455651964
C 4.669758199895397 7.305438579162325 5.929247745378659
C 8.578447951486304 5.252571688195012 5.346571255261909
C 5.148907838074872 5.832358224903279 5.892917837403748
C 6.435305650022707 6.111914565827591 6.666394122786025
C 7.392640636107352 7.179132897430382 6.309355474620354
C 5.925983723036438 9.923638270836644 6.364119249154864
C 4.571878651660673 8.005332903022268 7.173299238833881
C 9.375703501298661 9.412403425294226 6.572068307452076
C 7.235688966722096 10.466357008390034 6.721691541035086
C 6.803361847059368 4.533011397342388 6.645377515599474
C 10.22318152598518 8.280524177582276 6.595604272491284
C 5.2973019247992825 4.575670988050695 6.96156233560999
C 7.517393090077185 7.512648472041566 7.635533592882618
C 9.113301921520494 4.933388393911674 6.675041006842418
C 10.036169254950542 5.969866991696658 7.03829702314668
C 8.030765137106183 4.470298727522493 7.50584934792811
C 10.592845325967442 8.016200536016568 7.9857241535810415
C 5.158122094396077 9.31765047434498 7.400902405218715
C 9.00137788865969 9.695941568345994 7.959906229440063
C 8.213529753493473 8.40689748870797 8.467940508820769
C 7.704704374604552 10.480057751965065 8.054712799951767
C 4.909168579928061 7.195768579687013 8.406152693745337
C 10.266330746280829 6.638845221117724 8.328400436287442
C 4.07816016939132 5.935685821098943 8.60733994246446
C 5.030746839315885 4.95077458853371 8.317468379348028
C 9.954298421331096 8.92935113639064 8.85972510384897
C 5.646078569818637 9.402813390830906 8.8040156245359
C 7.747671302917771 4.815068656412109 8.831786146138315
C 6.343479533392758 6.628426315433814 8.02482136507361
C 9.399345815342153 6.656387272246824 9.493071278115924
C 6.919399708996609 9.96221836323574 9.145449256549878
C 7.644920948670689 8.712830167825809 9.882877340039155
C 6.388240099560349 5.449904789673253 9.01952436467359
C 9.080099971982609 8.123717867136307 9.740269803412774
C 5.449837851458155 8.143099992128015 9.451914764902781
C 6.609652041703503 7.695616615378387 10.160656396397235
C 8.287509387902482 5.7949157942015885 9.752210076666262
C 6.973627159900716 6.306195383003432 10.165153857898396
