48
Energy = -393.99878103 eV
C 13.048621570056321 18.9237709775299 13.016076445582895
C 10.733401760591502 12.824186537325225 15.150950135459224
C 10.012786062991934 13.977427741936784 12.908171550509875
C 12.649973484974952 14.987165418855275 14.692834354909806
C 12.06841704176049 12.819599336817534 15.817391616437058
C 10.453489712986695 13.917100115568068 14.325861064640202
C 13.612630554421338 10.859235698700362 15.040000001582776
C 14.067297508504245 10.604373390192356 10.954927031381494
C 14.32914826812157 13.8704311511401 15.185698217874322
C 13.123577120945324 14.93222069541227 11.039627339469199
C 15.195865831635606 12.812002594168568 14.864674091815576
C 11.574627130941549 10.674653148821527 15.154105252833823
C 11.421631204799771 13.824973894132746 10.513627426836067
C 10.49597113079145 12.808468160921423 10.795844576512414
C 12.953297028603618 17.629180405158138 12.995300113092927
C 12.108880327101597 9.897851611127686 12.863745427032152
C 16.1319094722346 10.919811035645541 12.304769489047995
C 15.216045684459983 11.341052049067924 11.29684265821699
C 9.671578514223288 12.9354522251294 12.028802636067644
C 12.920285912921967 20.165218994761787 12.6334149438622
C 16.63788286694022 11.787138326089652 13.34920303492168
C 14.901164938196592 11.349393264863032 14.857975327073689
C 9.874223577026875 10.957702401098322 13.613139746025475
C 12.054608031412496 10.819200624461683 10.519429214401473
C 11.439369381008706 14.985497864633782 14.051124405142243
C 12.846888402358882 13.810711930516446 10.14973362395761
C 12.535807646907228 11.473371581356828 15.828927763344023
C 12.931223980936174 13.89102299850767 15.609248458876596
C 15.8025582055031 14.07526358709725 12.853285174382627
C 10.040612890557098 10.707760713976818 11.643057245986391
C 10.43396116166834 11.430046091975127 14.788669933011265
C 14.752050410465861 15.060641260700368 13.08524190095575
C 13.283609494624892 11.384879900841891 10.036012499262533
C 15.890775091384048 10.723888390608508 14.012484915996362
C 10.77481672582405 11.371492766467467 10.65672118898221
C 15.337954657916447 13.89685986812974 11.480038556645255
C 12.75814146129392 10.081133795677985 11.562504897376245
C 16.005504368123415 9.651129059123736 13.052140692826274
C 14.08426690410283 15.015036024971737 14.292246067568472
C 10.6606221328528 10.02379227975076 12.763599315111856
C 11.689742815663443 14.950262431630101 11.42247929291165
C 11.016865991953939 14.985379598673003 12.627144656571234
C 14.999322751240928 12.716523424601501 10.803927144296374
C 12.564313435318054 10.094390855573591 14.247436568065089
C 16.118705653481186 13.040335764753015 13.751176480554777
C 13.732269584315903 12.715531799898724 10.037760082810424
C 14.337014146402595 15.002494918544315 11.673629653765417
C 9.280891794371898 11.626834643251877 12.46494945972689
