48
Energy = -378.38402943 eV
C 6.990965258906032 6.5680745257878455 4.1821495420764085
C 9.348270954943422 6.415854319528853 4.625382273424139
C 7.599236424665183 7.9554077111543355 4.324336975517502
C 8.106535707893036 5.710834475708758 4.343198598009167
C 10.19040527326493 3.773337593098736 5.251445188463162
C 5.857225010012656 5.931956945864898 4.927045204026251
C 9.050717123777215 7.784858457002685 4.597235948365064
C 6.340389609112588 4.767433636391002 5.631770600920819
C 4.490415296542042 9.368390143676411 7.361986630225677
C 7.0835039930527195 8.919743543615832 5.19643827684307
C 7.113900899125746 6.9716517284809605 6.8124436216612745
C 7.798462340011512 4.74400405788492 5.432895347240982
C 8.890690443917487 3.7949140607128395 5.938337943398326
C 9.693691615338553 6.141557316579213 6.081092538005167
C 4.69713465695729 6.457909018410535 5.735635510857792
C 9.412881456360799 8.387502306328885 5.842387687304931
C 5.533794065104477 10.481904476018068 6.960163867947321
C 10.134895181034162 4.711133059946232 6.38716983716704
C 8.305127460291013 9.258082139038674 6.330875602378878
C 4.662325310256782 5.685420600324151 6.912112198948466
C 8.154113660031925 5.899951659990944 6.529409496282038
C 5.698294602349789 9.550716178179513 8.480571942280589
C 9.227955812105957 4.088437107446547 7.343706288169545
C 6.255320673323611 8.134487070636574 6.1955793362619245
C 4.785778229899921 7.934520910509131 6.635243879509238
C 9.947707529214952 7.448749736176691 6.780915233534122
C 8.693387652786715 9.974776774828522 7.609544947100832
C 7.339235330889573 8.368390385420666 7.171547265714372
C 5.844973896758442 4.766692516475222 7.011574666121022
C 6.414273972168076 10.722212802129661 8.013467838582477
C 4.714545928657005 6.847636941759875 7.810431732996279
C 7.7831787667396695 10.582134639668546 8.488041717105927
C 4.333482970617357 9.335921459836099 8.866840247391755
C 6.7593575370802315 4.871998224432299 8.147740198340689
C 8.282241322881976 5.155533351810756 7.8735082548798605
C 6.208566819639637 6.940125419600689 8.042391706408424
C 9.247662133066747 8.910634396137011 8.601771472829407
C 8.79611855982369 6.405084832695905 8.754121954189864
C 9.573194953949558 7.565361652062986 8.1587993139775
C 6.600564254298339 8.371932503822556 8.441896011099647
C 4.38193028741542 8.28516675045066 9.751157401604841
C 4.196936073137796 6.921554771581324 9.260248968029124
C 8.18768851256029 9.30700081902885 9.458049246159199
C 7.775998654525406 6.725271273312889 9.599948127728235
C 6.525390329408789 5.960460789662794 9.203847058797066
C 5.4179366000471445 6.495274422390458 10.040435181856072
C 5.715607209716439 7.836573736055198 10.41646529674928
C 7.237236054517534 8.162675166523881 9.837888231699136
