49
Energy = -387.26621596 eV
C 8.770247632996933 14.482348747456587 12.974094459818794
C 9.364497185361818 11.47447893633042 6.8231636534191535
C 8.415829640665411 10.08798453844778 8.833367487870504
C 14.747514217438363 10.228784774775162 11.084447813552426
C 11.3958936411374 7.661475616526919 8.186753446374711
C 8.710570296839807 13.442987513260308 13.752888312382323
C 12.511327217262894 14.22925112596097 10.365957792342549
C 11.937531822130396 6.395508203541443 8.364477538368726
C 8.8305380325124 12.558642222230288 6.063585539399583
C 7.700743567113101 12.946577110267864 6.457121199882963
C 13.971942359246029 12.124281578146626 10.582972805099976
C 6.1834789706674265 12.243826767021584 8.454880728121394
C 8.50157315828107 5.726910936528086 11.86805117928026
C 13.35178258890803 13.285062875801387 10.314955476801588
C 14.097131365669272 8.715833642075873 12.660423262728452
C 11.211076939982515 9.539544636832465 6.289306535896051
C 15.0496644334557 11.214742022639701 10.02251038833027
C 10.581908805983506 9.755112892714584 7.905395475173914
C 16.66547420878434 11.317993058396972 7.952737181114997
C 10.406753839150356 5.556559283999386 9.955898286183675
C 7.405854611683494 9.88969658644592 9.817442783982056
C 13.680597883375423 11.135116491545245 11.611353368975616
C 12.898490800637738 10.715362309601987 12.644870470355032
C 6.641625988262071 9.44500646988949 10.92328184953731
C 10.38960563675651 15.303641134116415 11.230987861580193
C 9.41557248306569 15.103410528728899 12.065979246525151
C 9.059319499453188 12.348815794352388 14.302999995720771
C 9.58099161498059 9.214774262769907 8.70900113180423
C 10.089224479836375 7.907978321076397 9.065995498999628
C 9.72131259164302 6.8826687144892755 9.881098139105438
C 6.385164971560363 8.610697896876768 11.992497154606275
C 6.714068560249873 7.418936620303186 12.632164274030814
C 6.211334184085459 10.55939251952123 10.160115773556846
C 12.024336129975728 10.23015923934693 13.640757983725486
C 11.47077429157908 14.954765763039964 10.656552969038131
C 5.768187364764775 11.620992654596693 9.465992951776903
C 5.67632401089783 8.224026006275702 13.176135895716282
C 13.094569642980368 9.372914682370588 13.240765427893722
C 14.882021313895706 9.010574184939335 11.68472829222509
C 9.368283697294428 5.866583696914601 10.794585092750893
C 7.246293061394359 12.23483837911386 7.60956709452959
C 10.887808568691304 10.564328628641652 14.273837037116595
C 10.51686722806453 10.694664509555095 6.838297108729784
C 7.60666283368275 6.434271215823498 12.374523306137617
C 15.87247242279517 11.270204465393833 8.965930920369622
C 9.924035253598237 11.37734154755773 14.397498729068195
C 11.44896212605219 5.488590028470265 9.097565797260353
C 11.636888608525318 8.847682250557453 7.485836794329508
C 8.341542505499547 11.19849815953102 7.876249298543325
