49
Energy = -404.88364823 eV
C 5.199317554624409 6.7689579164392795 3.3113599394909303
C 5.926159869259557 5.467228673235811 3.3970237395311598
C 6.057851098389945 7.9070368041991586 3.150104881002858
C 4.052824290689112 3.9165861601656937 4.065308955429654
C 7.525902150304521 7.904265291887207 3.341270561654007
C 7.298034257691772 5.552609313230494 3.752480680925513
C 3.079591395423932 6.389253505921477 5.1230005103893
C 5.346957236111082 4.27736074403321 4.0533976750546605
C 4.0503663739510705 8.234915702766466 4.957364342683679
C 8.103612531253805 6.74965639651162 3.8425773167533857
C 3.9768827418236063 7.058868814533205 4.099678164013141
C 6.005243259478791 9.148256451637003 3.971659483224216
C 2.9502744134621697 3.9371147209618464 4.712636917289647
C 7.42005738074729 9.123773191940728 4.187954153119674
C 7.362089832137004 4.944914703657918 5.123210827900222
C 3.0130714696456398 5.055233468338612 5.571887889552162
C 8.462201702854747 4.531376805393294 6.080575891467508
C 7.97820210409765 9.243587867063031 5.466985217292402
C 6.479087291394123 3.3112664243218544 6.558370227466827
C 7.874565212159994 3.544027683318114 6.9104811726012905
C 3.434564126958149 7.509348089661874 6.029133212610316
C 8.60673592863855 6.851602510384464 5.322884233885523
C 5.69691581693802 3.2365428856848917 7.769864272666018
C 5.147157094646387 9.09728922984551 5.096123880737527
C 8.785935507420914 7.931831806186899 7.335013527288149
C 6.6319571623437765 3.2041691208741154 8.859820223650994
C 8.82062299034613 8.180205373957255 5.936711535951131
C 3.9963787752190365 7.395729636012541 7.316463832967317
C 7.08177803294853 9.39318270704737 6.625909784789503
C 5.442504452261813 7.854745868634889 7.268386805603303
C 5.274866491146001 5.335029032829308 6.191261390205962
C 5.748118187615792 9.083308335981274 6.403126364895775
C 4.565959140225516 4.110896445518585 7.908763107434415
C 6.062956964409972 4.254608239180878 5.434527796982978
C 7.583588433969335 8.613391036577765 7.7577215858772
C 5.997750132395763 6.554800473263755 6.379936517865454
C 9.086339263242612 5.784140175219768 6.402651298843502
C 7.962758765332227 3.486747338550348 8.34388434675067
C 7.223661907274544 6.31318965249927 5.744804419738937
C 3.9172686480735797 4.998776610879514 6.823224130063641
C 8.23807691776745 6.011333283779886 8.788590742860595
C 3.8899344988632594 6.097647725954261 7.880631600684341
C 4.687808300802523 5.318138619409289 8.750774161765504
C 6.56218985669631 7.829436556695348 8.341629358756702
C 6.75198488701686 4.426244450662962 9.643430450497087
C 8.974424331716117 6.531486685097468 7.658172629873521
C 8.131493630870292 4.662166040115214 9.190580550297582
C 5.96945366992424 5.569497820012477 9.418879587492244
C 6.897225390967898 6.630925081457782 9.032471573653522
