49
Energy = -395.02988805 eV
C 8.53423058489168 6.731312877106384 5.191110522751385
C 8.114200937395037 9.145087677587117 5.336902600673018
C 7.657674309982261 7.890556114236509 4.789000880440137
C 6.351934359141754 5.955601291314818 5.491988889754855
C 6.323003653574862 7.380418754778507 5.056041875822078
C 7.7174855182293225 5.482621100350096 5.359186381525695
C 9.995593397275282 6.597796184244377 5.711961895575041
C 9.445990475894344 9.107776700212328 6.076496626791555
C 5.508407998746806 8.180467983047928 5.9132501285014225
C 8.084869651535886 7.099252932436488 6.604081730566346
C 7.273255254216324 9.984519340635066 6.191819349738009
C 10.280045979403749 7.88169817635743 6.509595953606239
C 8.58045285389778 4.660448241846174 6.116369644542376
C 7.088811486222177 6.8478905863662325 7.439336937926156
C 9.90285899630413 5.3437420639668005 6.315290444999912
C 5.823076969235805 6.0703907059211755 6.955494065692977
C 5.9439903494739825 9.454763057227156 6.53614395374718
C 9.52942553408048 10.162664830101695 7.0908249769262115
C 8.182732114227282 10.747243003056797 7.090784001132337
C 5.006846670274302 7.34202847966623 6.964169013244346
C 8.851397487527338 8.124677979446881 7.148914924788193
C 7.694377062189966 11.562012382671714 8.184137498308706
C 8.495893524164442 4.407345995890138 7.564899642553169
C 9.81708104502682 5.03671373721822 7.759302867179197
C 10.762617354832493 8.183541320877097 7.923171189650181
C 10.305182302036403 9.582957285147094 8.22080679564545
C 7.583251733007517 4.754076920785547 8.566527736325753
C 5.320117847572892 9.432578362337658 7.880025437430886
C 6.153836156767446 5.368384734918606 8.309983557333418
C 4.824549114560915 8.126434433118874 8.144987179831132
C 8.381683372417642 8.489621832107984 8.433573307518964
C 8.517037987588694 12.306351755663526 9.135380653205896
C 9.801500316131198 5.899640624535865 8.85204730800345
C 7.199228536507459 6.561589811820505 9.806661325467704
C 7.467330050941681 7.496933015045327 8.70072193638514
C 9.401350326525415 9.293155078934424 9.403767690003129
C 5.906741074601448 9.912677044247989 9.106133877760334
C 10.4392456153926 7.21424890829475 9.047909206189216
C 8.497885167104112 5.5351534343936 9.608325321937048
C 5.821818708448346 6.221462438601151 9.43171791856529
C 9.743429205517295 8.007367198092041 10.023545940921528
C 5.3676397707059635 7.630238039135526 9.387191452616028
C 6.674191436132468 11.056618441540309 9.106109651721138
C 8.619771431190001 7.680111465436956 10.862600919475423
C 8.13929152134129 6.34954540440575 10.828418673299554
C 8.38403670638349 9.954306527251662 10.308965080958773
C 6.163661027914332 8.80234171699729 10.050259496007467
C 7.884311670939586 11.212194399974742 9.865102207740252
C 7.5673734484562845 8.862157706579474 10.729679425148406
