49
Energy = -391.0380864 eV
C 7.2813137006594575 8.10502684081689 6.029545098284288
C 9.36304840120898 9.389307708336622 5.6585430766474145
C 9.351741898049688 6.623597712641987 5.872005422944744
C 8.037654269031863 6.797825937888815 5.283887860385759
C 7.914760335357834 9.453026820231127 5.665976969132103
C 10.042243506313115 8.026972590407151 6.121659501378838
C 7.159399775045734 5.749659415376238 5.197084470897667
C 7.473221058962578 10.694200746243958 6.226083419251443
C 5.82533619788967 7.927396937987844 6.639899668812761
C 7.9459633412458475 7.8885783807175 7.359723398350548
C 5.697266158741393 6.534880966379687 7.119939332861274
C 9.719969730956475 10.573341220521135 6.732379261338097
C 11.482577446600594 8.284798607815759 6.662318565380743
C 9.133109180428928 5.717974385683794 7.125115922962196
C 7.741712187327729 5.12060102791998 7.338389912035813
C 8.590174084244925 11.474087049318193 6.765458763577182
C 5.5796607753755865 8.808100984946824 7.784949375732363
C 6.641833750740043 5.653992290804162 6.50129225842776
C 6.733491391668436 10.980976162305083 7.481516794288702
C 5.964590319943478 10.128057665215655 8.263023371173915
C 10.654056101159465 10.328075588097489 7.985075388781074
C 9.403130754731341 8.133444405062551 7.482302456052524
C 11.606570944148604 9.2699650621565 7.687546844590814
C 7.362420307459748 7.843836480755162 8.550120557599746
C 5.5590847083531445 6.492644424365424 8.572572209846902
C 7.8864453151220095 11.764071792426913 8.005502989922395
C 9.376424007140827 9.527170502487502 7.76866344648367
C 11.6274815413815 7.923023449292762 8.093405696987986
C 7.297974958589167 4.76895349922816 8.63763868450307
C 5.843458724650495 7.917157949232703 8.956702925554572
C 6.201215478998217 5.521258312268431 9.316062490378288
C 9.801192968748119 6.013295040909181 8.412081202004325
C 8.386220245213625 11.194078093522386 9.308241205910996
C 10.2841218194723 7.4491545024066665 8.595470818641655
C 8.581589934938716 9.76870264618547 8.873711084660895
C 9.796561004560957 10.576271077985112 9.527462003689184
C 6.10794603273442 8.74636243502584 10.201724685232767
C 6.242453604795346 10.06402681267647 9.767992833691098
C 8.101565795905586 4.878689445661095 9.804408050663898
C 7.470763859985255 10.669397949707589 10.399458240128507
C 8.227687478316916 8.449924724566912 9.520036622579838
C 7.104837872252303 5.732343517961119 10.500414425528831
C 9.290508374962059 5.626868342958941 9.686863940815321
C 9.629590103236502 7.979046477283635 9.962407234776826
C 7.417337260686466 8.379276865797273 10.865151099783496
C 8.218719300284283 9.696058207605624 11.149942346891704
C 9.680816225086819 9.53378201652079 10.65446865100657
C 9.16118893639259 6.734467186820201 10.622917941195771
C 7.787269804891899 6.873950713465974 11.050562452223975
