49
Energy = -388.60010909 eV
C 6.645410169640372 8.471968329273649 4.09779740931128
C 5.571096437615039 7.572153674786261 3.9693967138417148
C 8.056765392636203 8.31373579609903 4.4864219378309445
C 6.069016737030722 9.535008849158363 4.961520661898069
C 8.842297812078039 7.1395587026057195 4.979381572125309
C 4.868811627933718 8.98963830699534 5.648584675178394
C 5.1005215308939915 6.74815282014106 5.052444695217295
C 5.70971353153005 6.4665945184046825 6.236392601117789
C 4.3715981528400185 7.925627295600578 4.731453415502009
C 8.297869706296549 9.415880358318567 5.39487849232828
C 8.112404772591722 6.059953167345399 5.711580747334979
C 7.033852981819157 10.103388051907244 5.7936116287496064
C 5.171306885926534 8.87509691991136 7.010483632059917
C 9.67481747144736 7.530540347845281 6.09343632686932
C 9.061201283739772 8.862623390823241 6.534810337656293
C 8.453393254652916 5.01361406969181 6.679850375076692
C 7.137734015008453 6.852878302815956 6.47207196201937
C 5.201590044563856 6.466312538530394 7.601771195506768
C 4.898135731985424 7.768840994410344 8.075008257680064
C 7.576236085831379 8.310877702588575 6.929002939322308
C 6.572583244573729 9.488623061598085 7.164789037127658
C 10.177570351360872 6.6426285394625015 7.117512541704101
C 7.519974792511502 4.655259400503583 7.835922737267472
C 9.76866947041784 5.273671179477655 7.291365154794174
C 9.504254442308119 9.54589740067312 7.830307453295654
C 9.677346663206015 4.9408132504534885 8.719826973136431
C 10.13840256676421 7.202861396383722 8.507955057434915
C 10.452215229773735 10.788965438146379 8.250077556773494
C 6.289594744821846 5.624141230689084 8.366569981762488
C 10.18084406262763 8.628989333725535 8.925003219800676
C 7.339750367071328 6.6451996543835765 7.980325263219701
C 8.304069388018242 4.536595889092168 9.03481009673273
C 8.570537435985923 7.070552890425727 8.731133763825218
C 10.909219599689216 9.903253926713877 9.345353999524376
C 7.586729010339195 8.059948541225816 8.363198749462999
C 5.218290399358442 8.01580950306003 9.47621649429492
C 9.982697746483957 6.079156121564291 9.500460753349516
C 8.477821754674702 9.915229459697645 9.002345102612217
C 7.07523115682589 9.459926773944593 8.733025176700348
C 7.764315037129148 5.3359453173183296 10.119643551285108
C 9.538654210760326 10.943871541999759 9.398856044496833
C 6.167521093609643 9.017382263213277 9.860083268754458
C 9.164847549468133 8.984884394296778 10.116919265542078
C 6.4248631929805144 5.787485950403612 9.853118835137911
C 5.968707147967424 7.03700089083006 10.314840725317296
C 8.307548810649559 7.886328355329626 10.773425851380027
C 8.692914286850147 6.496797835412397 10.245873903065855
C 10.116892369440448 10.215612400233535 10.551375958950159
C 6.921519567298847 8.062083241515388 10.797123225651577
