49
Energy = -382.86627343 eV
C 7.106947158377085 9.346699639260935 8.6803736886477
C 8.319651156684413 9.023372426990313 8.080072463751387
C 6.232980096080623 10.119420675679628 7.755949477276426
C 6.529620774998542 8.051539901268953 9.373804048364288
C 7.841739673376231 7.284619586546791 9.65221731365552
C 8.155088355932872 9.433794259879663 6.638666951698954
C 8.623127677990027 6.173938132236463 9.925457994248402
C 6.856053697298154 10.264339727091372 6.4944410697262995
C 7.2153027498255415 8.2217824200915 6.392350328409219
C 4.984982125642406 9.320885296316517 7.4599121312059795
C 8.542817331062002 7.510097315482275 8.297785351809482
C 8.65160713320856 5.041289823117201 10.797079161041589
C 4.236644083849803 8.539955253473433 8.543742039945792
C 5.053761918694566 8.183997511988741 9.632763062428905
C 7.505910448304352 6.9332991117926195 7.238517844215175
C 9.786825613966062 3.3029327400829747 9.382036447835805
C 9.674659389450056 7.892450269816062 5.442570389128218
C 5.948083430385982 9.689945063733758 5.411303420307987
C 5.44342127705567 7.3110484673893135 5.876653091395203
C 6.246800026844994 7.093735185232953 8.113674222952335
C 5.8923747646247095 8.059777776733917 7.080210485636238
C 4.682674923616987 9.354758660136925 5.940798941454717
C 9.351206871848783 6.247882371834404 8.568598788408563
C 3.4552244932580343 7.497242331102272 7.923742609486484
C 9.218530775077658 9.008552498329262 5.723160939140565
C 9.756565407633 5.255764949478593 7.640793458978044
C 9.492060175104069 6.5155313716861025 5.372187595692404
C 9.170024485987115 3.969704115895264 10.38403998096272
C 3.9707137365063487 6.116873625133317 7.9190851170236956
C 4.1220516793225865 7.886610231791753 5.451289394901954
C 5.343353471526573 5.937427586114114 7.884074460103057
C 8.236937534600772 5.556469047346674 5.2868790242122055
C 7.230831299398676 5.787884082267399 6.316307085391362
C 6.545445745371161 8.26280135059453 5.0414228491628466
C 3.2134483606268565 7.209485628182188 6.486826475759301
C 7.139910333642181 7.608408630432118 3.92180370403879
C 5.6798826328037695 5.775081033139089 6.350035893711103
C 10.02821141565973 3.9520730276821783 8.175044246516547
C 10.416983800127847 2.6015648756610523 8.312751964525145
C 3.393823061556748 5.748335810649973 6.6084856976523225
C 4.572056759773488 3.9745541700744775 5.002070269154457
C 9.602071775817976 5.441402239990253 6.15873071406798
C 5.221815828992768 6.639605697223491 3.457976353006132
C 7.42712132144812 5.17392935949881 3.9927274431425306
C 4.420200044538072 4.991905805581878 5.845251476991558
C 6.671894581601951 6.390440768353511 3.543184090265769
C 5.577383601685849 3.628664384307449 4.258323433220834
C 6.753033542389362 3.998983853537127 3.908656052002553
C 4.327181041816738 7.2903456238135425 4.05680485194917
