5
Energy = -35.49626714 eV
C 6.705021915298556 8.816969516167223 7.378373413377984
C 6.28379688146533 6.448531177367179 6.4788862957372935
C 6.362377240333909 7.6390751418838665 6.95730130739146
C 6.304449515746548 5.257859359431399 5.985059907834791
C 6.619418936531846 4.112305208679115 5.475247216309865
