50
Energy = -401.16088501 eV
C 10.638529338708125 13.447084474004917 14.589212998711826
C 10.057588863614669 10.831973372822132 8.923644873186563
C 11.56574368387925 14.55748227469368 12.647949378124132
C 11.053325128906604 11.73488594466803 8.379633169297824
C 9.735957788043404 12.349873582174034 14.897508598249578
C 10.537625068719302 14.484311351338496 13.666431633293474
C 13.043587972156066 14.880027555757106 10.47679769022583
C 11.728228748476527 9.063148313902259 14.15689917426063
C 12.463019601105533 11.93983901224043 8.46367842141614
C 9.373212804281858 12.107176549740512 9.455578438717698
C 10.347987715227392 9.644997950751714 9.565679704164557
C 15.206596181794904 12.406375043376226 11.107849801226893
C 12.631609775165153 13.336513316529599 8.867784558091952
C 8.360782730711282 11.000043477156103 11.318085252296845
C 10.707084934582623 10.03371732664123 14.2649201827042
C 13.920096083658816 11.640649106946126 13.351476329714242
C 10.40465820004988 8.908596387982374 10.805659021325242
C 12.060187889871159 13.121293253755034 12.521087529311817
C 12.849974090428399 12.504770510213856 13.600279653931398
C 11.628946637596588 14.911580009982895 10.258555377341281
C 14.813852542124 13.17426729874267 10.003526125808817
C 12.886434468357326 8.943192060228135 10.00897017247254
C 10.956529613174117 15.134522193004424 11.486285225082504
C 8.818669919120108 10.865929501961576 12.750959488394432
C 8.383748004128295 12.000727603755523 14.80245882173441
C 13.174806383179044 9.322596502482629 13.902048569679723
C 14.559082114636972 11.504800051534222 12.020636739443535
C 11.576541087967042 8.389337711721685 12.885889380006168
C 12.909075716629411 8.743660486833093 12.548482824925134
C 14.519603800101173 10.644017132437368 9.763652788263373
C 10.381974519596913 12.932313013650388 8.869288409121797
C 11.820184316743577 12.451219960357585 14.653876121186475
C 8.825390800046588 12.194464113631852 10.743958407964497
C 13.699207545123103 9.616461787029337 8.976218235085252
C 14.265954791994833 10.376038683368385 11.199067864429239
C 9.76526503970388 9.765726643141791 13.143837670438998
C 9.636408682222743 13.062059291424434 11.748039100377238
C 11.479500922927304 8.827627431362291 9.917201880324946
C 13.30151417524382 10.896662960200544 8.762690874040107
C 10.843738944264317 11.382644180397135 14.848734347412792
C 10.37133827101478 8.871682744777718 12.219312868794267
C 9.831210898109557 11.975645889936828 12.705178933452883
C 13.684605386576202 13.940243284096619 9.651264193291658
C 13.432882333675703 9.211538726672558 11.319788679515964
C 9.914143463649893 14.466859365174528 12.260070339352787
C 15.34269228924707 11.868116333781584 9.775013201091085
C 10.99960082072304 12.362762840207013 12.0149846702575
C 7.90836105229239 11.261908230733985 13.904643878468354
C 13.818010384919392 10.462664693597965 14.123011407114726
C 11.360860911897419 13.932067095994558 9.197037476061844
