50
Energy = -399.11454993 eV
C 7.432035285061489 3.2867242490059025 3.913067392690371
C 6.443796239056174 4.258271920980938 3.653846412495837
C 7.124002608490086 5.571105172640359 3.576976698577857
C 5.96077545376865 3.17625370550989 5.739395203605705
C 4.053990531880001 4.433814499683898 4.662142904761748
C 7.130485524084954 2.659013285979228 5.191630494693701
C 5.302759623853427 3.937271481404579 4.576811913307711
C 5.445636124319948 7.706690631045497 3.1562540258668106
C 8.514368543262133 3.9468501443876525 4.601515243872573
C 8.31128005161143 3.2161049353178046 5.878320423936982
C 6.569716132883769 6.8232848079571955 3.2420876080578807
C 8.445319165052233 5.3827765378708206 4.242346323613301
C 6.315701780767639 3.5861428114103404 7.116531595432864
C 9.34860639160634 6.233001752050151 4.821309383906011
C 3.301016171937822 4.733366359922815 5.701437282952496
C 5.7719670892974655 4.242567483383973 8.27706744899207
C 3.521682810489336 8.089749388752688 4.796135300812909
C 6.760336939825396 8.219181676495802 3.27718369812191
C 7.938122883694094 3.4159718806278954 9.408835448446583
C 3.6481107562545776 5.774375670724532 7.975358625130479
C 9.580401987611099 7.324523119343296 5.593864704861011
C 3.0987682990411103 5.248130055680209 6.825463448467653
C 7.798316907871542 3.653502572318316 7.140785195464318
C 4.557356725374355 8.472372740475707 3.9804338352828847
C 9.994434359312267 6.085789748254864 7.738698602826874
C 8.560366378627672 8.391283237164252 5.914957420210931
C 7.686412278501594 9.42759554974204 5.326433499764663
C 5.414050455362039 9.47003115684412 4.6717833659308825
C 8.27536402095403 4.380274155843837 8.36256811885706
C 6.811188828476298 9.298520766694214 4.1840934733210995
C 3.7841575151760924 8.137191263573591 7.2634133985226015
C 3.7042756092684344 7.185657163499287 8.303742461212872
C 3.231389254728644 8.084738735764569 6.01298170378544
C 4.774794426297173 5.193150632734809 8.637598116780323
C 4.903077371588618 8.788294222479747 9.59470968209707
C 7.094266510602958 7.997532783067936 6.028468903110546
C 8.887416803714176 5.74118898776104 8.416305313314304
C 5.420581428621964 9.86040925094177 6.042876014074262
C 6.947749581992804 4.557760485757616 9.129136315452763
C 9.95373619029028 7.2849288464187465 7.0037834091592055
C 7.8626288122340515 6.7404773210409425 8.878805592174588
C 6.806929415803176 9.783122589231844 6.425690154520552
C 8.96453862463063 8.273838400281505 7.357919753518041
C 4.991075053460494 9.141396548258363 7.347712577910388
C 4.8408524079046895 9.704993719253789 8.739476809137235
C 6.804417517761364 5.993193343080292 9.453132851344568
C 4.639576563582177 7.425217862530205 9.412345588656875
C 6.637457886303538 8.614890007973392 7.378749372889381
C 7.843192670605524 8.013099450630852 8.198740879282225
C 5.400222974409891 6.252030566044816 9.469257774613615
