50
Energy = -402.0151848 eV
C 7.650808522426197 7.045937019212981 4.130649186415756
C 8.109784191413826 6.072024683821995 3.2355433399338596
C 6.844662438324769 8.205489331922191 3.773330783913759
C 8.217056729224042 4.91144302839521 2.8255678150308525
C 9.797904110546913 5.375506081284571 7.18183640758374
C 4.242915085541733 7.07536405675196 1.65887031434419
C 5.166282058542577 3.6424700059653077 2.6194130275512943
C 4.093759232749529 4.014734881134302 3.4597202590665512
C 7.715692060579004 3.6688190352966954 3.2445301795688954
C 6.252097985109559 8.287706043910232 2.530320081220375
C 7.775809031555595 3.3291636920704537 4.631789826454846
C 7.016920995310227 8.176716076143961 7.400015314386966
C 9.455953443349294 4.541938870979629 6.289181839107408
C 9.531640162109143 6.296247463665633 8.113454797130302
C 3.4394152499356783 5.256290088110193 3.2099934911659602
C 3.7653993744300536 6.009666326560211 2.060227193047615
C 4.8657526583784 8.128105346997486 2.4089932034981345
C 7.290058424009748 5.374665742238365 6.059365371389822
C 7.333952902358585 6.689839864174949 5.474717325064543
C 6.3195453375068515 3.148157481231513 3.1193140659723073
C 6.381459958685785 2.785863934091127 4.531554942035389
C 4.7588506983198435 8.811304015052464 4.834192816303972
C 4.148605449958312 8.404749995266641 3.5826775835147937
C 5.583535105319852 2.6748348248969562 6.76958668007944
C 6.136146278544273 8.64929992112067 4.979709688113408
C 6.771861762937825 7.9275279086446675 6.116912480731441
C 3.2509355928005093 4.074052095240829 5.695971867607628
C 8.269601537048603 4.274241990733082 5.628884607836455
C 3.252447582299228 7.509932818620227 4.382800986295355
C 5.269674475862712 2.7209285875735203 5.3515591362772374
C 6.491242731896179 4.974257847059672 7.1157516218271475
C 4.215488768258325 7.9861419471153035 8.042325167269684
C 3.0087565976218236 6.099575787317384 4.330520390056183
C 4.98924773608116 7.85620347577118 8.994372329499411
C 4.066765079779549 3.418275020884676 4.8350552876157575
C 3.6356930992336025 8.152697707668292 5.602021918295814
C 7.3895714621963275 7.659723195524153 8.607508503633326
C 3.2256762594313693 6.14732711701246 6.827069923057451
C 8.665221694106757 7.0686291807875 8.584580296908765
C 5.370966793106838 5.392220602597861 7.897980095768038
C 6.50948914151576 3.4914044930200765 7.420348440975677
C 2.936996748931243 5.450048934402435 5.6208304191320035
C 3.595310734359652 4.080065735981705 8.401647957441986
C 5.4462206687809145 2.8420673684536566 8.15439049574707
C 6.1997030708077405 7.237043682045757 9.42848902933443
C 3.5735776812477584 7.534066138974511 6.8576493122750914
C 6.030724436524442 5.955698745315335 9.910688007024897
C 3.9160438521700542 5.303635610989844 7.79225503940193
C 4.713682651659952 3.6062478917621354 9.132338513294536
C 5.525386428682954 4.8759423777796345 9.357786712369741
