51
Energy = -404.41166234 eV
C 6.279462496314172 4.685629621916494 5.244923364018097
C 6.327611131630505 6.743408528693135 10.039921400878324
C 5.83273898330788 1.760414954752252 5.720473398098493
C 6.9983748595035165 2.132655537107386 5.298901298770535
C 3.9113382205547973 6.519351748922737 7.651453895417009
C 7.16334256927587 5.782851845328274 9.9340012090489
C 8.95219338044513 5.419674510193616 4.375196548996771
C 4.271147974668681 5.1232817460398135 9.432008739252195
C 6.571771911675304 5.783164558113762 7.340308733178671
C 5.150799832158492 6.006495474345256 6.77638905173116
C 2.7774079389360518 5.740329949117184 5.570927170088868
C 7.100358771566014 6.659862524872909 2.847944590592023
C 8.382158857661121 7.176594508951245 6.421997947115924
C 4.108098293330188 4.051108926959295 8.453676904064787
C 6.6054327398224855 8.955285952725742 4.005303848745972
C 8.707777042346397 7.807009495214563 3.5462852305715447
C 6.588303641307491 5.118419291838166 8.755451534990746
C 7.165259420614066 7.166352538270213 7.109921479257232
C 5.9602675242507335 5.956312197334804 2.6238191829680546
C 5.389063866654765 4.382345787673448 9.017860861160287
C 5.255500993928648 7.4561379460506405 9.517421600093309
C 8.718285256889548 4.043664081091444 4.824601236256014
C 6.479842851062956 3.691090148076011 4.1714700685912565
C 6.392085621783946 9.525241767087342 5.089170949014114
C 8.98542708384426 5.931939040832497 5.8506627073813915
C 7.722061261353171 3.041477142350544 4.484959225160697
C 6.184014767289263 9.58422809158341 6.473336847557245
C 7.338853211271682 8.070783308183596 3.204413267238614
C 9.103295715660488 8.285596912207364 5.893989287351601
C 3.4452946661326433 4.121505609985844 7.215893345276955
C 5.0735042710585985 3.2112765324763903 4.037973950266161
C 3.035366733766219 7.080523627278996 5.192520282745888
C 4.95839875529813 5.237554075617537 2.86373036633454
C 8.53611441027815 4.614258808175563 6.164378230206289
C 4.724571680539837 2.597339034056575 5.316535133907212
C 7.146815451130512 4.828531014324978 6.355023592959024
C 5.635179034090906 9.97307921626095 8.651709180824929
C 9.367852636955341 8.515613147276493 4.5406843734626054
C 4.728693892588689 7.483531862385355 6.71825993440839
C 9.954335366855313 9.341945310796412 5.522951351113998
C 3.661003693029393 4.6909087504431355 4.963533477733583
C 3.858016457421097 7.898361891022962 5.624645749496698
C 3.79950840312853 3.520894425948591 5.940761035034053
C 6.033488635338519 8.213697176849394 7.226509271945255
C 5.62201212236989 8.622689919857851 8.68493514471221
C 8.482054216501867 6.34267714180079 3.4170074188446287
C 5.025429143918182 5.148878952566911 5.631287727735966
C 5.934952911148383 10.498198905714855 7.4597173327775375
C 2.9504095902963026 5.510863754455879 6.967471671320252
C 4.258276441268305 4.320190613175189 3.6350892297464217
C 4.249064193023993 6.52939101894175 9.095209546804304
