52
Energy = -411.57859937 eV
C 9.964785999301608 7.3419924922021025 7.3877194111262305
C 8.052186205454493 8.605777018085877 8.021120583941439
C 10.066290062826344 5.974963910370784 7.05346514904016
C 9.0205507697904 7.64287146070056 8.453492622026824
C 8.440593606438245 8.906918206125148 6.652614113954642
C 9.731466868655199 8.362703870438908 6.36204648489073
C 8.639688031954519 6.6811768122992445 9.387643455710334
C 5.7386676778113435 9.489924632854118 8.166630837719627
C 6.775899065448965 8.701719740169558 8.678302623403711
C 7.755116081378598 6.846125649653691 5.3495584208243265
C 6.362037963391548 7.653408785270445 9.630596121264087
C 9.434866419877274 8.107133352319389 4.950458671556836
C 9.913586027000761 5.602992050718024 5.640012312472413
C 5.297964099271877 10.230466443860541 7.020165800250876
C 8.93696241876161 3.8886298780644815 7.033319671582497
C 9.69034154392232 7.6001135499051715 3.6287075198281595
C 7.335171374539287 6.751883180754311 10.069196927425471
C 7.882081635218103 8.41628429825266 5.292958645962938
C 4.334642548157115 9.391063564657665 8.342987846229809
C 8.927020881810634 5.271716448786325 9.177740821522798
C 6.9755656267674775 9.028332833800782 4.376547939850751
C 9.238938875870017 4.394244654891901 5.666001171636393
C 9.453134699859767 4.9170521650587125 7.916422985414436
C 5.861138105836182 9.108679070637528 3.8654316663153647
C 9.118308573819288 6.520687340223258 4.814158726931773
C 3.5022520274466875 7.178365020235239 6.772739763562299
C 7.032638291466913 5.7257897232691315 5.724629513836916
C 8.894052107570936 6.579841964943729 3.259924558131297
C 5.01303327959389 7.050443210145574 9.606470887680006
C 7.9327930375105975 4.605115714197612 10.000653392878332
C 7.537948438425512 3.4673033333566092 6.683178258633484
C 3.631498313205637 6.830261134939853 9.375733444783588
C 4.061239225837811 9.461725282640105 6.944157116004436
C 7.821953693132278 4.46681450509389 5.658375597027902
C 7.915276031857175 5.869333944770906 2.5991725232911
C 5.696893843205941 5.556961794633002 6.301449683583629
C 7.150421980982419 5.403480322374031 10.590372980827482
C 4.4969437015428975 9.075274496019288 3.7430761472208123
C 2.672142536399268 6.944337043179813 8.032547805303183
C 6.772152747077904 5.384792170130748 2.7838520719009074
C 3.572474091282895 8.490386416510832 6.068497286074911
C 4.771461803076638 6.2569916313874065 7.208751126096653
C 4.795400018268664 5.9173680157610775 8.717461005352561
C 3.522111702039108 5.335869646690555 9.081422988135191
C 5.326035404965572 4.1022481807153826 6.463939420499108
C 6.224920825407467 3.2103268268065532 6.828331439551113
C 5.592141451820631 4.979795556132669 3.299887910303181
C 4.691028249751038 4.8161482268296 4.150293241172435
C 3.833362113391177 8.68336814802268 4.734671354317765
C 3.4872168869951627 5.687056622137857 6.511517719965602
C 2.700309289172672 5.566159746484305 7.824302429885836
C 4.395181377665673 4.833063191391133 5.561572651409481
