52
Energy = -418.68202078 eV
C 5.764690068839472 7.409943894308095 2.4837071758480707
C 4.775916463005904 4.316104764581573 1.8922975277362004
C 6.091684061150624 4.847138691347931 2.360689169608894
C 3.4866914807543097 4.925186304188986 2.218185235889839
C 4.9184763768530475 2.9672259604964233 1.758085242385796
C 5.728885715244103 2.510998715126375 2.925834131017887
C 4.478456368254424 7.413440476720682 2.935769672572862
C 7.710803270350003 6.757414831284234 2.766559833818192
C 3.458751703301538 6.340637320589774 2.770666065891657
C 6.593308503921268 1.258085768382972 2.991218984944292
C 3.215608001477349 2.758732945387771 3.5915937740880977
C 6.506155496991474 6.173394432968514 2.1849191251569438
C 4.501915934849302 2.2811325017452595 3.931810341527877
C 6.969828828776604 7.993512848068933 3.1187264733791293
C 2.6725209798137217 4.0300324010420505 2.897682619628697
C 6.665392908910559 3.8224263101981157 3.194200975968883
C 1.809425255249653 4.61808469831455 3.9933518524821543
C 2.473988007341996 7.086211074753944 3.7530256880334485
C 7.0034843882460525 1.1456298533625486 4.163614180773865
C 8.573023441714737 6.21635468616091 3.660057752155848
C 3.6618021907630056 6.165692859170979 4.277962198935099
C 8.070580805985578 5.377226563499515 4.643569548887253
C 3.8513372472352945 7.649252662076164 4.318333510184012
C 2.3966572715091963 2.6000622539016263 4.830130446570853
C 2.0109342588081076 5.994730726927465 4.629592726531127
C 6.96031308668254 5.15628842490751 6.816800964880615
C 1.284068682964482 3.59484398232858 5.02490250521681
C 2.7433026514757057 4.069210257286936 5.023387719473111
C 7.597208049115507 4.019196560637212 4.282412793211844
C 6.968260021283723 1.8312337672398935 5.3536644765049255
C 4.480164695868493 7.901335460133344 5.694575665851832
C 5.885632182320396 8.080928725902522 5.547201020379513
C 7.560006274179341 6.0146298899715696 5.857269595024943
C 4.517628762309223 1.9610589125606406 5.41029595396227
C 6.844125055544312 8.170526315804903 4.514319237775497
C 7.565728900913759 3.1458516746288487 5.424958969898586
C 3.242798687195089 2.29877171966901 5.998196673620258
C 1.8472289289579804 5.829812357507266 6.082397013319802
C 2.603260488097493 6.573212356452201 7.022605687639837
C 1.9092553534645986 4.313617892693186 6.248929555944672
C 2.8827201841839885 3.3576228871461127 7.015631835551198
C 3.983108439059507 7.174691265062298 6.786223483878212
C 5.7665541501949775 1.975756877241245 6.145715539628201
C 5.73979286086909 5.3046963389296735 7.584761105113167
C 7.088299771274454 7.347559060028538 5.634879355384037
C 6.002536986501676 3.0161079008840637 7.122633469294376
C 2.3312075927953186 6.207542092220931 8.450331685318634
C 3.482160101650063 5.452858984640745 8.16302860881731
C 7.152489655615208 3.765911534656974 6.634993568189408
C 3.740647599326668 4.021861422414011 7.888122128558749
C 4.665830259304742 6.2103648951636234 7.63981573447323
C 5.168358401311481 3.9488617510905057 7.743368250878738
