52
Energy = -420.63129336 eV
C 7.139094459021425 5.958626784087487 2.9921508292668366
C 4.634145971928808 8.227166439255388 3.719421968062536
C 6.903542498805075 7.359133667613129 3.070456133595184
C 4.588096003029567 5.65457468219123 3.2176819523148965
C 6.011676667531128 8.296379835006228 3.6129987867662483
C 8.359417742344938 5.571350799212747 3.6831883499515796
C 5.417490644292009 10.453013392385207 7.4469841698475845
C 5.648396179182069 3.9782909218971776 3.8705105778527282
C 2.9595449603713737 7.186035960873774 4.28719136189652
C 7.415783365678018 8.238923578924904 4.005931844076385
C 7.813142820728887 3.2872095736295046 4.375854305576244
C 6.784494669486237 10.538556349205257 7.268893490831672
C 4.035019497656248 6.899305283179202 3.3595540660348524
C 5.962920095466363 5.152672730112008 3.0502466344119465
C 6.444734567895474 3.231026133693885 4.77288882651951
C 4.377959385242478 4.541359279542253 4.198673069649694
C 8.496266011595404 4.185958476570081 3.874507307922591
C 7.603218783331601 10.516512103777812 6.0734250359220905
C 8.932157522672815 6.480436486298251 4.629541749422757
C 4.822766295807562 3.8583688961275864 6.515158615349752
C 3.520054252277646 8.456721920223496 4.6644977929805185
C 8.110411879058947 1.6917017772131464 7.048602525829708
C 6.016964944527331 3.151793389915087 6.124316914259383
C 8.735289313409424 8.18639937971354 6.267678036388108
C 8.4179548836462 7.823193441662236 4.9091131346794965
C 3.9881425792791427 4.553573605875736 5.5419576207827195
C 7.017920927728089 2.724979009000993 7.095922724152052
C 7.854304110988221 9.95979248588767 8.07419567235258
C 4.4783174876935385 4.3503377343608784 7.836669011459956
C 2.8406292031146076 6.79984222100594 5.6817030022684865
C 7.877590741301038 3.5837924521969375 7.826083595885021
C 4.379902550051654 9.786844998097232 7.486062437959897
C 9.340958501793867 6.966492347834008 6.881375261566355
C 3.217107005083239 5.57069242746669 6.254841524074876
C 8.816916606180818 2.914269485225491 6.955700190381647
C 9.321274288390965 6.519766462556157 8.237833423669503
C 7.812294733150331 4.464182634923765 8.913154601289067
C 5.237420236636863 4.35447669483767 9.037191326506871
C 8.27761683836204 9.410668450096237 6.77999176670047
C 3.1795777578645508 8.193807131078183 6.083536958149584
C 9.529927150935713 6.074178873007472 5.836010989063609
C 8.351537645146461 9.96130409627283 9.335834807933246
C 3.2402551805497897 7.747546934135721 8.361516552736536
C 3.5262937086528177 5.398258286975611 7.6582483436032085
C 9.107169466541668 6.7691602208270965 9.613551368251764
C 8.751784357990864 5.530586240873753 9.042189928689732
C 3.5020191044191487 8.709480321111132 7.349764677815182
C 6.5222405299370125 4.502622824274399 9.512730515957703
C 9.075932226268163 7.809517948993857 10.510482432183066
C 3.246010080680173 6.515163268534875 8.449121575958737
C 8.767539598685197 8.992102353973163 10.065017510517167
C 5.431837747349309 4.754912988028549 10.382908480443756
