53
Energy = -377.60524883 eV
C 6.100989800891453 6.137503941543897 3.580095996963486
C 7.478166286855047 5.8794325058509544 3.8164473639462058
C 5.629282790548387 3.9768643258286813 4.941041652313348
C 5.62676265908063 8.833734543637654 4.162595651064737
C 5.046361314758616 6.159282302109189 4.560876405751837
C 6.914357726156996 3.7841725126669106 4.984627999132563
C 8.63196245637959 6.724246926881569 3.574377279141715
C 9.232579062149341 4.986268477598323 5.3102127473884035
C 7.031918896470867 8.870552459695421 4.192581182158933
C 9.405951288505761 6.389643386611175 4.834149564870434
C 4.7373398054077125 8.942636270202678 5.091043608206568
C 7.148226315220321 10.342362373131255 5.360048973292168
C 9.478733579947054 8.725610047775442 5.919202221361247
C 5.718997926616528 6.623856202964769 5.772002709436857
C 3.7656261509807023 6.617241738584046 5.52492766156055
C 6.241092739858844 2.9577482734683755 6.458941727478308
C 8.057018896035059 4.527224783977072 4.529483248807161
C 4.9337266134780755 3.491576518243927 6.303512338717363
C 8.368994484382558 10.49929097871958 6.015701332231098
C 3.9719976411470737 5.9308718239473945 6.721734963901625
C 6.289051971892818 7.89799418539633 5.557390828591827
C 8.574309621273724 3.191669477290895 7.549661660772336
C 8.79420477854954 7.4795145733265835 5.670347442213056
C 10.033425704725069 4.448168915179611 6.326766011118658
C 10.24146820027996 7.2077389801855105 6.007754174498327
C 6.557773145081216 10.363410393653785 6.75667546579138
C 4.117150330966336 9.075921034708097 6.204830700946841
C 5.371585168142418 5.671282233197134 6.866293645475562
C 8.138597316374286 8.137160985293693 6.838924446374876
C 6.684679845847426 8.453063745296864 6.848974423431429
C 7.890248724613954 10.747108504478721 7.341879587868807
C 3.5750377469249237 7.871079192717849 6.533933099221403
C 8.471356837009527 6.1415982209414794 8.785856683966395
C 5.625281599132889 4.750347519216154 7.934864747747314
C 5.837406916874883 10.193612543102105 8.80132656838896
C 9.132799062034543 8.981074303494593 8.98802307676118
C 7.15196245859074 6.731438299948066 8.744868935497728
C 3.6264702473947565 7.218034326255755 7.832019576776713
C 9.149092418780063 8.22372827701367 7.830583834697087
C 6.078371269653057 7.4120218894307 8.21810448822825
C 9.726713184455248 3.5980189269509957 7.315882438030708
C 9.652444800239373 6.865538274210777 7.876952271647246
C 7.201641247673634 3.203192641386578 7.302324049672033
C 4.391058953773746 9.666655876379476 8.89885358809115
C 7.0105511849633295 9.757311628158822 9.225649472482846
C 5.433172500691719 4.554317527718658 9.211216063748767
C 7.929261338814972 8.722602177881452 9.686008004611546
C 7.9884651176249815 7.203872349484336 10.02530162040261
C 4.638371285229352 7.152114370160171 8.841287867632124
C 6.490537084657355 5.1759089580513296 9.917387705321875
C 7.9378168601757375 4.739330461059294 9.697596887392182
C 6.632363269957259 6.550147760690022 10.223247598970534
C 5.424130712998132 7.531788394569981 9.802495746169733
