54
Energy = -422.71664092 eV
C 5.576320463993645 2.6734081157878005 6.518326363569117
C 6.136970710561013 6.406126456363102 5.472864329763992
C 9.932086310457263 8.049733748392743 9.894070077722102
C 4.350035895286938 9.699510722196957 7.9777835392642675
C 3.7079736547578017 6.29897678260178 4.997874676786396
C 4.658588189106418 7.291118219068781 6.954745834746132
C 10.418651162209242 6.279479243500755 8.002580274816397
C 9.270540100450551 5.2452071645093445 11.132155981377288
C 7.5268040697831 10.296286298208482 3.451438295160686
C 9.619391885018278 6.330616995126853 4.759984554851541
C 10.757170718743705 8.743625525283528 8.855433178731333
C 6.006080163094865 7.780269182144816 9.837229735105145
C 5.195436816649669 10.390856651055536 4.942128217292739
C 10.055172450822287 7.303669059712063 5.778128609595664
C 2.943643739937897 7.394563789279594 5.365535037873121
C 7.890375641762541 8.025824830904597 5.143313763638146
C 8.25092321346424 6.655646712581513 4.308361331928247
C 6.007043102718227 9.082648694691684 9.296051475963965
C 6.562373565959609 3.695124935028204 6.337381110444874
C 8.044382369882317 4.703300573392614 8.85821333761871
C 7.17579054377432 5.573091608427866 4.8446356369133845
C 9.855494612019337 7.600552793447049 8.492120652013567
C 8.940907417526338 4.34975434123344 7.750951800403097
C 4.356881485604246 4.84415793199551 9.088933318481887
C 8.60587580220614 7.864755698866044 7.623801305065025
C 4.895222150282656 8.726493607686832 10.317742543301875
C 6.3019896520809 6.008992089991642 2.598275579348487
C 9.896109352009425 5.312952407562049 5.736872021112624
C 4.184373910093164 9.168334004678814 9.249065082635608
C 5.607371342533271 4.605400012211802 8.589612380143645
C 6.752945703524897 6.809796050840437 9.229902506188601
C 10.799521931062621 9.115006205773042 10.231388340472364
C 4.165918104788609 10.209260828081735 5.6244150635774455
C 6.769303096245485 5.353349746749962 8.957426381822817
C 7.385931007357504 5.980399180715902 3.34887180713847
C 5.750294609371211 9.340677372814074 7.920384914147977
C 10.578080978635237 6.251349848655679 6.643788419625718
C 6.634497703697267 7.634087970330615 5.805307051624623
C 3.6724672276941006 9.45862281581014 6.711945691467323
C 8.873076467733554 4.477531645373993 6.314568399838771
C 6.415513736078288 10.152129858155387 4.366575497955075
C 6.084904258915879 8.062546025325268 7.135184272473817
C 7.499147732193035 9.283420024920988 4.413452892978979
C 8.987984656597604 8.073874656134175 6.21522656232991
C 3.2020909445849326 5.127053605638959 9.562305805646535
C 5.8037930709300385 3.676068667593838 7.481127083063159
C 7.58417452955093 4.456385452752211 5.699291241782778
C 9.137286693596751 4.993393968741966 9.848471379623476
C 9.870204341746053 5.087964332597175 8.562759406857952
C 4.800247304124275 6.278055302087292 6.004303534490339
C 5.023418453200905 5.718813766198627 2.909605576168819
C 7.317660289600215 7.53338402717792 8.019766717876312
C 3.4805986420953956 8.06662994488783 6.496896359899549
C 4.073804666259505 5.85256714908573 3.714271689653309
