54
Energy = -431.25429408 eV
C 6.2709796280597665 7.275114162439181 5.452610838077368
C 8.51698211380486 6.7272528999917425 5.992307064676229
C 7.601055359254508 7.695810276486841 5.172160818694185
C 9.879500914248563 8.687323716044975 5.88244099827201
C 8.369474326546925 8.988941568613985 5.694529263591382
C 9.994917656402441 7.184156604602413 6.143485371081882
C 6.269767441995774 6.0339365651886085 6.257806850230553
C 5.232015214049617 8.147973547009814 6.056267128124835
C 8.182895877663997 10.375773931271562 6.283589128673295
C 7.6092741861568465 5.721161673684393 6.6786586015573715
C 9.389193590566371 10.61427595263288 7.141545360426009
C 6.7395703667537745 7.65920414019433 7.958489001299318
C 7.126419742349044 11.011239335093629 7.002491535865495
C 10.516613041212123 9.695384490630763 6.738707663675823
C 6.15231683067852 8.617119801496836 7.107691563391627
C 8.740318594056307 7.961934966726734 6.847916496761263
C 6.30750339995371 9.96000546454767 7.672046094499743
C 4.580691527681453 7.453643158043349 7.215536394235751
C 5.313675231770848 6.174619061124222 7.352228823423298
C 10.884618452268265 6.812005696422041 7.241319357620571
C 5.045480123976036 9.755567713965329 8.532640792209742
C 11.76712889622632 7.803049526475588 7.784790276597167
C 11.341468435342275 9.232454551911102 7.799046306081216
C 8.95386178360836 9.731342930490605 8.460309966689989
C 7.6177423436023854 8.229649396194878 8.854784908581161
C 4.433150366018771 8.319979151577169 8.417483336436971
C 9.090365905914954 11.833322398098034 8.027711776053009
C 8.957962169811493 8.238777336188997 8.250824260953452
C 7.688065460274706 11.895913845894267 8.025045411394423
C 7.637208502006862 5.662791660458379 8.114127511821044
C 6.28426883431731 6.315823600118915 8.531523177494389
C 10.400494850323547 6.082192352314944 8.555618133073995
C 12.163145187434948 7.473919675637831 9.103536423668816
C 7.456543090409331 9.68783541852692 8.730708190838161
C 5.110844161076683 8.12239082637187 9.729752570206106
C 11.489078007390003 6.315706796494751 9.626187372693362
C 5.500942311707169 9.600500365857028 9.85412574894676
C 11.244809595096868 9.676914108556282 9.197767965495123
C 8.840271542779035 5.789303647308901 8.952409461614245
C 9.508968112507484 7.168760947393601 8.991297854028044
C 9.108597240032081 11.537866882407744 9.559443619546952
C 11.862525481896444 8.634077597530318 9.968530561556635
C 7.702017096606579 11.53678030637636 9.65938855178598
C 9.807053294810311 10.19514450969539 9.722010443544473
C 6.050086543470807 7.077663369827232 9.904483400177085
C 7.49589355697062 7.651778731047617 10.252636348982657
C 8.75392308755144 6.689723917326403 10.22080118428557
C 7.00061386112582 10.158933313973689 10.072551766826244
C 11.146745033459567 6.594349165836007 10.97284757939447
C 11.435705686717451 8.104727914318318 11.209503669127038
C 9.231355076727302 9.312210476309472 10.908877608837697
C 9.782437619852995 6.856184896228175 11.272925279174085
C 7.8446976199767295 9.100153499980683 10.847700993489147
C 10.053204922018145 8.301771453573952 11.481218490730416
