54
Energy = -433.9793019 eV
C 7.408281397818113 7.766149496401971 5.403250045439251
C 7.337737757793131 9.290572888189073 5.2549234673360266
C 8.489178859577324 10.050334200079137 5.800725806744863
C 6.147643265982105 9.682669882826742 5.8895515758059584
C 8.542722557823753 6.755776939234954 5.496329304128706
C 10.025384069541126 6.805971188584276 5.8979032233161925
C 9.783029619444186 5.618432948373467 6.7256005483108225
C 6.071659800197455 7.340818698636202 6.091293970435769
C 8.4149603607882 5.461854565417238 6.23281918547468
C 9.467524422412474 9.07931662401523 6.409073597402417
C 8.272642483854883 7.936565801999927 6.684623593053318
C 6.6079334333463615 10.685663959041559 6.925139115998396
C 8.034984136168857 11.006476500568303 6.7424227826108405
C 10.681956250076125 8.10850226006536 6.107872754191568
C 5.373224271121438 8.532400389495784 6.384713729521049
C 11.836850631039141 8.410494646602084 6.876435768477205
C 6.714587351164525 9.635416886424798 8.048326954612104
C 9.78997984820119 5.412911793702741 8.142201473162856
C 7.548941243477954 5.424809342870278 7.366045816101588
C 7.499650856244307 7.322644152932648 7.711101937681634
C 12.214274448585273 9.19215329797943 8.318494733087327
C 8.56349876572035 11.343004070706499 8.083279370970287
C 6.358352308647069 6.394981681508868 7.317585047741592
C 10.07950666828121 9.55073653709204 7.6805094251723975
C 6.1630820577766015 11.053408863812136 8.327120027958486
C 10.097185309114664 8.25673924490347 8.445697232848504
C 4.691900663649247 8.718080938747217 7.707269765374781
C 12.326732002985324 7.82830690906956 8.078380821029675
C 4.489135987957792 7.625518390446342 8.514258050079247
C 8.387188260091527 5.271099956237206 8.61836688717159
C 5.362131280924828 9.754297260793823 8.690357390790325
C 11.276596767105527 7.251251952806815 8.972170183084431
C 9.80351467361592 10.688429536245561 8.46543813151765
C 5.3957736218326895 6.448864374974495 8.482358042481547
C 10.538404852638825 6.0051894147426035 9.178587978731208
C 7.492023966113314 11.339299080650406 9.063051395154755
C 7.738013864442057 9.16181278145258 8.9188823137135
C 8.321604301756036 5.80831681077333 9.976362208283128
C 8.885481357129205 8.29893363142738 8.92134578377596
C 5.4915860791618325 9.10829612014548 10.062586527658983
C 11.394606170453962 9.405554459290846 9.686237837230838
C 7.659168230831836 7.665760686276782 9.070999130104283
C 10.257696558553599 10.302975536821373 9.83518028954605
C 9.664822221206379 6.284997984803267 10.28948784994503
C 4.953036174808226 7.852056065587473 9.88356546923306
C 11.199840648045987 8.08036647399891 10.24762642471106
C 5.784279487927 6.631535691208309 9.858457503429285
C 7.766300465510121 10.221177323601783 10.141811159642272
C 6.773809821330604 9.273121822952845 10.78860285195982
C 7.231293870279727 6.859885665463364 10.290071892665098
C 8.993436977998659 8.540376825179878 11.221921369762034
C 10.053683571411506 7.580017880589567 10.948515567308858
C 9.153322988348842 9.892827739189931 10.66499090071724
C 7.554698202050051 8.147697067416233 11.224931029671863
