54
Energy = -440.01714126 eV
C 7.80862992305747 5.912889403577975 3.5085908299174333
C 3.367397703507279 6.4229192498653385 4.230571927072204
C 3.2475505969432925 4.001790415200063 4.894709104884203
C 7.9364722080022165 9.25643162836492 3.5738074183893014
C 8.710626612344601 7.047918933707798 3.4400252598092007
C 8.12773987305905 4.6660428209920015 4.2882890433470005
C 3.1509781702790347 5.18669498842302 4.330886016917147
C 9.310122484194453 4.429844613528083 4.946461381119163
C 6.444475019618719 6.281691210924366 3.868203233098094
C 4.239265452173666 7.452538807389316 4.238928934908192
C 3.8873551429383353 3.3616878202883846 5.772162812467095
C 9.422457237865807 7.173162332402812 4.658346760265693
C 8.402952278912839 8.321026035733576 2.8747689138736177
C 6.958284469261379 4.2538852020623015 5.091444381351526
C 6.904002580058462 9.637668630429678 4.4223578973821995
C 6.279610196778988 6.253762611607271 6.372719300763332
C 9.319303949176092 4.357469484945128 6.382878031711303
C 4.509912466755942 8.750190697721978 4.851446412069068
C 9.399419833377308 8.038222262584368 5.731981749617186
C 5.623966825517315 7.447590113191706 3.7078281210481476
C 9.57198631421471 5.671374414158655 6.920423801063094
C 2.52230518197292 4.52020378323686 8.445283880925063
C 5.773735824792529 8.845809504983057 4.1154539429019446
C 6.184095613847318 5.445347500146056 5.061263657396233
C 4.493410585663597 9.392571569089483 6.081140145210871
C 4.5273617896836775 3.497308516405926 6.977780812182757
C 6.879026246234399 10.153679701590564 5.8221539373538205
C 9.03186109464804 6.599827663098095 5.914592230886752
C 4.54617088463059 7.4968353203245215 7.8827615891219205
C 8.778866879492998 8.66686894530292 6.821628367699105
C 5.623920764776241 10.291719328430151 6.417905800375108
C 3.707328089813486 4.2914088585998575 7.940222476661746
C 7.039153744539487 3.4763909106161286 6.294560188348358
C 5.155416472823624 6.389320209818508 7.3276490295582235
C 4.559177158368319 8.868146292705736 7.4440065486288765
C 9.075634163804308 6.188608091923364 8.128370038325299
C 7.75859295770128 9.643727793288676 6.9118653449364835
C 5.620500390143002 9.769771731682548 7.79575625302646
C 7.569845651684802 6.735770972675011 6.578808856908026
C 8.266614035979659 3.70065440982232 7.0622489537091395
C 6.938795183261165 9.343854111091124 8.09104353738547
C 5.937812337243839 3.4054670557211795 7.224919524095286
C 4.553459392277598 6.792164283985251 9.182601481723797
C 6.4687783563906835 3.8042090054619746 8.507145198880279
C 4.626868399966659 5.382059639067771 8.550991785182985
C 5.570814803753788 6.8754444899632645 10.134910690277561
C 8.347091602903207 7.535636513120463 7.81988866763406
C 7.407562165782129 8.169261459541875 8.772205969776975
C 8.35151792849258 5.327214586898424 9.024952755065204
C 7.880746374108759 4.086538165023979 8.408736628209299
C 6.187751758828306 5.530151995219955 10.228716977591066
C 6.958288887505569 7.358514968636019 9.803375538604632
C 5.6699860482288225 4.640121256480891 9.299696217186785
C 7.50920840593436 5.994798202265479 9.96474015647347
