54
Energy = -435.14918241 eV
C 8.511512094702915 6.242236789920591 5.940326934406461
C 7.6515623415091065 5.344938478999945 5.071038118250014
C 7.0438616292373695 9.000179145331217 4.577554358585266
C 10.43847551936519 7.5959485788842 5.194079592818159
C 6.478708918265354 11.274335617169385 8.007853946884092
C 5.41591288753536 6.190541755397669 9.228270076969489
C 10.325993182693644 10.277911866469363 10.438151761085999
C 7.822512674842282 6.719790453657373 10.414550302441427
C 10.063978464325894 7.821319915310453 10.373752010184115
C 4.984267140974567 4.926550267728363 7.115209707317197
C 8.863030863815402 11.487069092175599 8.874025183106387
C 8.665969282620201 7.757152241229751 10.8904408641073
C 6.97854676125223 9.818350476552029 10.477993020668974
C 6.81433269406026 8.056649337037767 7.250463727282446
C 10.427845130970905 6.880895776955951 9.353555227162133
C 7.6777221335449575 4.291331589882427 5.968157318571598
C 9.380496032664286 9.150519080658318 7.917433487838736
C 5.7919060825998665 10.082859944867863 8.21944876644493
C 8.244109000027354 8.179354255237078 7.724053550189318
C 7.406134372257796 5.593145000256725 8.249477337343482
C 4.2701506799877516 7.297162609076063 6.532500094598241
C 10.93537953935275 7.234819822465732 8.023469122057033
C 8.192311262091783 10.411839296770891 10.84721061044883
C 9.72149182626966 5.236780767789581 7.79299039937751
C 10.654069212673972 8.527540515460176 7.445493521518007
C 6.561229272094556 3.4717152887464806 6.171902241868712
C 10.677999270777892 9.08933554287076 10.563055684391292
C 6.522398441911995 7.108202414180322 9.759505298350085
C 6.706793997951828 5.93056514251609 4.212022505067056
C 5.927054388631586 9.543574220690235 9.560889407372272
C 9.259439682886171 10.444206622619303 8.123759473522208
C 4.395367085375318 7.928597461548517 7.780923276762708
C 7.263647419877499 7.158892760850445 8.329845070908524
C 8.36375617762278 5.145005447699355 7.105934200492481
C 4.589140240637462 7.4243569975472745 9.083270985392875
C 9.65646433916304 8.777965676753057 5.039268548967293
C 8.194033301805705 8.70051037557259 5.164795097225474
C 8.28421997267401 5.661873671728121 9.577690062818158
C 6.046118826082282 6.974140655062694 4.123011915376453
C 7.963456523153202 7.678450678050122 6.306063375990282
C 5.482675962637933 8.89866162132681 7.2323329716657225
C 4.988369488346758 8.377566225555706 5.813844641462899
C 5.50442174952875 8.203265358502046 9.808058620308627
C 9.251112376152474 11.18751689539839 10.297674373712287
C 4.306963161690931 5.890828600034533 6.446560526024887
C 10.712639448318878 8.68039917011136 6.061486856560841
C 7.579106248650616 11.778640426946163 8.344963218649859
C 9.612014485187657 5.690178398168254 9.134521223448278
C 10.028349850142806 6.407904768569435 5.79070487320819
C 10.564394283934082 6.132125691851199 7.088075874254433
C 5.841985224078518 8.26436216011105 4.707832350683558
C 5.840931031714511 5.317142356569838 8.289100654266331
C 8.002329636379855 9.040909533114611 11.0899831495717
C 5.396111308949033 3.651983371909463 6.564345359009558
