54
Energy = -432.0180152 eV
C 6.72210665350528 8.195387981662204 4.511460596034498
C 7.889005539322164 8.987145185983836 4.085804801172203
C 7.190461474354864 10.157016299194206 4.74870857650241
C 5.879170041948468 9.343647052792454 4.8982534491532626
C 7.102474382446223 6.9050134862016534 5.165217983657643
C 9.061312863118756 8.293716938854216 4.344858890926322
C 8.619615189738026 6.809818434783225 4.715239455116321
C 9.758057317518952 8.919455863274477 5.582422212542096
C 7.404056740070226 8.125127557654071 6.009784600990253
C 6.137405731007656 6.352696187627086 6.275200028141143
C 5.151133125757253 9.153227725742365 6.049836678588135
C 7.7872405945058665 10.632585841385918 5.916837409372742
C 5.268581204523598 7.690395821861066 6.759304081004976
C 9.483330208929008 6.0719747350179105 5.47996724314503
C 10.690610109704032 6.711163307145923 6.116529719489075
C 9.192576930801431 10.254509643594615 6.263695408343221
C 6.166332183147032 4.973279382250536 6.97533720323885
C 10.828561002653721 8.127932946229064 6.287206707634527
C 8.706329580283624 8.315647177963791 6.513418807336695
C 6.982442042068583 6.219840473650754 7.648471191081669
C 9.17348111072596 5.335831775036844 6.724652512661548
C 6.569301549674147 8.355444377803503 7.137590170304233
C 5.832603238150605 9.759302573682106 7.279649753924692
C 7.025706821162332 10.723920413107896 7.167367543851209
C 8.770823025537265 7.746401137994376 7.760007599188675
C 7.902591952100435 5.018134583615713 7.432362933150338
C 4.8223658179278095 7.833172991144388 8.20799626481929
C 9.349314467986565 10.426217431032047 7.6919175073736445
C 10.291866796464934 6.0593408492589145 7.352773412526431
C 10.217527207113607 9.526264338600495 8.424864211369998
C 6.724036226780196 8.029776103643242 9.787080945852958
C 7.9749613567439885 4.460000110847502 8.822464874000081
C 10.808941197311322 8.432343738221169 7.69544648121867
C 7.975212059551642 10.657281971172077 8.241701393721975
C 7.37148494661786 7.60189807393023 8.24640676032713
C 10.18189553449244 7.206063192008146 8.335755073010663
C 5.188309800259078 9.226315768211752 8.55199493220315
C 5.837838266062943 5.46286645969413 8.429355540432379
C 5.069926976936894 6.635785420952626 8.98992705190272
C 6.831444512469974 4.990719490484985 9.490184247447388
C 6.132211471565283 9.443339858170852 9.706910786133493
C 9.751641710458031 8.948013122648312 9.715541037052331
C 9.79367398676216 5.081161901465236 10.449067274282346
C 7.587478609902355 10.102219142828053 9.478065049936093
C 10.023025444244757 7.520043326571598 9.790858243092838
C 7.697180269595563 8.210711480399791 10.947741685966111
C 9.126091934723878 4.490680869275339 9.56061256069381
C 8.502364138242358 9.322702733392354 10.254444646320609
C 9.420351314130217 6.4793421636785355 10.605705925050133
C 5.872592437005081 6.890193922765913 10.140449328072084
C 6.88149769394497 5.953575036819379 10.549043035822288
C 5.871466503385653 9.580765750323645 11.207882979588915
C 8.108531387916587 6.75909056857681 10.999743649419472
C 6.6912456589142515 8.891285620039694 11.876667886077106
