54
Energy = -404.81952395 eV
C 8.292401498842855 6.98137212144755 10.315284605147083
C 12.53060263699627 9.777461977764105 6.681424467708018
C 12.510853470053672 9.803223116886866 10.647023979160059
C 11.229232575987096 11.378537284496637 7.95129391057187
C 11.496233681842833 10.000027577111668 8.500613560479922
C 11.352253075839174 10.9148969024632 6.513241676158209
C 7.350869196464363 5.815167927217149 7.54078262113925
C 8.013981560554603 12.760171749265306 9.15879749333904
C 11.891416632140313 12.217917017261884 10.157355278913778
C 11.121472264113537 6.0757532922343405 8.25791462661128
C 7.316742966557687 8.407376039256283 11.828690942380867
C 12.925051813387974 9.907129683950533 8.146321676174832
C 12.190495895561682 9.199276029058812 12.213030733042451
C 9.054717821519423 11.788367796660745 6.922316224814324
C 10.142048584845705 11.326685448109021 5.988150560718418
C 7.1432627746176465 6.052420112020766 10.633885333284734
C 9.482191321169338 8.546474142768771 8.898597356369129
C 7.5369311899504945 11.4099865738042 8.968342171593198
C 7.081622145529603 9.152271722176454 8.790514275174075
C 12.756504888808042 8.409219446355372 6.607620927288732
C 8.605819582762312 10.819968046990931 8.066485852809329
C 9.174064200731326 7.143406777688496 9.263478112366876
C 10.981268176849838 6.995680849473299 11.471880569116191
C 11.301860612754313 8.167561003260376 12.1092606251513
C 6.480707153419074 9.42769205605445 11.825004777121615
C 7.013025418099498 7.0257860200286295 11.485798046733557
C 7.901244702329198 14.14186081413514 13.742940925898788
C 9.655425107349053 13.456328853761391 10.73444077944247
C 12.220388315701827 10.541651818362205 12.30649111524512
C 9.73500343607704 6.080694834044399 8.396089156814933
C 13.403850801424598 8.672063809538377 8.815022281563916
C 6.436606416164321 8.04311105989296 8.29770325918402
C 10.779444898809455 13.056488298967682 10.500181971385869
C 8.602422394243828 5.662001648283326 7.752608859000269
C 13.939648141797354 5.975407639035615 14.352341201940312
C 9.840484466683128 11.740001402564268 8.245536146124572
C 6.798850347962339 10.396444410171009 9.592102930666096
C 9.942622789258422 7.9715189100016595 11.713552081972267
C 6.517331346610108 11.857212333901462 11.505374101156116
C 13.102035666585579 7.6765315511204575 7.8568139189173785
C 12.19103654068532 11.115818904766247 11.022861597643177
C 8.497456602458247 9.35481079447188 8.302797572713832
C 12.248708207187848 6.5822673549429185 8.16669917470312
C 9.02716067681304 12.930130804341431 8.060771185581363
C 14.667886814162078 5.611481185997754 13.514376056517088
C 6.404938779730691 10.515604350842125 11.03201556338551
C 13.351701340531937 8.838104258211828 10.211838054504717
C 7.382129288262754 14.805302479071818 14.747193211485861
C 8.6680175613052 8.192501853374146 11.276276751244739
C 12.277130537138687 11.93652093286228 8.813241262886063
C 10.687507687812568 9.152150843939102 9.060816818649544
C 7.280115419815259 12.808228456703677 11.427948060429122
C 6.634436590048508 6.9056907090778905 7.753593301511858
C 8.263293131784955 13.230900480337219 10.481348889859333
