55
Energy = -437.707798 eV
C 6.631117610385284 8.68270927343576 8.836839550769024
C 7.799941848765629 9.562629593280318 7.084176566167234
C 7.915737119301352 8.787027719418662 8.285630978837892
C 6.9742509806927115 6.561770752226779 10.016250028184928
C 6.454413883872231 7.67216669340974 9.803271411586527
C 8.503237531282071 7.617160721774556 7.3583657575726305
C 9.510546123729558 5.440624251261086 8.115508092413378
C 4.435739161872191 8.618150911932563 8.038555349737228
C 5.667657102796777 9.215527096019093 7.8305262386701955
C 6.405381403546673 9.379713178465641 5.193005813558794
C 6.4486128283893915 9.704613782031187 6.633895673398751
C 8.71038773679771 8.763985022210102 6.37056813286867
C 7.38578927274365 5.269487592360679 9.707846431875444
C 9.533109391699728 6.509016172494079 7.168079548796233
C 5.937501958015048 6.3666557440117995 6.544804831731038
C 2.0602091486895633 7.2897124725379525 4.937937546091774
C 3.758609372702424 7.646557053056008 8.5017952026491
C 8.675520745848702 4.975827304637262 9.21563341668439
C 3.407066877905587 6.373520394244238 8.456491713803972
C 8.672883031126124 8.470462550054794 5.031266854797924
C 7.166413661127409 6.713881490244234 7.038340255139087
C 1.8164587672362826 8.668157604342165 4.8863508262860815
C 9.737934475399218 6.262027310890259 5.764997734606178
C 7.5725710566578615 9.019139323042875 4.310985385814041
C 4.686673750201799 6.5865085802958845 5.854049845559633
C 4.480353160993835 7.8007035311926485 5.121323767736935
C 5.658399302904963 8.373172011592748 4.5857773138598406
C 3.1572045442275942 8.21254808895519 4.96901710815731
C 6.439140643750667 4.659097065638141 8.744297567628454
C 3.3680018191130014 5.157105589932707 8.059682461104899
C 2.398395349166182 5.936921922992418 5.1340441175186555
C 6.606912215413307 5.408659851121066 7.397565456453107
C 8.938152603701088 7.068411977092874 4.815390960096536
C 3.5783748264757196 5.741775534321425 5.967612438549449
C 10.260040821234245 5.022180999096721 5.337807259217452
C 7.82453423834199 6.62883957931629 4.115169787582174
C 9.908338632122675 3.8312008434007816 5.508580644293557
C 3.6682555075370624 4.557888953844189 6.836062511751182
C 9.091483710801212 4.120571865493333 8.160493754641307
C 5.818414013622258 3.4286534952925685 8.481294416443456
C 2.532518310252236 4.93096444717246 4.2051934436538225
C 6.773671236028806 7.708494764241664 3.700483047065456
C 4.988727795572666 5.984908767043346 2.5946244938767693
C 4.2916346473370846 4.9629038127915495 2.8711860851380755
C 4.462551383961067 3.502400882015122 6.273339352955813
C 6.912752955059938 3.814908568507375 7.143560997201357
C 7.169389068451332 5.561111678662926 3.4684568893344507
C 8.31198259662331 3.408812429375284 7.107640529130371
C 5.573445739856942 3.2097703970612392 7.143538513720724
C 8.939865803467574 3.0089810872662666 5.962379896567496
C 6.2346161688107005 6.527107895638078 2.772681309271302
C 3.6646990674625894 4.208500057505222 3.892319739578012
C 4.623986556579976 3.4819661861005127 4.8180014202105275
C 6.823316350842144 4.285500150403249 3.8118277066450923
C 5.9062933033284235 3.5721221930812788 4.288691036843175
