55
Energy = -436.49333208 eV
C 8.183739839359228 9.430988392778003 5.396781855554605
C 7.998637283672605 7.843702387331642 5.514201249678007
C 6.481101595101661 7.673025047573792 5.289763660730888
C 5.886963963087114 6.4615599299094555 5.471241208475507
C 6.123505233842454 8.81251029065174 6.303285627335309
C 6.97274038435204 9.99485067733093 5.955708673492505
C 10.182810305009715 6.604136354636145 6.439152537143426
C 8.889469227815445 6.498316378438779 5.975000653149174
C 11.01457581508945 7.835960581676024 6.1422656090759125
C 9.30111454906419 10.163871839085404 5.846387544062993
C 10.583342340039572 9.4439918556996 6.023441641118969
C 11.410939696541995 9.680333937744278 7.282914776502644
C 11.73466935368245 8.217495317217297 7.448430041421757
C 7.344829726351568 8.045048311805653 6.881909129298439
C 4.88901686066317 6.432044861527194 6.576757438048061
C 6.589919815535984 5.240189687042195 5.952921650689319
C 7.8901740745367235 5.615838349233637 6.773346556317047
C 8.896666451387143 11.081729252781864 6.907785233383873
C 7.347000453402485 10.882354896924726 7.059325052823799
C 5.203174705330141 8.760286721564126 7.528083640813825
C 8.01812576980203 8.783977716949416 8.02483167277749
C 10.575207551242983 6.253947610178942 7.942174104331135
C 5.512662948002826 5.072953145969244 6.929416174426139
C 4.618323740950826 7.478348155865527 7.650780302703687
C 8.134709629242666 7.442447680801754 8.622248838518134
C 5.863443072401807 5.985590749368764 7.941221812767436
C 10.269805736207836 8.595648580838517 7.166447010037983
C 7.241421939276458 6.711923641965723 7.644342903355566
C 9.676611059309474 11.304938638756166 8.075853927774316
C 6.387808370877901 11.279183938978665 8.422484727595293
C 10.92527810449546 10.537708287759465 8.331840532190038
C 4.922818358907945 6.627524624052054 8.83446875597919
C 7.249478163970202 9.929776924234384 8.312454241855518
C 9.365338230754281 8.397912549183829 8.225969858463849
C 9.650462253758672 5.446188178960071 8.656118617924768
C 8.399299003430095 4.937108874354264 8.131556701624069
C 5.815277840503317 9.574397336174066 8.684055727894291
C 8.960772946585896 11.337326161051486 9.334255900449705
C 11.323107101400698 7.3241774606027725 8.588328033276367
C 7.75618867609442 5.088776616123361 9.527392103070273
C 10.403080618459077 8.366489404249025 9.4604118171354
C 5.557573783802054 6.68451226132529 10.038466679878594
C 7.5499255947112935 10.974551814626805 9.42796133048341
C 9.09457790131708 5.609425327387987 10.038755180591572
C 6.739335909334299 5.786393803087511 10.239792533474123
C 6.071713063179625 7.822390907416256 10.773272730123931
C 8.290949247914348 7.362870016672142 10.006874991904944
C 10.796623409237105 9.870394022239143 9.581629409065831
C 9.63428609274491 10.435017122007384 10.213621302202338
C 7.398454937267182 9.89318685551226 10.47014406860228
C 6.2281009155684455 9.093104014798543 10.167038134000405
C 9.370556101252578 8.12784392607434 10.614652315534698
C 7.370123147394143 6.883520311814949 11.021864473885042
C 8.747982457551984 9.51481558614507 10.862385703829366
C 9.025872115616806 6.617080149954068 11.137871069589043
