55
Energy = -439.43413043 eV
C 11.115555759131256 14.365801717626985 14.78591219576182
C 13.542661454159814 11.738846701112951 15.11443006010625
C 12.28567501661512 12.404064817995025 15.392908235837396
C 11.03344142865028 15.183060701363907 11.640823552816979
C 10.833777548394185 12.049997734520154 15.458557336478014
C 12.168146659487292 15.66090868012153 12.343677896081994
C 12.881228705409972 12.999421863596137 13.41725690480383
C 13.819289991122275 9.481136811901425 13.721066382247296
C 12.36302946398744 9.852940791105883 13.988740370397755
C 9.37140777704936 9.427773409653826 12.589412819832893
C 14.121394777426858 12.358048263339441 13.896195027744188
C 15.318460040908048 10.835224939829368 12.247489305226917
C 10.022334222344018 14.154810524472634 9.560456861217363
C 11.733669847820734 10.79411155658466 8.757998145640295
C 8.317748884112193 12.855547783955863 12.338873656502818
C 9.225780413225735 14.027308085249722 14.305935824352309
C 8.49457130831292 10.482106764934457 13.136603358533273
C 12.343854495433687 14.05066935173333 9.510086376814431
C 11.117301658131458 14.671257905837022 10.296795208588696
C 11.776210292555696 13.165417534909135 8.49494391645527
C 11.57421072476138 9.794575539957405 11.629800570702535
C 14.509674970091876 9.64685474154207 12.508012912870784
C 13.453701813881695 15.514183745832298 12.072553518154804
C 14.924575042751911 13.253630521767615 11.856234889893356
C 13.745644042003889 11.534310351557439 7.908074025264191
C 9.066349607948883 10.26402620500355 14.499124875891532
C 11.976471691720342 10.7304063843661 12.695029145029771
C 10.178929375676105 15.10053814039706 13.989795345142346
C 14.828190768184585 11.725794042932474 10.004310105160576
C 11.064997035154908 9.5943384232105 14.611644161141772
C 9.924227113359551 14.987167571325239 12.568879865642396
C 12.26023285246187 13.64590941388605 14.58151683101001
C 12.419106650769404 11.918843780415383 8.08098199596213
C 14.559936612192606 13.000558550825668 10.465659901930845
C 15.507255801362579 10.795299764210167 10.808373924525737
C 15.042948929010377 12.134845102300517 12.811760555761182
C 14.03729001546855 9.200781475553091 11.158040530215892
C 14.090839453888606 10.68811880219241 9.126593918870388
C 8.892062978472449 13.975065428205369 12.847560300853836
C 12.737935535821972 10.198034941315356 9.533275887913952
C 10.179421760197398 9.540027189231303 11.41416179710839
C 12.256163746884035 12.030831656161936 12.658393778398873
C 14.66621668765648 14.681427104696711 12.042360118093033
C 13.680360227639463 14.089666128923312 9.993266130259935
C 9.898905246673785 9.213491490845906 13.901589898852556
C 8.096713275199368 11.646467000329672 12.570360778423693
C 10.375269687620834 13.412762491277924 8.582810734347381
C 9.909585982254317 9.830262509662697 10.06583493465906
C 14.077089140034209 15.157770244468082 10.850226868678536
C 10.13672103262365 13.329418278845626 15.195657294920618
C 14.917083166420015 9.685004199504506 10.124562247824146
C 10.455140366181118 10.364479260327267 9.072668696850862
C 12.693351888734377 9.46171505435722 10.746702854754702
C 10.31267753765445 10.756193916896192 15.180327936396935
C 13.520136994965476 10.393702107832137 14.700646733053832
