55
Energy = -448.03197809 eV
C 8.554140230986398 7.760855958312162 4.46576568965853
C 9.67684503116322 7.0153557151305455 5.048261832383707
C 7.164737170351133 7.5139612080856955 4.51548276761547
C 8.752632160104003 9.171926855454558 4.784631213320341
C 7.509479189403739 9.755332559965526 5.26544500157332
C 6.502521578881343 6.35521486392961 5.1646079105258265
C 9.702275798291328 6.043602401096244 6.1014457717999715
C 6.442590829049394 8.772315203703998 4.9132930497305205
C 10.64355648235732 8.012403976461083 5.49195001205235
C 9.970818686869901 9.262877429383952 5.493171414854381
C 7.1417694560182925 5.515012651939284 6.435982704535354
C 5.335332031753961 8.516972428517445 5.733644969889124
C 8.580131778871436 5.437840755917619 6.870792259785986
C 5.387923750834242 7.023531383642667 5.983657733694893
C 8.651316018243959 8.740550869233632 7.46536247178068
C 6.841990223797254 6.939156726806782 6.523118682484759
C 7.466322461809475 10.431609602731623 6.5019403041242105
C 7.343036714121438 8.008658229613408 7.340297509637148
C 5.10262201261305 9.352381254522285 6.987507416838557
C 11.176062651562852 7.6918160983018335 6.791841166010574
C 9.865721007161525 9.595019309550969 6.927724145415858
C 4.997090896180053 6.307304461871855 7.211445030050623
C 6.122090245502324 5.357512791025068 7.551570026763713
C 10.690152929246219 6.3885044128421224 7.128242692953577
C 4.725595363296319 7.045178481117478 8.334020163097614
C 10.984498532687619 8.83088708273261 7.665628400411478
C 8.230963980906669 10.768754594787135 8.871123130642962
C 6.315230692193856 10.281827524067968 7.474135909692051
C 4.913846828947993 8.539392854671435 8.325359920791096
C 8.630326812246636 10.309127561955593 7.47848840654601
C 11.063612421098297 8.885221466882662 9.02636340954712
C 6.270086345018458 8.827018186069147 7.7529905282912
C 9.094767306498074 4.738264691875057 8.273293037721675
C 10.153238895654944 5.923252696267314 8.43335735556103
C 8.668663578325365 6.277089425382364 8.143783836289726
C 5.574897354616649 6.575115608751856 9.425586251022443
C 8.335911304348686 7.738243127926808 8.44128838728685
C 6.7904023007166145 10.712869804883164 8.907717282560208
C 6.511617961654166 5.546518315536593 8.917076861286796
C 5.250042568963348 8.90892880602246 9.752877840943187
C 10.370546751172611 9.763036265008193 9.956618286213725
C 10.865447515100607 7.744455207098298 10.04040789960795
C 8.009209447623633 5.427719096873753 9.253642907352106
C 5.704282267537268 7.664226699344144 10.349683098047743
C 8.040786984585257 7.637440436935919 9.881782598703888
C 9.0812633672792 10.42524414997779 9.991352228451488
C 10.204595864921203 6.541609956617725 9.80427391598027
C 8.71934869949859 6.37511008587368 10.34346478482518
C 6.182862384566643 9.99733683396787 10.02160585589489
C 10.41052238417141 8.730819897099508 10.997672539542922
C 7.079343826933756 9.518960256845514 11.009563258160421
C 9.179039592333892 8.677978950324366 11.640732863482878
C 8.344652942879726 7.474739843326585 11.390361226303682
C 6.998741964948741 8.02884748064992 10.956746124273273
C 8.416612796016949 9.857185835005405 11.183938285906121
