55
Energy = -445.33402283 eV
C 12.407998661873318 14.11202741020892 15.08407727821257
C 14.185338658969583 12.461343490463708 15.490739434648026
C 12.82209151134602 12.918716599298676 15.720983950705195
C 10.334786439085114 16.009966194426152 13.67095659896332
C 12.026577643362579 11.694441909232522 15.86694267603852
C 12.951966349337473 15.690528197745454 13.159955747671546
C 11.618672937077166 13.437696222559516 13.008711827548181
C 14.210599381450253 11.015581742077478 15.349541679969363
C 13.609726497640725 9.105662118919104 13.097198520520136
C 10.140991391038634 10.624484837865626 11.315963077722326
C 15.085112119606334 13.058186503581773 14.54499878612573
C 16.103196329463476 11.694585605728228 12.515420593822045
C 11.854042753871623 14.661359675171253 10.21220194527542
C 10.70917362109988 14.820643798372771 11.020271920815938
C 9.135656314858547 13.000707020937774 11.54565250560211
C 11.82424832741288 12.192142183494521 12.492559799064173
C 9.1169892107665 12.249491683222763 13.907039759104723
C 13.200911140227074 14.623585211082071 10.730879899070402
C 10.981786446249135 14.726565024795365 12.404609048619195
C 11.587659956113901 13.565608030234205 9.295865730617338
C 12.480024204799223 8.839335267395848 12.329115629397668
C 15.087936694092884 10.70888540317486 14.260386219813478
C 11.575558610331397 15.974913294256764 13.126810135117958
C 15.535533007669246 11.690255128081063 11.214746917608384
C 15.019168968017524 12.949235223161454 10.692583027320461
C 9.758618008588147 11.488329704957144 14.668945470371455
C 11.097024045815738 11.232822474712762 12.153340792751845
C 9.962710268247509 14.46899177996253 13.538513762210915
C 12.518609652520892 10.147864391995537 8.999879380973665
C 11.902102923432022 9.872174970285192 14.842528381496157
C 9.705799282474356 13.904285291000383 10.608354330082117
C 14.686996648987686 14.283517428909573 13.961527655976603
C 12.838588975075066 12.76342067340276 9.21396399422575
C 15.593957413936392 13.76965992111111 11.684547724119444
C 15.472500685983846 10.510088527038748 12.009363355095193
C 15.752301324516282 11.921999688848427 13.860550060806542
C 14.79785738698437 9.858679386668193 13.116904601291791
C 13.02340881792144 11.438026430686138 8.867681239729247
C 9.080615860171227 13.288091447528739 12.984432617828173
C 11.031004219399266 10.029557280210158 9.143577307413615
C 10.83098543975675 9.63631590560489 10.523362649466025
C 12.911355198181129 10.583305377533387 15.597828947051925
C 14.865805838987816 14.546571872025401 12.539114623588251
C 13.815797561820329 13.442191730855056 10.093180195687298
C 12.33632601185907 9.160819793882412 13.725592911338813
C 9.27126013156894 11.660377938103778 10.827088531303083
C 10.196586425435546 13.220926920423429 9.431191373634555
C 9.59970959051074 11.912412897240856 9.409213222670456
C 13.682548085180569 15.161730018145757 11.991601251697888
C 11.186970920044763 13.84535375901629 14.270791483956394
C 13.069470800369944 9.3250824394553 10.000098680745314
C 10.197442875610815 10.972420860418014 8.605020927367383
C 12.102411549293492 9.073462507549591 10.999565487262801
C 10.928697317598704 10.993545342664202 15.189465890794573
C 13.394449563966745 14.87968546427576 14.302220439688147
