7
Energy = -51.35411323 eV
C 4.634956267695084 5.092547343332995 5.5754654164281225
C 5.724494933634817 5.816695195414576 5.135922753159013
C 6.80869401036126 6.554666036839603 4.783712857092147
C 5.285109533930094 5.6185844692230855 6.691118196704651
C 7.243786945632496 6.948108886557176 5.9697715232944475
C 7.222920398147849 7.02724887074994 7.302430280892749
C 6.1029128069807435 6.247613585440185 7.4791968277129985
