7
Energy = -43.30655948 eV
C 9.47911160150572 9.479305902516654 10.335034401720565
C 9.479208608051357 9.479305902516654 8.623577169708016
C 9.917685663275579 10.830088847064598 9.479333559372595
C 8.330988333206438 10.314945769087815 9.479232125142289
C 8.3309963835422 8.643653557925331 9.479232125142289
C 9.91769733626243 8.128525775586496 9.479333559372595
C 10.899449976672818 9.479312745302185 9.479396754508176
