8
Energy = -54.9086442 eV
C 6.334372932560746 7.461756107291161 6.299808065529757
C 7.396361126971814 6.336500616486131 6.27448002483611
C 6.404525690161366 8.972972084003267 5.987630514082965
C 6.787161109591299 4.024378773554655 7.331746703653799
C 7.362860362641975 8.569640397386834 6.797287636429264
C 6.361684617196743 6.675687453296179 7.630584310234937
C 6.716689202817931 5.314562273225006 7.151836876188888
C 7.761966607220935 7.374356058461773 7.4010782843682
