8
Energy = -59.17748335 eV
C 7.19274934988615 6.7818576157538635 6.555755669424459
C 6.595626538153573 4.5607972316156795 6.760940065514377
C 6.370729127995469 7.520506445438663 5.849203976773605
C 6.95735727872736 5.7274367740606476 7.32556525707734
C 5.678281989087702 7.1819367253975 4.763061115363467
C 5.370859904659969 4.467721803591626 6.243014275976305
C 4.8984377544955935 5.045869517757715 5.168087491143354
C 4.653577795124343 6.323581158707402 4.904989179159039
