9
Energy = -62.40421983 eV
C 9.86429618857163 7.79857261374519 8.313617091757635
C 9.03360312487622 7.744895973868933 7.136431011906948
C 8.569579561088064 7.1876044912916175 8.480181357399651
C 7.743658005274697 7.1635212009052704 7.317294094776073
C 6.56488485305824 6.822833613932161 6.7701705997602115
C 5.79153718828435 6.8589252239688205 5.51042035081117
C 5.250888249022985 6.218213069261252 7.065460013803178
C 5.0622553805824015 5.57823661510341 5.732426213718589
C 5.031125834027531 7.6604592811091665 6.576848486547557
