36
Energy = -74.86979123 eV
Ag 8.96701580182696 12.719835573950311 16.76954872582718
Ag 12.193295634394518 13.9009532292135 13.749557533468463
Ag 7.983018935225129 11.926411896151963 11.752808899316022
Ag 8.656062064839947 9.105340934802951 10.965665561365489
Ag 10.238917472120248 11.768092595709394 13.600337324590807
Ag 9.234961450052062 11.924190439804297 6.53670394931187
Ag 15.505632832362645 11.159061156511028 11.16496542576106
Ag 10.922390659064614 10.44283884095261 8.11261218410888
Ag 10.511157635728589 11.217823124139718 10.84629588758559
Ag 11.621031264278967 12.481805785750138 16.05696078847619
Ag 14.507427543915549 13.658739948913455 12.336658048644196
Ag 12.407444434546127 10.119195608172573 14.82479179159014
Ag 14.55765372759132 9.959454818028695 16.481984153975755
Ag 16.805953255610042 12.434684466304189 13.313397910081965
Ag 16.80118315992999 13.709549074839336 10.774838451731767
Ag 11.414103808990452 8.606861326124497 10.36143343494532
Ag 8.007056720201613 9.720316766221401 13.598967756392833
Ag 10.211582703233036 13.225067134118303 8.760913678329787
Ag 9.528122565819306 14.291843586547511 14.432819091019947
Ag 15.044011491952723 12.610769004193715 8.876887783991315
Ag 10.636302094119 9.01173935975634 12.98493744910606
Ag 9.746853470389608 10.187622983633538 15.806180331752925
Ag 10.279823235969593 13.99097953269898 11.608878448848541
Ag 11.669335195430625 15.461640516110565 9.12826876351784
Ag 16.85569083665884 11.229699757336768 15.762960388239605
Ag 7.5205032222753925 12.295750471838701 14.490631785462345
Ag 12.572638052868944 8.244647390270217 7.891487253996448
Ag 12.530203989109715 15.73854782462486 11.741005643987599
Ag 12.615112513888182 13.03830088858273 10.244884122436662
Ag 13.44349384941633 10.3997153677473 9.395026000426586
Ag 14.27431340171163 12.451294955038433 14.985271910359634
Ag 12.896668839005537 10.774704444189743 12.176258312329306
Ag 15.119879628742135 10.121512294218794 13.748426596458113
Ag 8.306357733752847 11.145071129468521 9.044204609385751
Ag 13.277773643125318 17.59728422657643 9.725685073496091
Ag 14.585066739241165 15.215018301541042 9.92199794090644
