14
Energy = -26.04184011 eV
Ag 12.602647076211149 13.141814642879382 11.486190627301761
Ag 9.665542103910694 10.061397635392774 13.663354867718208
Ag 10.496785114414955 12.636383394053746 13.126754034415631
Ag 11.635064409961817 10.514693577044875 11.668507289118335
Ag 11.285082264810102 12.003824697049298 9.376268987802996
Ag 8.961178127216238 11.317307674817807 11.157108205359448
Ag 9.705912351976934 8.52427942849457 11.372602693873809
Ag 8.716055820407629 12.578209795466357 8.623335594420428
Ag 11.507999394284308 9.21561870022719 9.175730813949954
Ag 8.85109023076354 9.859752128758812 8.819832047432753
Ag 10.540049995793433 11.261718265221658 6.854720633686451
Ag 9.05525930336008 5.911257620169275 11.488250201363645
Ag 9.351485515754584 7.103974367912543 9.05589473958776
Ag 10.178875339757438 8.503400380594197 6.80289826295214
