11
Energy = -19.63056726 eV
Ag 11.280956676399288 7.090432252554774 9.265336518631873
Ag 11.882593006195666 9.697241123561593 9.972499761216481
Ag 8.705163980470205 6.449605295617045 8.50893130273565
Ag 9.392802063545416 8.623553153812463 10.607004241281965
Ag 9.830669480729732 8.894361805243033 7.7269565914217475
Ag 7.365364202886582 7.910063461388929 6.608690665336666
Ag 10.290245557304278 11.10360333661553 11.72579425424074
Ag 7.682291290429656 10.784239938100871 10.53262405023862
Ag 9.911173248309622 11.419217914619555 8.993167648675554
Ag 7.639772988291183 10.560236440295961 7.670339693524307
Ag 6.894028796736557 8.439221434522688 9.291250630097478
