7
Energy = -10.91223205 eV
Ag 11.527072596299753 10.517965871108284 10.596489644341732
Ag 13.204395095339393 12.397394464944659 11.305572032093103
Ag 10.676791191447764 8.663197420559321 8.9556404346653
Ag 10.517997418116686 12.434225145603502 12.136033781652738
Ag 13.63074556658819 9.941220918143681 9.140140988529046
Ag 8.907705089626088 10.077112224857512 10.64483041825681
Ag 7.9044058036564 11.823513918610018 12.453797914580662
