11
Energy = -19.87159170 eV
Ag 9.675409321080606 7.590217280621681 4.76358084508833
Ag 10.563918321460433 9.439666688734976 6.683217594029744
Ag 7.884905870573585 8.904954787821119 6.423317376124771
Ag 7.501114977784974 6.174052991989498 6.162970011266354
Ag 9.875448689894261 6.846097214462345 7.439839935920043
Ag 5.806635833257331 7.697437357400279 7.819913288918832
Ag 6.6957883173174695 10.28490405051469 8.479010411246131
Ag 7.776728497669764 6.196840534750684 9.0920769109789
Ag 5.1119265652394645 6.130442100182368 9.998780583662178
Ag 8.996348539121279 8.836610304358151 9.109126514204743
Ag 6.586758957200758 8.373760579763829 10.503150419160187
