39
Energy = -83.21889153 eV
Ag 11.683928831563012 7.555447073261051 8.350386794351593
Ag 14.431596416855092 8.600132323650863 8.14975050171702
Ag 11.523023924599912 5.873374640463916 10.981508985431454
Ag 13.900435085295276 6.613241514950209 9.88507593700162
Ag 14.97841858251798 11.147572096958163 9.04569645416454
Ag 12.34142929461071 10.363028780736949 8.253436634481565
Ag 9.601961241180875 9.515952897364528 7.800056315521019
Ag 14.85033926955597 9.762273988884226 11.532167869764258
Ag 12.282124059644682 8.827659650134656 10.741815524523595
Ag 10.847565520948123 7.640483037142103 13.03135481193529
Ag 9.620067399422874 7.7203039976895855 10.287853282831025
Ag 13.660755426206737 7.304891450275917 12.610988900655688
Ag 7.4948467806698 9.403348857986245 9.863094521449556
Ag 16.000942985325516 13.780124601007573 8.895104165998033
Ag 13.272502063826835 13.166160246535293 8.27360702275039
Ag 16.294963564746535 12.194029832725748 11.223773657560063
Ag 10.553681357141373 12.360534319129393 7.799793281897857
Ag 12.582391290172419 11.741678949726586 10.833426342197622
Ag 10.098415718090093 10.600301839829553 10.211952932019548
Ag 11.363605716365894 14.978460912386296 7.323515046155625
Ag 12.666152091577588 9.835268861619637 13.378683789738915
Ag 8.703830608469074 9.265614291842693 12.537622465488308
Ag 14.24495360010396 12.178250949527659 13.133291886006404
Ag 14.240704561142572 14.092274769840932 10.972571579586806
Ag 7.983622556448907 11.93173050461711 8.759674658647027
Ag 10.45519003069305 11.55885971405073 12.771334846978498
Ag 7.707186988062729 11.674698215378601 11.602890575705736
Ag 11.656301333361561 14.573337310492764 10.073471421548636
Ag 10.305817662185657 9.670560281328363 14.942171684979312
Ag 9.442208396935042 14.089143543679997 11.696375051204194
Ag 9.109584539276899 14.505269428410564 8.884151773271654
Ag 12.065766140161964 12.114336438685541 15.004692452147122
Ag 12.069567957932453 13.94304221217498 12.773074808685882
Ag 8.083978216476414 11.391845866020027 14.416497369156001
Ag 6.891355420466373 14.022858070624448 10.480104362342301
Ag 9.818861094132714 13.819448728142719 14.511920251535976
Ag 9.759329407759752 11.88920345863215 16.59685084487382
Ag 7.169376342822833 13.854458954089166 13.343499224340043
Ag 7.539777546338822 13.61630041284238 16.088551237227257
