39
Energy = -83.28532992 eV
Ag 9.429016482957948 17.193076954690994 12.816458527488532
Ag 14.017695457296655 16.342907321813254 11.800184895899978
Ag 12.737346336051269 15.678614395702928 9.291870622796518
Ag 11.79205644858019 15.93182720201836 13.492122356244442
Ag 10.556001000040078 15.406231983520978 10.976021358197299
Ag 15.72170017864722 13.983033114959328 11.804992357618149
Ag 9.337755162787088 15.06383238500006 14.739154939897526
Ag 14.207483711544347 14.667934919428365 14.10078162544598
Ag 14.221407226717066 13.368855806399912 8.785401365946742
Ag 8.043239089716115 14.852955143862548 12.226019689515548
Ag 12.890994247154183 13.865023159766949 11.443240922523628
Ag 11.880136848141975 14.06726851503178 15.646573010471815
Ag 11.436287260091058 13.209587788361357 9.015178924782155
Ag 10.788068467182136 13.1651233126202 13.204295409130996
Ag 17.284900504651926 11.565345356696364 12.003680318003655
Ag 16.241496887879954 12.712855781925832 14.344057008655728
Ag 6.566278418707271 12.723017443554587 11.086837843746776
Ag 14.253682828103877 12.799031051373401 16.298906095239627
Ag 16.857846903688408 12.816277748358415 9.537516514132168
Ag 16.60250580216423 11.427975507351285 16.86811204431788
Ag 9.287457091072431 12.851522830844477 10.685851917551279
Ag 13.57053669586407 11.989954118531857 13.434317846867012
Ag 9.56875501878041 12.43878391941584 15.687569559722203
Ag 17.50781602764156 10.261494892123986 14.483676930107643
Ag 8.05420212281398 12.302465443649606 13.377924445878177
Ag 14.709768729846932 11.469741710202104 10.751104528446714
Ag 12.018203562803588 11.086290661216191 15.641993896867188
Ag 12.902497968594972 10.816686650617335 8.612944026148236
Ag 11.757092266807573 11.271697184650067 11.319044958398168
Ag 14.687352119057785 10.113100463262082 15.381652290621352
Ag 10.062431549510976 10.7141842611315 9.073123191902587
Ag 15.359633677323734 9.626010918746081 12.73287906840868
Ag 10.047953951287637 10.340768835734039 13.705907751061378
Ag 8.322360529578924 10.301513006443086 11.36596316299166
Ag 12.645857286013285 9.273750540461162 13.495961559961975
Ag 13.440036124149925 8.963084212153431 10.790853389734101
Ag 11.543670563149366 8.33477903324958 8.821238668922037
Ag 10.691565526564467 8.620255819316256 11.541087301040223
Ag 8.830480761731081 8.251414781458557 9.513605253766178
