31
Energy = -64.96707042 eV
Ag 11.28354092388699 7.279956687044832 12.402915955858674
Ag 11.173750732766992 9.2230305986203 14.805311275721426
Ag 8.610545052094398 10.343651739606042 6.044941411155299
Ag 8.37413636864855 12.187080355031322 8.162588468220244
Ag 12.938027605302773 14.299802904350685 10.205379698923089
Ag 10.665610213260942 14.717301859177935 13.742040464478775
Ag 10.922012943642633 9.2019543393448 7.0404156512516085
Ag 12.984718977080027 10.664742456545476 5.93198709311087
Ag 10.487908158625473 15.64585377056265 10.983164981301497
Ag 8.709264271995803 10.229852281111276 13.726860574174056
Ag 13.467049679829785 8.79551007566327 11.272321061392745
Ag 8.806442784447738 8.379589127677214 11.41218200310134
Ag 13.316800871726274 10.634313883381676 13.544159330964659
Ag 10.68510363970365 12.094545788067107 6.515234759208783
Ag 10.599501236475989 13.972695084451628 8.668605116502718
Ag 13.06215882145377 13.342152158645996 13.011883625305712
Ag 8.620536361335665 9.359741083473462 8.749090360595247
Ag 13.28129570198315 9.702818062537638 8.596358842770439
Ag 8.498091225332184 12.947000544162538 13.197416045814649
Ag 11.114353480794952 8.243638985066797 9.728417792485212
Ag 10.918877520063953 11.98545168104682 14.324863305120457
Ag 13.02187212692447 12.525567507590095 8.044662363241425
Ag 8.317598064561256 13.8942581747834 10.367111342820785
Ag 8.411256355895516 11.153347579790477 10.954790328337875
Ag 13.278888689135826 11.56608815473691 10.786853938487447
Ag 10.74067442433888 12.938952857814815 11.48492537982122
Ag 10.834160997313306 11.11644389220299 9.299403786282996
Ag 10.980425130940661 10.160407618449183 11.967861578962454
Ag 13.538563823850142 7.895603061967045 13.974820628685132
Ag 9.051520113575 7.495876806191779 14.085800862063728
Ag 11.436483253840175 6.450856893192366 15.077257123199121
