51
Energy = -111.95871884 eV
Ag 13.932885873973463 7.817319422630868 10.794170154278309
Ag 15.561520203595604 10.16570769877489 9.855276967429196
Ag 14.109420152654273 7.243252043471752 13.589326320210265
Ag 15.585229436429689 9.346032614434176 12.543708628390721
Ag 12.94978818593208 9.565929814008255 8.81432803843404
Ag 11.408840920445037 7.215056887648151 9.256190542986838
Ag 11.7805348408507 6.736299137079028 12.106985150573284
Ag 12.333684183744777 11.511657239185906 6.934743986621008
Ag 15.55415705458042 12.134494222843056 11.877430838890081
Ag 11.64054770250922 6.702507905724048 14.8998938573997
Ag 15.991106965586306 8.725546339078832 15.187045841631493
Ag 13.183746663296294 10.531403294298922 11.438132600544249
Ag 13.490136421229732 8.250987740946506 16.221269120699297
Ag 14.011193739775662 12.413275645472197 9.206745716769095
Ag 10.291658556759657 9.851553292329891 8.032840772506667
Ag 12.505266313737794 9.779766870830063 14.021784051816956
Ag 14.939501668530179 11.231189039439354 14.613351332831382
Ag 10.658914356860706 9.279968703736921 10.825072988436808
Ag 9.133837186320582 6.987747779736582 11.312474274044556
Ag 8.16966828168271 8.812330352463919 9.449870406946836
Ag 9.803859353058535 12.606775399867882 7.4233690310490195
Ag 16.547537916322856 13.355531316630787 9.532243819848436
Ag 12.142265405890994 14.133177835294035 7.811484274938658
Ag 11.343526062350106 11.947568897606933 9.763512887774706
Ag 10.804450674721508 9.21039472760504 16.185434453996614
Ag 9.976956509066744 8.421253884969808 13.598242397649113
Ag 8.540453733455568 11.632201061207835 9.993823061140018
Ag 13.168920100968153 10.912610354046484 16.771139382818095
Ag 15.516809039466924 13.912838755938779 14.103421490099759
Ag 14.406705139391574 15.318755690564759 8.867905348617107
Ag 12.550924050499384 14.340026858446498 10.815395087172774
Ag 9.799580449487925 15.491830331275462 7.326862476254352
Ag 9.795639033840375 13.847870007876645 11.25575819890174
Ag 7.790940969154413 14.054356863260686 8.53544217328597
Ag 13.223683523227102 13.608009992516447 15.726508378365848
Ag 8.05845275786806 9.762021811700441 12.074780915707354
Ag 12.974337794002713 12.698335386723192 13.131178476151623
Ag 15.369307947182051 14.922081338609173 11.514246770231267
Ag 10.998476628762285 11.945239422024065 15.437710634509955
Ag 11.625707693508176 16.524679210843967 9.186445392688242
Ag 10.519442909267186 11.396638582066668 12.587367506914022
Ag 8.67780737295322 10.608110909434727 14.77037348778139
Ag 6.98131642543329 14.425105123305675 11.063319999125072
Ag 13.327027742665873 15.522545999675566 13.401291811431465
Ag 10.921160167948717 16.417958453740724 12.004866821573653
Ag 8.939844156929604 16.222791484257254 10.003133071468708
Ag 13.59031256775679 17.06063805090434 11.05436714201008
Ag 10.874583327841995 14.38001163174387 14.058835245249876
Ag 7.821542120395913 12.455404886837243 12.823399214902464
Ag 8.569158009714885 13.43350994285426 15.304708213589251
Ag 8.471163055412662 15.427147685013297 13.19053242184125
