21
Energy = -42.53895293 eV
Ag 13.997736062082685 9.73989900224577 12.330050649151064
Ag 12.909929355987453 9.766327681603924 9.800548142080734
Ag 12.017445023499949 9.892095208882617 7.159220945607171
Ag 12.96981070577426 12.183489489637703 11.321179584859042
Ag 11.566486390826359 12.035746652769237 8.878746718233948
Ag 11.489689858863919 14.524584672929313 10.047745076135966
Ag 11.360546669098422 10.399880338424328 12.865287723277971
Ag 11.941116306005018 7.866750555903242 11.600569788187231
Ag 11.124262219124033 7.776961064127586 8.789078623184375
Ag 9.835489494154908 8.339918841926126 6.358165560960497
Ag 10.01024713474067 9.712453799919064 10.51323975906662
Ag 9.527200582504376 8.273071915100747 13.129050037776471
Ag 9.40988937581412 6.769625658941227 10.782111012745599
Ag 8.266921671817936 8.358032732637188 8.706184601817249
Ag 10.211533474992448 12.554184538369249 11.478289444192997
Ag 9.387305429641382 10.741049639836138 7.72835958400375
Ag 8.434078789504909 10.816954104948215 12.653301760139758
Ag 9.048537639962856 13.265929107949466 9.04325074069613
Ag 7.585909475171787 10.969280158747775 9.872496134573458
Ag 7.317583161221774 8.586620230323163 11.371766491892643
Ag 7.51038937585059 13.228000492972646 11.479642226470279
