39
Energy = -83.05183363 eV
Ag 14.577309588894416 15.13716744075016 12.577219099498073
Ag 16.292137020629596 12.962177880903248 12.4363726109316
Ag 16.416761830975737 11.373978458123101 10.089169647697945
Ag 16.24320313742831 9.661792697327648 7.766264647298987
Ag 12.748550505645612 15.501059157725228 10.422718374471984
Ag 14.165511847194969 11.348977165467023 8.446439227537395
Ag 12.422719667697356 13.450388718238436 8.393298008921702
Ag 13.611278509412795 12.638275172788054 13.55069464239384
Ag 15.09700751667017 10.468933103075221 12.439660379687544
Ag 11.82808399341519 14.801817625659606 13.129444911018775
Ag 14.11245177132525 13.070879449648707 10.682640003410222
Ag 14.797979276359467 9.038886756376446 10.02413282581663
Ag 10.201036745037745 16.25427687684744 11.366182826950586
Ag 13.387295986689134 8.763885578741505 7.613776007437336
Ag 12.886566317706995 9.941363720566155 14.12844193652394
Ag 11.055816015668547 13.356023929572714 10.782271009085864
Ag 11.468855151201721 10.647955501920743 8.380139044691136
Ag 12.525335274008325 10.772749492796702 11.188409541526086
Ag 13.605981419098656 8.03887900255219 12.293572390579751
Ag 12.116141743171998 11.861470314023569 15.886917868213718
Ag 9.70660450966799 12.76413055476451 8.274974785370192
Ag 10.878752108402766 8.776614747445683 12.547211226429507
Ag 10.35568470980503 13.884047940288648 15.331640552613404
Ag 10.82208058318154 11.906519341212888 13.219561456915088
Ag 9.014245702795105 14.331920712877146 12.949179377749175
Ag 12.01044660844515 8.22483783986094 10.01076675109359
Ag 8.432086607183441 14.397392820135561 10.200305827710375
Ag 10.526369017627468 7.9835491075765965 7.753727502652378
Ag 9.671413977013135 10.908544991251501 10.6671610267659
Ag 9.55682106216908 11.729527260057196 17.007432529038848
Ag 10.099135768300748 9.7920716956145 15.052293972406549
Ag 8.27248308129465 12.090115774311364 14.554955678236626
Ag 7.102891522879343 12.232591426693135 9.030306857912556
Ag 8.74716009040476 7.157062128441857 13.0760847614636
Ag 7.431351705607758 12.293750066024192 11.857671874681024
Ag 8.677503413695066 10.027383583524907 8.149508031230269
Ag 8.242723094113686 9.807642179255884 12.920349077539669
Ag 9.186246372612088 8.058970571819636 10.361441109045607
Ag 6.978893135327462 9.84359562027106 10.450242877409522
