11
Energy = -92.47448256 eV
Mo 8.933320328684449 9.628612822659212 10.891487497903997
Mo 8.35063479296815 7.651068183493712 10.577063658741887
Mo 6.2508430104310495 9.567985628067404 9.826196192411828
Mo 10.710292908016605 7.782684166085466 10.269180693795873
Mo 11.103525838519129 8.512607475450464 7.9749926950415135
Mo 8.601864105780363 9.354944839558192 8.360744513863375
Mo 6.770392673867241 9.775731036945942 7.089470386283316
Mo 6.246354574073202 7.9027629163127475 8.775866506537122
Mo 9.271305668650756 8.856885741283769 5.779424625619248
Mo 9.681087287765 6.989726475026049 8.019156168883418
Mo 7.769152652751478 7.651169781258444 6.166485431614678
