15
Energy = -128.71726807 eV
Mo 10.739892471695219 12.437988895123045 8.525001458001991
Mo 13.308092237424027 11.719127662034573 9.507660141478711
Mo 11.595737292805508 10.033524537340938 9.253319479563608
Mo 9.513169836288705 11.065102349997035 10.124825419788385
Mo 9.626029559574162 13.56657399792709 10.914896839381868
Mo 12.25802690328013 13.853686777737776 9.45574788167537
Mo 9.619308652624468 8.464586089340585 10.2555727749972
Mo 12.421094298946633 8.390515330239907 10.907389636722732
Mo 12.381723788375751 13.31491112066547 11.668145824499511
Mo 8.221190814356069 12.55475254880706 11.938680236584332
Mo 12.85381186897836 10.705657296395643 11.653113329937163
Mo 10.712156679305107 11.70722082127693 12.418983370567034
Mo 9.087681375877127 9.7138557666165 12.2684546838692
Mo 10.725944886092694 7.455292085112057 12.067004878271945
Mo 11.250197975226175 9.331263362235296 13.355262685511246
