19
Energy = -167.00779917 eV
Mo 6.432224453519359 7.101954722247974 7.894742951779523
Mo 9.165607688847338 6.856535304448866 8.371541280264037
Mo 8.012080107744628 6.915181604388229 10.224826081820446
Mo 8.042966832010272 9.05003803769949 7.205082036326324
Mo 5.861894617898068 8.45243123252879 9.065854335249364
Mo 10.871601382333225 7.272428411997526 10.556684662031113
Mo 10.790299127499122 8.615909933490988 7.166043909475763
Mo 9.802672643490785 7.998434159771343 12.054423186648998
Mo 9.311781201713005 9.211121675257521 9.53648804772205
Mo 7.22280047972522 9.391213578613867 11.458854113377992
Mo 11.84679288771154 9.912317224096789 9.146870386995273
Mo 11.199768066335317 10.166354806171045 11.333272273494414
Mo 7.467974166866594 10.652040373581599 9.017117975298902
Mo 13.532499946125174 11.693575844120861 10.372371738663167
Mo 10.01289050716531 10.624377754088409 7.237619985205643
Mo 8.44446706232068 10.8168365435528 11.668949346035648
Mo 11.71106067882842 12.676079807753249 8.66535999567715
Mo 12.211220973301646 12.562307886229604 11.468364759142245
Mo 10.071449953112918 12.084257919765276 9.597326171718404
