14
Energy = -120.69564541 eV
Mo 16.122003735260442 11.928828524472681 10.622089181832335
Mo 11.224889404880356 11.818923534309366 13.431147504156128
Mo 15.535180705003482 10.222407902144651 10.71320994744828
Mo 12.641130731759347 9.664969793336535 12.739516763975116
Mo 13.67207803593336 11.822392055731985 12.110783193680039
Mo 11.722983113812868 14.5743673038762 13.60425730782578
Mo 10.185266551033274 10.284408795015356 11.720808620481227
Mo 9.90835338824119 14.454444990700923 13.477564646655374
Mo 13.292589484273202 11.980472415584238 9.96765412192167
Mo 8.260289003798514 11.87382559966943 13.144909408670454
Mo 12.713829364120185 9.742652873633746 10.50599942087365
Mo 10.462989993066397 11.147050219911685 9.836677184604358
Mo 11.210165308373261 12.90453824726685 11.482154512047238
Mo 8.292762519341391 12.47225201334832 11.447268598161992
