19
Energy = -166.78804744 eV
Mo 11.663876644149903 9.150349396271826 7.680127276054354
Mo 10.601474770365563 14.258504160926062 8.86301183612995
Mo 7.711040280647057 10.901760779711667 9.489996772659786
Mo 11.666608848611117 12.455116040749353 10.77414367739278
Mo 12.522128283444966 9.9830465393012 10.102453262826822
Mo 13.893655269858215 7.681266475299338 9.102234634542738
Mo 9.348381790273084 12.650769771725253 10.886925744761898
Mo 10.267025758817166 12.846646669806658 13.405314002380216
Mo 9.67403610447151 10.116718960316398 13.326353697704068
Mo 11.925064401162262 10.583703132100727 12.703150918351707
Mo 11.257041118334126 7.887824802011354 10.093279636707376
Mo 11.678485478189536 8.357870087366615 12.437246238531356
Mo 10.70705053757647 14.97837167791894 10.562020746519032
Mo 9.75671238874897 9.003020845758293 8.054362145249792
Mo 10.592334468182543 11.38897975324193 8.801907036361971
Mo 7.343528720227101 10.717735732430043 11.274864191480491
Mo 9.969656857014838 9.9496370210632 10.837933200840453
Mo 14.019937941619494 7.661696289770471 10.917328045545599
Mo 8.40761270521148 12.321334161895962 13.489759268346631
