18
Energy = -158.71730251 eV
Mo 12.039958438863216 9.201578318063387 9.756968662874401
Mo 12.177347477537248 10.359436535857766 7.958257546971785
Mo 10.345066579030888 9.366773498604074 6.389009757495095
Mo 10.928847590489374 7.7762587132099075 8.042241805294674
Mo 8.378987726468786 7.3486297899306665 6.550693101110305
Mo 9.925643814549368 11.672733627577474 7.845689863796025
Mo 10.341368135961288 10.999082128389357 10.071875142786238
Mo 9.754417175271493 9.151026278520723 11.82608187369368
Mo 10.184777345022031 6.81569603200692 10.35409393417561
Mo 9.06466836252186 9.168051818356103 8.947780914756875
Mo 8.649293604153502 6.289944339047934 9.268524214546018
Mo 7.606604526738258 7.142009870916679 11.731632129139635
Mo 6.871186177577263 7.88633224139257 7.4196309451638545
Mo 7.558933203397457 11.828575212382233 9.378838081344899
Mo 8.2760892637019 10.376043799591786 6.806703626769841
Mo 7.98041604516419 9.91939635669418 11.561771670374734
Mo 6.53368694892082 7.8247235522652465 10.340312203241796
Mo 6.400482007022342 10.464695875699977 9.045188545138343
