11
Energy = -93.02560425 eV
Mo 10.070152313682055 6.705997189208727 7.762449206929127
Mo 9.062240320881212 6.62860732347905 10.297794347074607
Mo 9.425644516059114 8.985284644326104 9.044149020662877
Mo 10.837877775495674 9.187530943158283 6.855078524887982
Mo 7.99196824441907 6.87178511236188 8.408622656126317
Mo 9.006601312938345 8.665444820165863 6.254595451487742
Mo 8.952033106629981 9.041378049152737 11.61232900243712
Mo 7.2154839546022105 8.526644043845963 10.768451676968603
Mo 8.905606669614764 11.078054710582897 7.4325308744848835
Mo 7.896655668853648 10.997155409044176 9.97309395749414
Mo 7.155734318329577 10.00489421795099 8.172854418967946
