13
Energy = -111.49946158 eV
Mo 10.887707857106752 9.18689985295062 8.60139493752942
Mo 10.325738630534435 6.839296446653289 8.445404161528161
Mo 10.566108311883669 7.3595910121085675 10.941729938147686
Mo 10.30603729547509 10.139817344010437 10.549498365270614
Mo 8.684189079332088 8.67721058702638 7.341738033650224
Mo 9.237880931184412 11.447893313550972 7.634383534582768
Mo 8.21256448986458 9.67874741227165 9.499093996987748
Mo 8.168089312936997 7.039536499470944 9.399528786733322
Mo 7.54708386189676 11.087374616179643 7.07206409519489
Mo 6.266127807713879 8.21577862074939 6.275558815730478
Mo 9.13369612552978 8.301457589196009 11.833965414521359
Mo 6.035932259407842 8.590302245001455 8.215247798731854
Mo 7.433629223887305 6.37184455280233 7.3508984379840685
