16
Energy = -137.97370681 eV
Mo 11.334271680252579 12.498594740701312 8.910509326214541
Mo 10.237868343614537 12.52248693554169 11.371276030100203
Mo 11.754750886919402 9.193374683945278 14.246537847145182
Mo 10.874027244665205 11.030698755658923 13.803557988938804
Mo 8.907492339394246 8.350651874897618 9.768016590433449
Mo 8.489724522733571 11.547731332930306 9.267397823232796
Mo 7.0008701840341185 10.63790666561804 9.805987362881526
Mo 12.196603955344097 11.143945929241085 6.89910043064782
Mo 8.89955380349863 10.615702512898691 11.94496877062388
Mo 8.234473223233184 8.648477677274812 8.10529062023458
Mo 11.090478590307647 10.129488217516933 10.394926876586261
Mo 12.379517517937046 12.186999702023613 11.814081861660016
Mo 13.068449518647375 11.088782345803246 9.067976403369766
Mo 10.20143687508498 8.776341424541828 12.42030185569058
Mo 12.834782998987212 9.92337896739754 12.152350801838265
Mo 10.58247341864492 10.060911462590143 7.9606259343424774
