14
Energy = -120.1263945 eV
Mo 11.502737660337253 9.82989531158451 11.268636275412128
Mo 8.797749792232382 9.157707746911255 12.000267012712309
Mo 10.876687260877087 8.077990490764332 10.258293782976077
Mo 9.33566476966101 11.211945804929579 11.80801044173287
Mo 11.843530877251784 9.745756123998227 8.512014017183166
Mo 11.69319094933468 7.737371004814575 7.586535510048978
Mo 9.665556863733485 6.817731166998971 7.88965862668481
Mo 8.34985182690191 8.28278651552568 9.358908232477786
Mo 7.563652035841291 8.20506944386834 6.747915297982975
Mo 9.394431334778655 9.23930379891478 6.961211236455263
Mo 9.616271247161395 10.397083824972281 9.379052616209101
Mo 7.200975884675931 10.413669392809584 10.532397009945955
Mo 7.147493207273579 10.743409519652213 8.043031528584967
Mo 5.985400326746387 9.068858468905349 8.6533137023161
