13
Energy = -112.10884287 eV
Mo 8.815115649315777 7.9039239746787855 6.231825019645279
Mo 10.24665435078263 9.684134922511694 6.535034457734705
Mo 7.538535079906128 9.762267437113943 6.3307410889209565
Mo 11.221454228590405 7.7735199711562055 8.492460717125757
Mo 6.188953668621185 7.858939057075343 8.06222603367866
Mo 8.52491229542187 6.316773303244219 9.659910079989986
Mo 8.688297798953203 8.686747797885236 8.676600869452537
Mo 6.1457888150639475 9.580719038641053 8.85746841420433
Mo 11.196129423020263 9.4979803068558 9.278063716264276
Mo 7.126924161515466 7.699063811304675 10.819523666919357
Mo 8.88045498317106 11.052287029864766 7.695685709302323
Mo 9.83482168803232 7.593653728703339 11.020052547026042
Mo 8.534525383469186 9.465992885755073 11.12063283828872
