15
Energy = -129.02665915 eV
Mo 11.433167243842119 11.627332951157584 9.202133092969467
Mo 9.09052112476087 10.77714062743406 8.822900301647614
Mo 10.4820010378362 10.357340142453358 14.022109051449872
Mo 6.302290764293721 9.758560713951796 8.504518617415412
Mo 7.974463192119411 9.336018676770667 11.09407030071378
Mo 9.559208639251814 11.332364036905334 11.438441868437351
Mo 8.707478052705422 8.390939704197567 9.068146278742036
Mo 13.497802868210035 9.604641502963394 9.41389694917606
Mo 10.026011820947986 8.599012131448745 11.61528866994826
Mo 11.680218345882846 10.501041196743726 11.355081551739998
Mo 11.272915689011512 8.848289445855928 9.212529656571084
Mo 7.222922468854764 9.717908535252134 6.957312137909337
Mo 8.786959477326016 9.794735027087462 13.890598204246889
Mo 12.841662268419238 10.460043943018416 7.593141196801032
Mo 10.371723632215396 9.836193366245249 7.1521638410561215
