13
Energy = -111.66038713 eV
Mo 11.634820695345171 14.253953944432569 9.088315347481107
Mo 10.189637907016031 13.461567641467145 9.758294272331135
Mo 12.220409964265052 11.417485317806216 8.998428774163697
Mo 10.501715333094603 12.510786142053547 13.086071576475362
Mo 9.742459999487455 10.37419841021012 8.525543422546734
Mo 12.569926617767202 12.516523642680541 11.218919080031542
Mo 10.31641179990788 10.940111382018506 11.015784214436414
Mo 8.882828605380773 8.782574204269052 10.711376902888633
Mo 10.942983378950867 8.900591389845438 9.156405550674103
Mo 12.8762092511529 10.32994968018339 10.849266094848808
Mo 9.290943030414299 9.901460745312123 13.246198977965998
Mo 11.72322066602791 11.031248841834408 13.481226880679927
Mo 10.54966570874361 8.558016385563759 12.18025015404925
