10
Energy = -84.3071955 eV
Mo 9.068732976228556 7.618519682639359 11.150561568636213
Mo 9.504379636163582 8.865476567597593 12.333834185450321
Mo 11.688514355853334 10.893257342147955 12.375091613795341
Mo 11.218717183408467 9.282207262456938 10.07018921496825
Mo 9.855985386411893 11.871032380046682 12.049142710332086
Mo 13.037423110904907 10.993787198843474 10.105975232589152
Mo 9.418093754869993 10.221598564984488 9.775494533303073
Mo 11.828118804964733 12.925872392666463 10.99381164008576
Mo 11.495872509115056 11.596249535943082 8.555033105463972
Mo 9.819394701441274 12.67022212735823 9.536218576015445
