14
Energy = -121.04446093 eV
Mo 11.718832565708185 6.225215585461808 10.218797759883618
Mo 12.51895020200426 7.1194311187275 8.817023467341489
Mo 10.780176843559326 8.8092434667395 10.044147312963316
Mo 9.186225286136763 7.792526134076227 11.195893829462634
Mo 9.797162737215729 7.132957596671973 8.334386282711808
Mo 9.621362703164225 11.082451190026262 9.063536460132639
Mo 10.404220915023425 9.077765933234598 7.140388425633924
Mo 8.71714866689878 10.109830478644767 11.602818493964627
Mo 8.283873970009392 9.04354654689343 9.004020195575048
Mo 8.456796040057908 8.672543343519054 6.293785489437962
Mo 6.677848374495523 9.628030777305296 11.112280760917157
Mo 7.17632584936622 11.563269861997659 9.680379177030298
Mo 8.203802915857027 10.97972974358599 7.080716759708975
Mo 6.1971478387805785 10.3170466522485 8.152000675031223
