18
Energy = -158.04596274 eV
Mo 12.143390738088247 12.965109240341857 9.810632512878229
Mo 11.904588024532835 10.830348669506284 8.128317194751103
Mo 12.237703199322965 10.932985883699613 10.872112668504089
Mo 10.72878624612876 9.241948313735948 9.718361056019871
Mo 11.728849556863295 8.009373390506134 7.596385764097987
Mo 9.994184004942404 11.851098112334327 10.820712226856147
Mo 9.06906736765631 10.76850776200563 8.822501939029548
Mo 9.741126343213585 6.5771040215982985 9.324921080296386
Mo 9.719730498079935 6.436957697257108 7.319452133930328
Mo 7.103942723817596 6.753899059208053 10.595137891613726
Mo 10.636601209443176 12.73266883107146 8.11780823740712
Mo 8.104428956785064 8.204504279476218 8.565001581226328
Mo 10.058118107406434 9.997898245990577 12.82662114183041
Mo 8.482891997190366 11.21766916676726 12.73751880946857
Mo 10.265337284056137 9.233367414872287 6.845861445372952
Mo 7.124310349236704 10.619159220655224 10.421276826610455
Mo 8.476408836769433 8.937523565121225 11.103247095850916
Mo 5.930149096281036 8.11932929547792 9.857631704350869
