16
Energy = -139.47359386 eV
Mo 6.971409196869508 12.322864365248838 10.32795996517921
Mo 7.429952478451021 10.818386499109282 11.327802958911514
Mo 8.230429380584873 10.39678440278308 8.576187208697588
Mo 9.576501952530917 12.036886329772981 10.007700917071663
Mo 6.924855011798099 8.426548785896227 9.794000260975121
Mo 9.73595976824389 9.318661785155033 10.321197139559448
Mo 7.779523187001833 8.123512793369683 7.649911433073905
Mo 11.605955207424095 10.945011042683932 10.957913419224443
Mo 12.21350694350064 8.192003414743473 11.479742440487295
Mo 8.424306657899587 7.350255413068295 11.245079169571031
Mo 11.873991919061496 12.330268929351693 8.509027508112293
Mo 10.421171423034215 11.522847680916271 7.483535403513341
Mo 10.25240208761536 8.811797952722527 7.977558182987007
Mo 12.293522291795549 9.892980262348388 9.17495485572443
Mo 11.548305675641426 7.092899412589864 10.236507519794447
Mo 8.970003349440056 6.698848939037989 9.202582963644868
