18
Energy = -158.40569798 eV
Mo 6.771897117769254 8.995281991023965 5.119470451110401
Mo 8.660480641726899 7.270359060462523 5.929174516900001
Mo 10.353219797252864 5.391342517204645 6.62988250488139
Mo 6.559543134011832 6.768868914008962 6.952034880581591
Mo 9.28502122605369 9.61631079642578 6.303089648009839
Mo 5.554530178227883 8.852858155643425 7.179560232999434
Mo 7.358036983342463 10.753824270134379 6.3351178578529375
Mo 8.654345233335409 4.741339387822918 7.233632018581615
Mo 10.679780925804662 7.798411262310369 7.929968502369592
Mo 9.357622462711733 10.610042867674252 8.745557298843215
Mo 8.002207756871385 8.423274241253484 8.42248418442829
Mo 6.658982873546957 10.669868414089255 9.254299080158773
Mo 9.557195486736315 6.274513455859753 9.280893528674607
Mo 5.749557478033612 7.5071709609425366 9.635023648517452
Mo 6.743213910280338 5.8235364983872016 9.380700010001519
Mo 10.241214412304807 8.990939564041986 10.002381490390423
Mo 7.46447753553893 10.036621642763448 10.813126167985251
Mo 8.367264109472005 7.4940272629731925 10.872195240735449
