18
Energy = -157.12241802 eV
Mo 6.51847480546295 11.685722102410853 8.00722008288815
Mo 12.446109217715387 9.852138276847484 7.538737205658442
Mo 7.896962987700506 7.389738699228123 11.49907698687186
Mo 7.661324111293347 9.529592517244753 9.603668399648134
Mo 13.189008830239914 10.954182536123984 12.910692942853094
Mo 10.206989339983894 10.68023137386143 9.180561052195191
Mo 9.788134223102507 6.94950775744402 11.57426620650687
Mo 11.47673489886814 9.315675099176524 11.32932033157539
Mo 8.017928651615879 11.023799922140629 7.230685204885262
Mo 10.688230661848154 11.977927447323847 11.57442598870442
Mo 10.473319288993038 9.206510206216914 7.113957558935545
Mo 12.175515349297937 8.156092882573192 9.118416715492232
Mo 13.345742800620023 12.624362848157116 12.238663483742346
Mo 12.613366264684345 10.817023100707397 10.056426700950166
Mo 8.84690062813048 9.764333621876585 11.594864688802273
Mo 9.767604836993181 8.075730944347397 9.337791649404387
Mo 8.900420671847694 12.381145117754231 12.35101507755488
Mo 8.240707055484041 11.972096288521199 10.003307176689892
