19
Energy = -166.94061049 eV
Mo 9.835824288510405 13.881298161024695 8.86457302329304
Mo 11.69519759046237 9.518753490990626 8.144885119217287
Mo 8.814305764760178 8.99286590756472 13.241383045476132
Mo 7.468074322465197 10.387220703240542 11.38383743655718
Mo 13.242513878783775 10.083627644455806 10.31232433904111
Mo 9.329401818441191 11.520419245130206 11.75883192489347
Mo 11.483810393094213 9.747457611471802 12.03973299563167
Mo 10.537317975715354 7.700895311699725 12.085360339377479
Mo 12.314093294288702 8.08512338146749 10.045526667485625
Mo 11.145413241940396 11.506462409836065 9.700764292217283
Mo 10.885490800803579 13.705433197295955 10.665891108696314
Mo 9.319628871681509 9.240291708626202 7.502419559571239
Mo 9.64197244979768 6.681178301199096 9.079986461507241
Mo 10.091950650164996 11.407974789565355 7.292463665926551
Mo 8.320739903498136 11.258409558362478 8.961213596742397
Mo 9.615694956482862 9.2827503652833 10.084602104622043
Mo 8.005161051736035 7.899536989224494 11.540174869332592
Mo 10.914476600953375 6.838877044439269 7.775777250984017
Mo 8.17741486769374 13.201925504275238 10.383193022646541
