12
Energy = -101.93475121 eV
Mo 13.43124913033349 9.544984889722908 12.511514623811072
Mo 10.766036278978419 8.642123700045081 12.848565156054974
Mo 13.441815756469481 9.574294977347371 10.421484492159891
Mo 10.562488736939347 8.568287801761585 10.111746337817044
Mo 9.888296296096458 13.113673975889366 10.861973712311109
Mo 11.995650327405693 7.469468529289004 11.63624484264467
Mo 11.541694691314943 10.903649407523893 9.674814873226612
Mo 11.98776881279109 11.3238462717637 11.957748110963436
Mo 8.938256144235519 10.4780376377938 8.53016352973482
Mo 9.587587976067061 12.103190835691644 8.056994671421087
Mo 8.190362727319265 12.526911308080745 10.591806369105752
Mo 9.675748455308142 10.302764332926014 11.443167954726027
