19
Energy = -166.35507792 eV
Mo 11.677543979592182 8.454312709554866 6.868548134181896
Mo 8.725137844072497 11.873259274479272 8.134213803395062
Mo 9.81690663667989 10.653752046318008 13.129991360312161
Mo 11.635503965122139 11.095647668273383 11.272595459587594
Mo 9.753415132027152 8.293627331655697 8.940805286119996
Mo 11.748233869060384 6.815399378916866 8.385332426360247
Mo 11.518457682346673 8.668782278555724 12.743079382910446
Mo 13.268012434019207 9.14657182317293 8.28729898029757
Mo 8.311984919916963 12.353304866886962 12.257151096178195
Mo 10.938821164776286 12.813218073036015 13.023375353042686
Mo 12.098995072219015 8.335864029264254 10.181752446215265
Mo 7.1880823998028225 9.481331499347364 8.825865387211703
Mo 9.545361032932062 14.255457531328167 12.041465622063539
Mo 9.204298437451696 10.400781430149896 6.977516622455594
Mo 11.03869296710573 10.41902598066887 8.737657916964874
Mo 9.846818219228256 8.130498241700144 11.832546783938094
Mo 7.375421327348695 8.364267506700514 10.318209693968965
Mo 9.019835478877209 10.571282664130726 10.63111696078752
Mo 10.304328893414624 12.764810622376793 10.267778848056892
