15
Energy = -129.28682253 eV
Mo 14.070806521494545 11.167345878299502 10.387324446417297
Mo 16.054501124691548 10.909492813101348 12.459135002138039
Mo 9.299445964923674 9.552215378504329 10.903964272494944
Mo 11.289104674379697 11.79639422293904 10.368519026565288
Mo 11.915636513760422 10.499303068373894 12.172782436454735
Mo 15.028963984971591 13.130462833304657 11.25322279912184
Mo 13.364847321649655 12.991098209463482 9.429113162311427
Mo 10.642564235201473 14.1506320441306 11.271288089211012
Mo 9.41362894910766 11.167276973902428 13.250786819189333
Mo 7.621532707942867 9.765979925363748 11.454780667547253
Mo 8.919038362356378 12.357097774144744 11.590146864787688
Mo 12.700920557704361 13.017628616224647 12.17281747444658
Mo 14.569611676074702 11.28119607227097 13.428232912543354
Mo 11.594211155689948 11.904240082275276 14.197941525405435
Mo 10.41886517060469 13.776984730987989 13.472106345798643
