17
Energy = -148.51190499 eV
Mo 14.477300293797706 9.965136385679942 9.382341769761274
Mo 13.746313786059583 9.700433283096901 11.058465049956139
Mo 12.168433217158327 8.405157000744339 8.760148466526894
Mo 12.395051711456116 11.79879084360586 10.19294596386137
Mo 11.681751427816485 11.8131848076984 12.347366585231732
Mo 10.414203080710848 13.26869340601632 11.164315988056769
Mo 11.862164743588389 10.159316533724056 8.04464361120957
Mo 10.880170015930785 9.557192526158783 10.721935567007918
Mo 9.690923578401382 11.455291940831966 9.313922154980409
Mo 9.12178060239065 11.270694434480255 11.716169309772011
Mo 10.483153712752154 9.406957859711639 13.474715742564912
Mo 9.309303880533571 9.217679330044971 7.343332611959966
Mo 8.675122965116127 9.066958321041458 9.855292845476521
Mo 7.81964220841439 10.323185706011072 7.614566801979222
Mo 9.04922057121735 8.586529731472876 12.708840735154723
Mo 6.819515901325277 11.254827109141546 10.184218851858454
Mo 6.609302418503737 10.042769077546579 11.543609669847537
