14
Energy = -119.44515993 eV
Mo 9.059401665219983 9.387110204233318 13.04144150540862
Mo 13.040354375673969 11.839822332236475 11.135266802747186
Mo 9.486389470821656 8.831465280544661 9.218480837503046
Mo 11.240567446470536 12.15887430797251 8.013714301724841
Mo 13.285239246509658 11.380904233310888 8.61809709274333
Mo 12.475011336212866 13.678598383650916 9.249608328910194
Mo 11.283847266659997 10.362154492258862 12.573834372013616
Mo 11.51067081510627 10.108663302791204 9.931704004006656
Mo 10.98355072254445 12.739381873559912 10.826993254878822
Mo 7.613120574874165 9.80398212095852 10.85025488366386
Mo 8.896605830958407 7.6762798533414 11.174952179477367
Mo 8.89693758978307 11.410035589041648 12.24849803704006
Mo 9.232040988135838 11.163019499069607 9.558665059018798
Mo 11.18396257715155 8.240926275696172 11.599886038585243
