16
Energy = -139.67512344 eV
Mo 9.751170813004165 7.806909242620837 5.040340865047935
Mo 8.268107224013207 9.493446737595479 5.467386267379408
Mo 7.265766868259688 7.109586126418557 6.116402488666557
Mo 10.223672886974779 9.695582060274873 6.9015732064483615
Mo 8.702958131815048 5.974146601807238 6.877325369431657
Mo 7.696255064497036 9.285361971452643 7.981814250031039
Mo 11.012216517717201 7.538475263011615 6.915480791279193
Mo 6.680328077141045 6.886448658057642 8.71689179014874
Mo 9.358706553477173 7.98579530938581 8.924252811687614
Mo 7.245469979333545 11.224137299736283 9.644239792654863
Mo 8.331268367419815 5.8248976980257465 9.565684502893053
Mo 6.195305826212171 8.89494206552103 10.423636487129766
Mo 9.611214742222746 10.719186014681721 9.395319549223064
Mo 7.60439936223332 7.799200561580064 11.287016638184756
Mo 9.9649114346915 9.272250140217114 11.145452151558493
Mo 8.123168530912864 10.524554629539105 11.632103418160096
