15
Energy = -129.89572746 eV
Mo 9.60742075243872 10.84999238740618 11.47741814425951
Mo 9.961404456617956 11.761902010450285 7.980140862844515
Mo 9.465103124820272 7.305828489630661 9.674877927915306
Mo 9.147683748085848 9.983417905416953 9.141917606480044
Mo 11.671619650221706 9.581482561139014 12.117284577043199
Mo 12.61896097300703 13.52397472133633 12.55141012799747
Mo 13.294183171573419 11.936406010926262 11.852138883396213
Mo 11.093410491573797 11.56082567084874 13.651056959541979
Mo 11.960759835244911 7.933742929895446 10.193092457853824
Mo 9.434662905706528 8.102728889588523 11.43150384185401
Mo 8.835423443534756 12.809405875872717 9.57839027270959
Mo 11.258719129127279 8.870591349371383 8.308429800032743
Mo 10.942650955480532 13.027168027982704 10.37124272740761
Mo 9.859336431939607 13.00207101380314 12.664972227117929
Mo 11.742835719338885 10.644636945043642 9.900298372257936
