12
Energy = -102.42244781 eV
Mo 7.8066382071632345 8.715697205476827 6.776050089265784
Mo 8.42084023644848 7.550147112618779 9.12345029353937
Mo 7.960575948357685 8.08177139458489 11.73670905912126
Mo 10.21161057264277 7.531486695018037 7.227641973098505
Mo 10.65371777291523 8.93072276313787 9.216658346726623
Mo 9.942799079290573 7.389830729740535 11.256917911996347
Mo 8.06348152777098 10.689761032080003 6.880625353734743
Mo 8.13493117142063 9.874523337222598 9.37543597252273
Mo 7.954736019564277 10.477469562090986 11.850552046208106
Mo 10.503837111061326 9.522581669992396 6.476857506537782
Mo 10.16012059965946 11.051564407492823 8.332078439775078
Mo 9.956117753705358 9.9538501616445 11.516428936373694
