16
Energy = -139.16103606 eV
Mo 13.042961740709096 8.689506664384309 9.615509235896878
Mo 12.900085440975543 9.20930224278902 11.413149910631985
Mo 11.387283992497784 11.016147897795504 10.162856161281244
Mo 11.044040465617185 9.930620025583261 7.9293911655497835
Mo 9.10902965553652 9.751264310116223 6.013991550347841
Mo 10.464657010818017 8.357574901240648 10.293749494187434
Mo 10.147634202053647 10.26301564375567 12.257536849575875
Mo 9.727570562705388 11.80964598304139 7.9436737469830225
Mo 8.700083511531327 6.575518681348466 10.210814913629218
Mo 9.679548880679354 12.489104213570087 10.622956192450049
Mo 8.648516164091498 10.181187305875131 9.647944616567374
Mo 8.978645729234431 8.242099046887772 8.151106150769845
Mo 7.6709423514747535 10.5874585369201 7.06234585221284
Mo 6.9921249538742 7.991516577503542 9.716499592660213
Mo 8.080503979581028 8.566574990385865 11.658744361470955
Mo 8.195475905114554 11.172612411854782 12.105406255162736
