14
Energy = -117.35513791 eV
Mo 10.207106306803784 12.13091821438674 9.421511505468812
Mo 11.74976408050844 10.649780591980088 8.375726836751697
Mo 10.127803302112232 9.833759344501328 10.529734698919086
Mo 8.838394062302283 10.536146595582238 8.202103930923732
Mo 7.506203182930966 11.140588938888865 10.838875877238525
Mo 12.139206462560802 8.474134531861896 9.883000115197987
Mo 8.494233348651317 9.326615342350715 12.189909840575432
Mo 9.800665990488044 9.178535546180196 6.224562049956412
Mo 10.16234236609947 8.162321310553347 8.445875437308
Mo 9.89330701018281 6.811300276767884 10.878429470426966
Mo 7.788935261304228 8.53188149505251 9.863243954394832
Mo 6.397663677343086 10.130495089746809 8.584185428551649
Mo 7.795115045678937 8.397401149085164 6.850768420965624
Mo 8.543446302664252 6.27443965078973 9.171484479753776
