13
Energy = -111.81816147 eV
Mo 12.39884895490562 8.927353800156407 8.369623786382313
Mo 13.669658632738669 10.120589801973265 8.79861648022949
Mo 9.761960035062632 9.539844331779415 9.148033451230097
Mo 9.897070663128922 6.825681761236928 8.651647875539943
Mo 9.641268860223033 13.383379027871005 10.081632274565225
Mo 11.300887687902682 11.610580528442615 9.291818768402011
Mo 7.203355466197699 8.48149207584364 9.627444605817525
Mo 10.243861446800365 7.2137430571371075 10.363634028443759
Mo 11.548206260070913 10.202028466313074 10.881858474508185
Mo 10.145451738361226 12.260850832274771 11.698168282723826
Mo 8.882737455018736 9.964809804806507 11.54392506326882
Mo 6.09949928465161 9.42899887694533 10.683647083794055
Mo 8.129568584134315 11.32969727362564 10.080318841031009
