16
Energy = -139.21176217 eV
Mo 10.840081055536213 11.893454795226585 7.9111666117713835
Mo 10.96089360128399 11.462336284536645 9.911266255882783
Mo 8.226462064213031 11.047034705966919 11.644872935699546
Mo 8.419948918184906 11.219733517679341 9.129618817376109
Mo 11.806068840530832 9.385864540639318 8.779112339681918
Mo 11.490026227375267 9.786158200124602 6.459452233424503
Mo 9.362001225830115 9.577295545108871 7.244253855184646
Mo 6.356944910330636 10.562416451668524 10.893033694769892
Mo 11.078751833666738 7.311827714014077 6.99348330941843
Mo 9.405453005649042 9.067004391683614 9.956906235606695
Mo 7.004855183894467 9.40910960532872 8.411101670019047
Mo 11.116858868741284 7.012381646471029 9.097646244462906
Mo 6.630959041560166 7.846282758880989 10.36931806124658
Mo 7.842974215207032 8.56565990896561 12.045954977811109
Mo 8.511204152426805 6.446182502574552 10.492297318346479
Mo 8.672112203480012 7.235890194582083 8.334960482771649
