11
Energy = -93.59212964 eV
Mo 10.62198695627674 9.33822243208355 8.572229449426445
Mo 10.464127166936377 11.815847155267061 8.32842969922569
Mo 9.032159471455332 10.03121841682918 10.153987178529434
Mo 12.60067558494391 10.836703208957502 8.833955219174184
Mo 11.830814944595431 12.717483590255766 10.121836834664819
Mo 12.737861367990751 10.716438595296193 11.327469410856727
Mo 9.393320360310932 12.355312652059895 10.516193396236538
Mo 11.357801677485877 8.883388105983732 10.778387361505521
Mo 9.30505935616741 8.446594438203457 12.594477761738364
Mo 10.549814306763828 11.04384696432322 12.125496525440981
Mo 8.184521498845257 9.893087132512392 12.725679854973244
