19
Energy = -166.59648841 eV
Mo 6.6360389256284495 12.538175103859489 10.635020228946706
Mo 10.969320960703214 11.798636844439827 10.235387842427597
Mo 11.77701138883712 9.214634618771491 10.272772377923662
Mo 9.239258109974317 12.29062751426209 6.984882221272787
Mo 6.948318521683583 10.684298811915536 8.420749767495963
Mo 10.341479532062834 13.382628075704373 7.881140682304531
Mo 12.592634985706718 7.901756974084477 12.655338516460258
Mo 12.515121746470934 10.496629713377633 12.193038299895175
Mo 6.908911505308879 9.277484863421718 9.601915583038526
Mo 9.513459000255523 9.9225600635001 8.607406477432967
Mo 8.868208742641835 10.871776333426238 10.92623920175734
Mo 9.536152896984076 7.306804794359722 8.476138165372879
Mo 10.718778382928878 7.079505840935589 12.78038725414381
Mo 11.593842114285552 6.909854963863216 10.299854496918659
Mo 11.326199628143744 7.909637315266152 7.753899661054487
Mo 10.494958008613075 9.870857091600005 12.719267132138825
Mo 8.078857732930604 13.195699794780126 9.780825743772068
Mo 9.411915601148335 8.304575031174519 10.909624878951236
Mo 11.636614341832164 10.716235729879205 8.169097800933539
