18
Energy = -157.67244212 eV
Mo 10.403959016488978 9.911018361421414 12.370249090049883
Mo 8.614450007567486 8.44285081166604 12.768395906781388
Mo 8.824186747012849 11.41069892942783 12.93935712759319
Mo 10.591067607744089 12.842100960966013 12.283727462624698
Mo 9.496598084227108 7.569328866291029 10.773390875978299
Mo 8.061174972663602 9.99147275617077 10.81058335041938
Mo 9.594060940844694 12.624100693238534 10.439199906517059
Mo 11.957760936552353 11.319975054590005 10.53246392508117
Mo 12.755006198865395 8.874880356430467 9.78432891378925
Mo 10.113488701519412 10.007181660246735 9.621391663020216
Mo 10.511096762584293 10.018439731515434 6.800648781396324
Mo 8.163563999229062 8.94779796667121 7.927568397916944
Mo 10.688801648577236 8.037452505374084 8.29548101332533
Mo 9.223699501963523 11.638533986652087 7.735299590898984
Mo 11.352396892721815 12.191365157268558 8.27671470717124
Mo 12.90284213290906 9.949239521583923 8.120077340897161
Mo 7.308816631621701 7.488665924379984 10.26712350028189
Mo 8.271073182169289 6.861262936282258 8.194270536083929
