12
Energy = -101.68472111 eV
Mo 9.094034145453355 9.374897399796982 8.289472157441255
Mo 11.893390399630535 12.943388325338526 14.484513078739903
Mo 12.447481713342684 12.232264578841077 10.929113400085683
Mo 13.164711253629429 13.823638896205486 13.09956621800152
Mo 11.40718742282056 10.958655229837936 8.578766904596662
Mo 9.657358726575909 9.065452584139129 11.071417102438561
Mo 11.591272804275873 9.429876450688093 11.035833297911804
Mo 10.5100985523269 8.246722557988898 8.527131872851717
Mo 12.733187053541783 11.022760006293698 13.352200107125203
Mo 10.120484676500379 11.674937369248426 9.879435290132268
Mo 10.655854617758607 11.178903667498236 12.730868887692504
Mo 11.139352097981224 13.70530402631258 11.844276574507841
