14
Energy = -120.77119405 eV
Mo 10.168884792523363 13.29539931759747 9.183719339765354
Mo 9.332108772583418 13.717151356401818 10.853465150428397
Mo 9.749586277302411 10.265357592593139 7.7978166789361625
Mo 11.759143772064657 11.068287946191445 9.639554563817125
Mo 9.213966301828796 10.948931493096001 10.10788758677867
Mo 11.118685837699235 12.179261159529567 11.67219298843273
Mo 8.62485656496552 10.569139270975157 12.713271645118496
Mo 13.361574030067398 10.351742883521535 11.863194784299665
Mo 8.02333393092744 9.05594568651111 11.881244269352369
Mo 11.54465907068867 9.014693326392083 7.71246477596743
Mo 9.49300688561364 8.432348467555347 9.48927068259117
Mo 12.449188779245961 10.922621248703175 13.407781660557882
Mo 10.799763476591206 9.500278664143128 11.459950277726524
Mo 12.013768932761987 8.255264163036884 9.679717353075928
