18
Energy = -157.87151459 eV
Mo 11.338114667800113 11.480753994914485 7.705696149254764
Mo 8.393239514840472 8.811701409343343 12.620543575641133
Mo 12.46195283399685 7.985263351086815 11.365109099495404
Mo 10.958139398511337 10.151520059685541 12.505158779731543
Mo 12.357233222765869 12.153845259270364 11.140884916183534
Mo 13.17085291146221 13.124614328608754 8.972062347930306
Mo 9.487263530104913 7.9469175758638295 11.347652191082341
Mo 6.961620479577866 8.777037782014364 9.93683388325983
Mo 11.429615110093593 12.153491092702842 13.669758340406165
Mo 13.699391859065944 11.188190014101483 8.830547454820403
Mo 11.312212819235267 10.042922169712606 9.681518996878813
Mo 9.998465813406957 12.773254808332673 12.354856340538145
Mo 8.831841136129707 10.757911730572696 8.268615944403447
Mo 6.530825398138609 10.376714417328904 10.668225992207525
Mo 13.46979897171239 9.513021998961722 11.430807634723372
Mo 10.493034910731819 12.646867480124365 9.596888681493546
Mo 9.474895212662853 8.795441497754275 8.564961178067394
Mo 9.1607056684042 10.766228689852792 10.84551377511617
