14
Energy = -121.07940524 eV
Mo 14.702177824777547 11.45283526386811 9.706487581642051
Mo 12.035550295331278 10.286233459935021 9.756369040824325
Mo 9.411186720316294 13.083658803033648 9.110766336218086
Mo 12.331439077492963 9.979575497655532 14.0720781650574
Mo 14.071604519558994 11.582080218987722 11.406565111810535
Mo 10.5134478086331 13.649694301668044 11.072550088896095
Mo 9.561254974116986 11.440074087110965 13.901911728752133
Mo 8.82728570318671 11.726821243826166 11.31576783475256
Mo 9.535266096815926 9.621945174978707 13.231921629914025
Mo 10.02158014382289 11.088238513871122 8.47830744212951
Mo 11.301360086991165 11.46383153290529 11.922329563826516
Mo 12.10957327309397 12.573267058257912 9.533383137965814
Mo 9.687687125626805 9.719663022393613 10.58993039561316
Mo 12.447575854343718 9.00041521066311 12.574789461231825
