13
Energy = -110.57553485 eV
Mo 7.451345646258674 8.317058202863963 5.985355830873456
Mo 8.36036435830068 7.988810644145055 8.722823743346545
Mo 8.175858996336865 8.264242240773918 11.474767065980474
Mo 9.990832215642703 8.166473093027225 7.073499052665727
Mo 10.438707261920195 8.25711289363152 9.898447054084102
Mo 9.997045214954337 8.373432891199867 12.385564712141012
Mo 7.553214373052338 9.883637490729223 6.890210167588238
Mo 8.591473969380086 10.449933049534089 9.564806513281631
Mo 8.689621540897164 10.858957278569516 12.161997126791547
Mo 10.239483367398712 10.837548817800014 7.457226403869103
Mo 10.72018343811254 10.663285457226388 10.217461570086364
Mo 10.56127435051414 10.992959245782304 12.776873953267627
Mo 11.765696291956688 9.481649744167274 7.926067756574083
