14
Energy = -120.38829946 eV
Mo 15.945077484051124 12.899704090653943 13.155094984734411
Mo 10.002500371496499 8.445053614773743 11.021094102388837
Mo 13.741298392635485 11.847995250064118 11.73221044365064
Mo 11.47184889981544 10.376583834692186 12.342516470050668
Mo 10.568650924851875 12.72880001905891 13.353221980877267
Mo 14.828852919090206 14.224302100291794 12.727847898509786
Mo 9.118304646681938 10.03334122077105 12.427335110496937
Mo 12.948666720854526 12.130028290000427 13.702075680105397
Mo 8.212504904134127 10.334101506283442 10.090877402276462
Mo 11.907907707113306 9.291321650762452 10.077731641387219
Mo 11.873816940990203 11.69203613838545 9.961014472022631
Mo 9.811034138886406 10.234471130881174 8.876639466181938
Mo 11.938332272172747 13.805498231303641 11.945355368143927
Mo 9.89157584522928 12.198008548747014 11.062508019275112
