14
Energy = -121.10963607 eV
Mo 11.433315735355704 8.742604365141363 7.838900335867598
Mo 8.913130474491975 8.3815667212853 8.38119049153001
Mo 11.329597040164451 6.9213668364293115 8.600764328556602
Mo 9.062243593488105 10.193957929079719 6.396956501284052
Mo 10.977054411638683 9.042517218880402 10.344648390148858
Mo 7.256948403207875 9.442905710074445 6.601849329755868
Mo 9.691908171810304 11.17608376861168 8.79491762689761
Mo 6.6598491688943575 6.85369707090925 8.402612998541123
Mo 9.672701408466642 7.427040961743791 10.943249714978675
Mo 8.994912694057156 6.017979698778414 9.12866624061629
Mo 6.403172945495634 9.835014704604914 9.003613870239219
Mo 6.815134158300278 7.449045969741941 10.24572163198585
Mo 8.296751777962495 9.906380018036025 10.27998656813904
Mo 7.686468963869704 11.758114850170248 8.232939323646603
