19
Energy = -167.67864348 eV
Mo 12.60712175105814 13.58195329440477 10.902400342426064
Mo 8.486450270654615 8.085768893607922 8.970329294090185
Mo 9.764908957556118 9.391062620358781 13.677023185079278
Mo 10.930337761119649 8.98964927448591 8.405813124161243
Mo 8.159992952410208 10.249774403312582 13.524261760330255
Mo 12.241082834832849 10.31029381007304 12.54541856113639
Mo 10.175684092169314 6.876584009232896 9.461534695128169
Mo 10.85310518880416 8.827783893650492 11.071656196548437
Mo 9.320226044714731 10.503805067443048 10.014661848049538
Mo 12.795176566976973 13.592910846798452 9.090603795519511
Mo 10.576205686355218 11.963207123130786 8.021203755247583
Mo 8.509412209912258 8.271874074943417 11.380484441328498
Mo 13.383391321837445 8.998296619882455 9.24396944280702
Mo 10.548823174349756 11.585089424142573 12.164283012544596
Mo 9.954156602682342 13.05589053468068 9.496659314231952
Mo 7.538399648601486 12.034844635904866 11.387594551996273
Mo 6.80124320326556 10.385440734087616 10.978632809063805
Mo 12.098411728606994 11.089973505964112 10.053777947993444
Mo 13.207578542826415 10.31251350521363 7.799778600269737
