14
Energy = -120.85433059 eV
Mo 9.468305968527263 7.1433911335338225 4.982322149532198
Mo 6.862416612765841 7.870364053277828 5.2750846101910644
Mo 10.27188186689126 8.675982509453227 5.886077949307043
Mo 7.874588860380788 9.501758877608093 4.868596494072223
Mo 8.682894979525805 6.982307959508988 7.446205930445007
Mo 7.852482638869021 9.387888063642324 7.440355145490022
Mo 6.24554538564069 7.629615471346811 8.016146650513816
Mo 8.35872843546707 10.420799584367337 9.870726726943843
Mo 9.940801569187693 8.676584168137047 8.712474406534797
Mo 7.124872284439062 5.633230235825105 9.374236955129335
Mo 9.332580081533735 6.714801059305458 10.013326823215277
Mo 6.366338238976055 9.391096123771908 9.744314970470768
Mo 8.640442983189217 8.599071414986337 11.21625482281519
Mo 6.605710623636653 7.000699874265574 10.781466894369565
