18
Energy = -157.5350985 eV
Mo 12.371250483920525 8.382877675567226 10.219562834716116
Mo 11.117842600347686 8.106894447052984 11.602082317136604
Mo 10.225930822922471 6.82042972267831 8.962696346769205
Mo 11.051991784455785 8.244526626699793 7.78877468069836
Mo 11.524879699351734 10.712547411244374 8.85377600982159
Mo 10.848533119884726 10.722850279493656 10.975923103859147
Mo 8.419108951735765 9.382780188964048 11.928351230240727
Mo 8.525125481638351 7.031389652540504 10.858345379134066
Mo 9.125875104763267 9.416521823304226 9.392862655238
Mo 8.457149397647386 8.161829846444142 7.082183828365707
Mo 9.271146439952153 12.068677474806147 9.02339152295225
Mo 8.596317052371214 11.89020319150716 10.911485417446297
Mo 6.643005041140665 8.160429682380288 11.648344392443866
Mo 11.041022693836943 9.957246304800886 5.641743571557735
Mo 6.489284167555297 10.012782849443031 9.72287575465262
Mo 7.215350171235067 7.611774051257255 8.802562265109511
Mo 9.675039532828034 10.754606980913811 6.455761614445064
Mo 7.103252572443288 10.309207288530686 7.8189759491863065
