17
Energy = -146.70319594 eV
Mo 13.102669190929431 8.731476998481643 8.03403766158408
Mo 7.819398752101584 10.742969900139277 8.620062679227274
Mo 10.980307281604203 7.656763062613859 7.413765576799365
Mo 5.500979051162365 10.191958758296344 8.337567749206835
Mo 10.503161475543836 10.098737588329042 7.606554694810807
Mo 13.997496057484605 7.496528400559746 9.803445333225383
Mo 12.436920868997428 10.876273928830685 8.920943063919028
Mo 5.5967808495095115 12.13340547530503 9.86407751271761
Mo 9.216064698878412 8.42056033782452 9.017066038840515
Mo 11.678058693029012 6.948110416751324 9.59065758711592
Mo 5.2464979233374995 10.397978387607955 10.975521441530725
Mo 7.842240395566773 11.764301435121304 10.784304376332987
Mo 6.582377161429689 8.436789983298027 9.458122087404998
Mo 12.795213706919776 9.25567319012103 10.705219885530108
Mo 10.222320009072618 10.56407586577939 10.077638062231433
Mo 10.402233429285445 8.438938163013315 11.199609045076384
Mo 7.6993117699183315 9.467489422697708 11.21343851921726
