14
Energy = -121.58101128 eV
Mo 9.018449057402568 6.813699546769428 10.702577012593153
Mo 8.910167314000692 6.225748506714266 7.699737564680548
Mo 6.182982155710807 7.910068125249833 8.479476795789852
Mo 10.686316623516625 6.912749069764012 9.857392907626798
Mo 10.17687660892722 7.371169944078446 6.874736967030223
Mo 6.759430423206799 8.614101828471586 10.493470560556743
Mo 8.762794230218441 8.682627776570762 8.701132073191454
Mo 7.660049970156285 8.483304271768212 6.065510819165639
Mo 9.898074742469737 9.51931712114932 10.878331655574703
Mo 11.268778854542743 9.635582997776362 9.048644502735398
Mo 7.8674806630066065 10.788449865345429 10.286112407109936
Mo 8.726435907727158 10.00802073350601 6.290775796681496
Mo 6.660247787037716 10.132316892239393 8.237981017773647
Mo 9.741146069315468 11.186695860477847 8.736704983092537
