18
Energy = -158.47033016 eV
Mo 9.585420210466772 8.828427156793955 8.492516662064565
Mo 10.426568907097401 10.400688892232015 10.447596580423776
Mo 10.365305441903475 13.186878205436154 10.144870520575028
Mo 10.388642805243471 7.632495264244396 10.463986469786992
Mo 8.886045800219739 9.054303821555866 12.059260310102044
Mo 11.228998032138593 9.448546813195241 12.881279014645663
Mo 7.570456695796008 7.873667004299024 10.056641808905276
Mo 11.174260338082986 11.984860313617332 12.320246598645287
Mo 12.519308147343324 8.571526228282123 10.727116942293673
Mo 13.035852416944035 11.173673701281427 10.699740239233618
Mo 12.00431614869242 9.181124061180775 8.52264967138711
Mo 8.61048656283034 11.50517493942504 12.266726208629375
Mo 10.42774046708504 10.60262460328686 6.61291569903595
Mo 9.144991599196166 11.402631733425112 7.832199462738839
Mo 9.614932280144563 10.724893367794849 14.069743788834957
Mo 7.4753247943361165 9.804815589092776 9.844328185169426
Mo 12.497764547811748 13.497301765125483 10.584265822078885
Mo 11.727750900518645 11.764714616536683 8.642734005795619
