14
Energy = -120.52275494 eV
Mo 15.211819687934938 12.04657144440785 13.112966352692363
Mo 10.92808184444791 12.747860562437403 11.446211070238382
Mo 10.17719596249257 13.34401476620796 14.09362170518663
Mo 12.634460192301658 10.893782038783462 12.643911987877932
Mo 12.44148933763152 12.999665489153188 13.561328897836592
Mo 11.795764794558586 12.184448165451457 8.935206471782966
Mo 8.967704979335723 11.412034253274955 12.783957504601482
Mo 11.232843428044186 9.59026763044761 9.168764041905378
Mo 9.750211845001756 11.47793138305339 9.721526194852887
Mo 10.50800586097218 10.031375041774009 11.750198595914073
Mo 15.032789148196366 13.801938453082494 12.662905073280601
Mo 13.062723151080979 9.989077601637952 10.012767106786635
Mo 13.321507955503678 12.429274189924218 10.85665305857172
Mo 10.485727617373891 11.157924546886274 14.466034168572701
