14
Energy = -119.81353848 eV
Mo 9.875390335937698 7.635237079822904 6.231384045812366
Mo 7.527234354555184 9.031805091019438 6.608820785894797
Mo 4.923273108553321 8.58581353040356 5.741102889126956
Mo 7.311316582136604 6.661017621165296 6.640351172637326
Mo 9.581896163432724 5.487019797906977 7.286057117678283
Mo 4.864337969973525 10.073690202666917 6.8261604733795265
Mo 9.869930639505032 9.750124259432532 8.253054598200896
Mo 5.655387302544658 7.889268253321738 8.307783009986126
Mo 7.3928689705021196 6.004989339351007 8.859722295041811
Mo 11.018768165370902 7.651775617549483 8.125700989745564
Mo 9.71761302502947 6.0245150545526 9.524471028609062
Mo 7.26449673319622 9.89720795671158 8.669536181692536
Mo 9.417480534609485 8.619242014995002 10.046666971555583
Mo 6.925175685903735 8.033463752352356 10.224358011890445
