11
Energy = -93.39317991 eV
Mo 10.7259264557017 8.664929609514669 9.46466306725739
Mo 8.9657305712577 9.327806836433766 7.515224698662831
Mo 10.126889352547261 11.439779409976222 8.952727534754091
Mo 9.156154785851582 6.649396444040925 7.848102401683408
Mo 9.170275415902116 6.893536366118386 10.351577151074949
Mo 9.802581126972516 9.538974261775072 11.045993681260708
Mo 7.891201631028484 8.673327757119077 9.376972328128671
Mo 7.227543441175993 7.733885089297406 5.989629012960087
Mo 7.249083175797745 6.254470237518569 8.42068548607548
Mo 6.26142909586722 8.855712793842734 7.070118034162758
Mo 8.304316466023037 11.466287823421796 9.165529004676884
