16
Energy = -139.33044421 eV
Mo 12.2108379133717 10.375687249833582 11.52945940496698
Mo 11.678958482474753 8.265023540101083 11.799336710712318
Mo 11.340208468273778 11.681681894534973 7.275824832228331
Mo 11.226997961110019 9.355274232610148 9.18342438818304
Mo 11.255063003137547 12.162303174555708 9.039467137355302
Mo 10.736523492039042 8.938060336014736 6.771369120252839
Mo 10.570536079792513 10.346738519078755 13.226233618919684
Mo 9.533392205114229 8.424151926110442 12.746772128977145
Mo 9.522248924587712 10.788937815711694 11.000149777795903
Mo 9.609640279482663 7.400366955933041 7.736388902268004
Mo 9.243547084230014 8.394938802322224 10.177376406558588
Mo 9.059279499593067 10.60162012796054 8.46136610852998
Mo 8.101339531611883 9.026896891693523 6.648168657404084
Mo 7.2085349211341025 9.894298907804952 11.37034676312274
Mo 6.896253619870111 11.095571471963586 9.79310841493568
Mo 7.226384243059097 8.715940728972125 8.673348415332752
