15
Energy = -129.91430265 eV
Mo 9.748304330790955 10.710033540900056 11.948957927648161
Mo 8.418782186440927 8.048096872251493 11.993806120423631
Mo 11.252397880586512 8.896041344513613 10.500649561117998
Mo 8.806052086764504 9.33869215964849 9.728683951558844
Mo 8.898824880814969 11.867078513839937 10.58028851928068
Mo 10.931512196009615 10.91932794597656 9.34427820625137
Mo 7.093287507365241 9.40357616578081 11.762007590611015
Mo 9.220110190307292 10.384836794709825 7.466604110043713
Mo 11.995804287171925 10.210000511987996 6.81948402458716
Mo 9.167909281965553 6.764022316274268 9.193197923754989
Mo 6.534034590736686 9.141249797352133 8.451825357220994
Mo 10.887299300678597 8.297116105200352 8.266473363527918
Mo 6.9345030883873084 7.305416246665531 9.697106516607112
Mo 10.683627322309539 9.354207702107583 5.69727132129753
Mo 8.214457152574052 8.083110000192848 7.301507205411724
