11
Energy = -86.24487621 eV
Mo 10.363973703798228 12.706772476159852 12.973785451410716
Mo 12.136452815934144 13.227991809696453 14.325000512338681
Mo 10.204195031113533 10.16426224605743 12.451047370857712
Mo 13.015196016020345 13.19344690545617 12.450013201859848
Mo 11.624769882794494 11.744175893734973 10.850278659741068
Mo 13.022584747083004 10.660507090639026 8.814362908942934
Mo 14.357729966841639 10.17786358887219 7.446957583880438
Mo 10.463187690547176 9.771551699716328 9.63927226828017
Mo 12.51137996338015 11.271882729532672 13.617746628206298
Mo 8.837109332922582 11.48624848255715 10.880392451542235
Mo 8.535010232606806 9.39481916064573 10.896931953635905
