12
Energy = -102.00694454 eV
Mo 8.708029099481505 10.329346340943843 6.588688361434981
Mo 8.256453750814137 8.921530085090323 7.578738940399193
Mo 9.603816269305417 7.933882151020579 9.952813268036707
Mo 11.343040691871378 9.650315807113296 7.973333926568312
Mo 11.076355405885089 11.580754424570227 7.408186173827052
Mo 9.370608098506832 10.544908093132856 9.482047281818318
Mo 11.645307384949252 11.818355496393346 9.687881978761167
Mo 11.565313524020523 9.735327400885794 10.770297441737702
Mo 7.994596693593456 8.706970941256131 10.851395926003994
Mo 10.116343572260662 8.358080425911165 12.636176170043484
Mo 10.0814539063286 11.055866974388552 11.886959128409279
Mo 8.650605839551847 9.571596060031677 13.223116614468191
