16
Energy = -139.75317294 eV
Mo 10.750637283184542 7.008748769294101 9.992484927395854
Mo 12.30192366015244 9.102513886413957 11.488589787126163
Mo 8.932049214692126 6.870981530467887 9.94662347972883
Mo 9.60386099258554 8.957439908241032 11.803190880529193
Mo 7.443834285103152 10.579325412375207 12.501345822894601
Mo 11.037703777117619 8.546374319232399 7.11930921431635
Mo 12.636452333888572 9.42427223241561 9.687255892418998
Mo 7.299711155469294 9.143652620821612 10.599187279305706
Mo 9.510447651267894 11.094534722315457 12.868796618473239
Mo 9.644013224854309 9.529697515923598 9.247535131855576
Mo 9.798917578630164 9.645742626181471 6.444212916650721
Mo 10.675356634230521 11.198387705479373 10.597445009711919
Mo 8.190980536580096 11.6969526560658 10.236656802081345
Mo 11.686454980233448 11.544466669021622 7.894567774807053
Mo 7.511481164461351 10.490361805521427 8.496048214949578
Mo 10.016811137270919 12.249974098298056 8.080266898473914
