10
Energy = -82.84677748 eV
Mo 8.447374894645291 14.569398260329574 11.107553140725061
Mo 12.022488075523864 12.157086598003438 11.014715557451378
Mo 10.311052409773328 12.814599146349327 9.504700792594456
Mo 12.071666920030331 10.290317125657534 9.701753190192722
Mo 12.951102426663914 8.218672794725356 11.118131354668567
Mo 10.8533535578173 8.573091601283496 11.377601020854344
Mo 9.739951760302032 10.848843140442362 10.172791924605008
Mo 12.858432740652326 10.063579784998838 12.394561637887282
Mo 9.237249109659052 13.263390651023009 11.942055302098579
Mo 10.598735530704488 10.662279466668968 12.653792867842597
