15
Energy = -130.28013602 eV
Mo 5.59008111289234 8.904604659925859 6.4233751386389795
Mo 7.357404329181489 7.368582548577378 5.004971504751511
Mo 9.62316411028819 10.778223687797 7.699205356324223
Mo 8.901142232284585 8.212989655076484 6.893285660293755
Mo 5.389211192717982 6.563101326490665 5.942356977182348
Mo 10.627500664637983 6.7885347703805135 8.449467396901035
Mo 8.03928400106646 5.82980611933156 6.487367203127574
Mo 6.099031012796202 5.592328453432696 8.020801437692313
Mo 11.275060745837745 8.496692010138974 8.483673580618303
Mo 5.23126670792777 7.878944788182801 8.351280601869286
Mo 7.928351806812868 7.043646010400793 8.94382438813699
Mo 7.301597407587087 9.351919351501584 8.316885272937135
Mo 9.561920082782857 10.735191405540078 9.517110783725613
Mo 9.612414762926381 8.094918783090224 10.936992188692157
Mo 7.915710731933895 8.813657331807095 10.982543410782197
