12
Energy = -101.63169072 eV
Mo 7.320140726731176 9.007604225090807 12.14295957521558
Mo 9.626977511058733 11.143442806597516 11.731896507751697
Mo 13.795853328104277 11.29618587189666 9.353623685386012
Mo 11.19934402318413 13.180448988392898 11.10569682113394
Mo 12.16505021231101 12.684347007084787 8.662275935021594
Mo 13.20591903509739 12.720536279607806 11.262215381730398
Mo 10.165349643906191 11.385938393148205 9.294542251488195
Mo 9.540637373332496 8.831514140190713 10.244537522072715
Mo 10.195300748610553 8.37187564811094 11.951966827111304
Mo 11.836304676089538 10.480596311613459 11.369810915214595
Mo 11.974543591073454 9.912483515163867 9.020566974427073
Mo 8.136432954422016 9.643320522085391 13.604609292461676
