12
Energy = -102.81669343 eV
Mo 11.365934741831756 10.669417596468493 9.47821898584358
Mo 8.55817202078781 11.260076405549253 9.681013371167055
Mo 11.972548772262195 9.227475023199524 8.560243201763837
Mo 9.503494992195193 8.477713879334019 9.788555165608713
Mo 9.365480800424043 9.67483933791252 7.579203978905689
Mo 7.081284565866989 9.227642832211185 11.140512957738665
Mo 7.1193869016870135 11.102960450530706 8.459992864256474
Mo 10.291381325220508 7.108483265105327 7.561373121262457
Mo 7.2256155382300635 7.42409517792118 11.079279108004043
Mo 8.344267308110703 7.73507184718503 6.357359525475954
Mo 7.270665411752256 8.52773882515552 8.331222317238678
Mo 8.579472346584463 6.3834286123130095 8.702311267423452
