18
Energy = -157.60957871 eV
Mo 10.48165303589709 11.42316618003544 11.151542440266763
Mo 7.715733254209329 9.686970413330574 8.522777701471043
Mo 8.220772285337382 12.8659669559994 10.619074217269283
Mo 13.041259075781765 11.087030884946735 11.542738264102308
Mo 10.597683379605641 9.572589582362315 13.037606012760712
Mo 8.973737158884623 8.379291498651202 13.023110463809436
Mo 11.50754530166657 7.4040769448793675 8.50360045419461
Mo 10.294416958474395 12.70831345786675 8.924193040964383
Mo 12.165855944780667 13.367282730791072 10.16381797688034
Mo 12.795752305819752 11.422754006543158 9.284894383790053
Mo 8.43484099870179 10.061640864912452 11.217717021243168
Mo 9.306428941026148 7.684870902604039 10.149325211040509
Mo 6.702267832285455 11.576140388734066 10.41714909179391
Mo 11.842498808186038 9.060756845246653 10.73424851236598
Mo 12.547023728358814 8.818435139894463 7.978930169780198
Mo 10.303308427391295 10.094981554172701 8.95978946528902
Mo 10.518569361930258 6.900766926766621 11.490481171760502
Mo 8.07777108915355 11.51017031698857 7.990776578841529
