10
Energy = -81.26102209 eV
Mo 16.036562027379773 13.173897739813928 14.264507290335377
Mo 13.388982934361639 12.276590477642456 14.262324750648311
Mo 15.21725289779249 11.655706118109967 12.685656466929906
Mo 17.237945990808225 14.694262434051325 12.758664685340241
Mo 5.173484408858586 12.901665798746345 13.635329843940086
Mo 17.431114840496047 12.964593524085016 11.749958646357141
Mo 14.53048724057459 14.696228456466065 13.136742398252975
Mo 15.10331760679553 13.537871770490385 11.191389086558697
Mo 12.697385458663348 13.11373134958531 12.601816095307584
Mo 4.355792476590076 11.40443820811378 13.68282475193221
