18
Energy = -157.51732422 eV
Mo 10.746139527106237 10.882605627593932 7.346915732643974
Mo 12.212938298050215 11.26703584354304 9.30179344177416
Mo 12.377981656601268 9.209224382806532 9.215367738662117
Mo 9.966559396320784 12.898350332463869 9.026680150602077
Mo 10.66024337394185 6.325182854702893 8.728798119816618
Mo 8.520069320986776 12.027190065136894 7.988692333882159
Mo 10.39236822180848 8.274812826889745 7.749235999480597
Mo 8.015432087590284 9.092436310086459 7.976576723600888
Mo 9.65626427223947 10.095549064035653 9.676240067919553
Mo 10.73088868976634 11.755271525540888 11.792079496704552
Mo 8.12152337776062 6.668685292938285 8.088575046926664
Mo 10.355923163537785 7.9633686874031895 10.750957590497078
Mo 6.838138480134221 10.76246117752794 10.130349383049968
Mo 7.975321293072212 12.061228957406243 10.9678108396699
Mo 11.645568614632143 10.162963651475263 11.967332032801043
Mo 8.70531876050617 6.060845612405893 10.242822700763739
Mo 7.625086344305938 8.217354128796487 10.303753079474632
Mo 8.730806787074698 9.67075787285185 12.009177957949925
