10
Energy = -83.30046924 eV
Mo 13.704817040222412 8.990582437382285 11.651481828861746
Mo 12.154289802041658 9.576866494161859 12.960000484576844
Mo 13.293562544362432 11.059868943256745 10.966018439413252
Mo 11.444589289908562 9.617698075120842 10.183679899594319
Mo 11.139631711409978 11.568988954260266 12.007151277170816
Mo 9.429515769994353 9.941723303939348 11.545867074286408
Mo 9.601376837598295 10.106106795380006 8.637623178350365
Mo 10.458812056854622 12.057403513034306 9.254024245098789
Mo 9.011418463242485 12.711132368293262 11.109306991851412
Mo 7.961629528309608 11.168309250702277 10.05778067150651
