14
Energy = -120.03514528 eV
Mo 6.199375935921557 11.589077358982339 10.178064801119017
Mo 8.739069618807395 9.208491996447117 6.756352190771892
Mo 6.658534278247276 8.948816579635531 10.793835467727227
Mo 10.527098653185504 6.740874838528289 7.981377149708192
Mo 8.259872421516095 10.721807974156409 8.398753758195278
Mo 6.166216864004325 9.074139781112223 8.869499302582181
Mo 10.681481739782052 9.387417561472084 7.878673616472753
Mo 10.7996885340768 6.773323839298434 9.979782531051564
Mo 12.55236481228121 9.215553663361803 10.045562613783941
Mo 12.985121739479137 7.926105478692644 8.826436247784399
Mo 8.538871842487927 7.9777715394701465 9.137294691020237
Mo 10.377348911810607 11.268464217907896 9.519592035821331
Mo 7.81052347945662 11.715225023119695 11.042907185219253
Mo 9.639443742179868 9.426322200829702 10.57541747653895
