19
Energy = -167.50176491 eV
Mo 8.433255092153601 11.516586168092962 6.8961934815971855
Mo 7.220242820342034 7.026417974195653 8.759840122124327
Mo 10.207742408098344 11.545021980567082 7.895502683380566
Mo 8.316226679840772 7.981539207276073 10.838272423236349
Mo 13.06718491357768 8.36323484556264 9.567283359686357
Mo 9.153167796009628 6.529590346683523 8.60909362839547
Mo 9.663749830011058 10.113631521802002 10.233284580127206
Mo 10.746477671949 8.842518732521748 8.269626314662405
Mo 11.48244372246596 13.596543758965149 9.725311799322812
Mo 7.81479908786311 11.723678203979487 9.202903379129701
Mo 11.657617938883105 11.133745726479592 11.670967337473416
Mo 9.85641750549917 13.178067321700865 10.390163891228942
Mo 8.338506648915313 9.196085559147663 8.178695140170612
Mo 6.549128803287066 9.846196875713218 10.388297889128417
Mo 12.273710431667539 10.832963469352054 9.666164521405173
Mo 10.600210831404718 8.8818785110588 12.43566789266789
Mo 7.706058609542813 10.506910354493762 11.897036722440166
Mo 13.019671418017207 8.864937172292217 11.568133214084009
Mo 10.743550066762511 7.538232385945231 10.592607720341887
