13
Energy = -111.57165485 eV
Mo 9.833084702104195 11.643215788728698 7.606479745402113
Mo 8.262346934766295 9.659983544531269 12.22347849808306
Mo 11.593928263008456 10.11521232112004 8.456706058078838
Mo 9.476967524780667 7.742016549350881 11.965016054531741
Mo 8.570838970683882 7.821505816468497 7.611066135526977
Mo 8.047720290749409 8.959684782771548 9.751939832563346
Mo 10.16006240151648 9.370056659017457 6.612316007746976
Mo 11.554905684850588 8.572486982380084 11.520039123231207
Mo 10.39727412034922 8.184231139346776 9.250700191766851
Mo 7.925487861881107 10.108817681873722 7.089271741423891
Mo 10.436773605626225 10.17529423441205 12.719862204701444
Mo 7.982738850880086 11.305478405896894 9.22834891000195
Mo 10.083338288803118 10.667483594102494 10.290242996941334
