14
Energy = -120.15566152 eV
Mo 10.48395581264357 14.463346995696233 9.452361613861354
Mo 12.114111388860387 11.838346894424427 11.919250329773007
Mo 12.705365678056847 10.767911796929027 8.488397646512723
Mo 8.569669485376528 9.579989803576398 12.59603610563522
Mo 10.941485071411176 14.339119295990768 11.274148563486742
Mo 10.55915296960068 11.76489427988154 9.729651861347259
Mo 9.056301698487893 9.757556375491854 10.550114456258749
Mo 11.766065906030319 9.597513120230206 10.43273445330754
Mo 10.613493213749967 8.299920476273137 12.494690999929176
Mo 12.798561411620609 12.980513372416816 9.65263817179491
Mo 9.608953014948117 11.982284670400462 12.081465131673895
Mo 13.997892245962404 11.00070455621137 10.322204648490692
Mo 12.420175642366777 9.420940465222559 12.881422040215234
Mo 10.569403641188863 10.740063594615641 13.830566658278737
