19
Energy = -167.21434038 eV
Mo 7.144824323179218 10.112980004886913 10.193375889149873
Mo 10.813840585517461 8.827153950614214 10.741730648420782
Mo 10.972639860549888 9.006100984813868 13.405898150031982
Mo 12.033599846624414 10.784970830888934 13.921085093401768
Mo 13.614565746493728 10.93180355604162 9.254723220524577
Mo 7.650817280296065 12.673383400160569 11.424365854947634
Mo 8.792128857806496 9.678404808892612 12.115663707291109
Mo 12.87065710987099 8.956679243098963 9.311269133710514
Mo 13.565995015279722 8.527017030881971 12.341381846554
Mo 9.87476029660599 11.532551057393498 13.144159101534415
Mo 10.992377941475814 10.603248908334583 8.25734229118969
Mo 9.829736701466835 11.363180360342197 10.429199993182815
Mo 11.741500714291295 12.49400161749543 8.997988639437748
Mo 9.14324374829838 13.71557730881679 11.727849984728653
Mo 8.345890489281977 11.97979018694098 8.137570668694256
Mo 14.793933153593954 9.513898092060385 11.529942296832907
Mo 8.88001038699054 11.165751098487007 6.608861534346397
Mo 12.105751673392197 10.818006949766504 11.412318952225021
Mo 8.553908613537478 9.21919759214666 9.200321267923398
