16
Energy = -139.52952463 eV
Mo 11.494993177420476 9.280178268897432 12.447586910402796
Mo 8.977047768149793 7.938822747904164 11.980769600140322
Mo 8.059159748592347 10.668431737602097 12.028512578740894
Mo 10.650681113068762 11.935399974413162 12.226080864080204
Mo 8.84125885448725 7.311734187243444 10.276458340689048
Mo 7.18649357964729 9.987174467357413 10.455981539393226
Mo 8.961017607424841 12.274703515849698 10.208689342556754
Mo 11.769462185125846 11.85273590339977 10.67372412693943
Mo 12.255665374990103 8.584501326296808 10.949792373175518
Mo 9.973744688862814 9.877016068797479 10.105540206395318
Mo 10.128811473963234 9.524713901099972 6.565804837984324
Mo 8.414298772064074 8.936830157463444 8.004635158718143
Mo 10.828393759223497 8.048366342916486 8.157483311939119
Mo 8.510928658054794 11.296159247283473 8.182175497444838
Mo 10.890375189105198 11.792236843747366 8.009174559809793
Mo 12.124682779841715 10.019317130244989 8.394567256304605
