17
Energy = -149.15573709 eV
Mo 10.587221196549617 10.387562292250536 8.652148806989477
Mo 8.084850707748577 10.151749612264224 8.641573149236862
Mo 9.618361113309195 12.950466463311065 8.596531689732421
Mo 10.185284088444348 7.931327207273392 7.604396845086119
Mo 9.864079333555988 6.52883214674093 8.804318240246602
Mo 11.413162289025161 8.634359904992719 12.373039429018373
Mo 9.98121806526152 12.359633784083634 13.02399703502014
Mo 9.658338610111816 9.538487385361677 12.88866689090355
Mo 7.412469212968498 8.019918584007707 9.319044496039252
Mo 13.348729900968864 10.55247648647803 9.193648454631395
Mo 12.622675139414195 8.857893097143734 9.405676973364741
Mo 10.265868008645613 13.427241881139516 11.552369126365157
Mo 11.461849352640872 12.932168380791309 8.888666837717164
Mo 11.313849467318855 10.854243299348457 11.08335683817216
Mo 8.843622921082005 11.20125478213153 10.687925595858344
Mo 9.881619363979492 8.514650524983738 10.345591475668755
Mo 7.459160042228222 9.05738539670902 11.196036305285551
