13
Energy = -111.38343765 eV
Mo 12.712321044057072 8.459465568974418 12.475083512920136
Mo 13.351574674640805 10.12554201989293 11.917688032517031
Mo 10.64964388016204 10.034378348729398 13.071392683160685
Mo 11.094829822824838 11.97456459270998 12.104662058823825
Mo 11.121901234559331 9.433762786105621 10.374351188132135
Mo 12.190210638072452 11.635227167212618 9.660225508576598
Mo 8.91275317822426 12.248998866452569 13.68023215916301
Mo 12.255434244014362 10.012310359356203 7.9211736070588294
Mo 8.92791390543406 10.394628292996439 11.332547515575282
Mo 9.632779233790185 9.336407973744624 8.700166091542973
Mo 10.573589963152564 11.119918501806193 7.367441575069068
Mo 9.855020204132948 11.97028238344927 9.737572035208828
Mo 8.29472941957781 12.87428936519934 12.058749266527501
