18
Energy = -157.00512085 eV
Mo 9.839705348440972 11.339436766286724 9.207522048323897
Mo 5.2569766659126556 7.352662641249187 10.516766896953316
Mo 11.735981117148386 11.198986159761517 6.967962622750531
Mo 9.586804865253383 9.592363060198284 7.317204274876383
Mo 7.8288042272779785 6.359936918004949 9.945073946090197
Mo 12.470280055558549 8.479739959092548 10.010352263597719
Mo 6.024874964397063 9.851691347929682 9.672182378083768
Mo 12.140731263333851 8.303883225197772 7.069966075137114
Mo 7.627285907073099 8.310689472021469 11.037499819722466
Mo 12.815148768984635 10.910564003698427 8.383909106669956
Mo 9.740392914879514 8.667921827296068 9.810355379216722
Mo 5.6121973369461635 6.217502832415212 8.798114066953369
Mo 7.454343491192549 10.70244046610296 7.952352326685218
Mo 7.733916366595869 8.124448864574607 8.237132804874792
Mo 11.75687218223605 9.969409164419927 10.874325330828071
Mo 5.29033495006675 8.610351905523972 8.015165438059755
Mo 8.460044111105777 11.015737478720485 10.60546596928796
Mo 10.85889486295781 7.225823306866968 7.81223865125005
