11
Energy = -93.3743026 eV
Mo 11.92313588237944 8.748811834293237 9.676132438546883
Mo 10.322071349999664 7.791775693647442 11.958759088651082
Mo 10.461866309510931 13.67426319164506 9.597252840667407
Mo 12.142287209456653 14.089452859943696 11.00607125310743
Mo 13.065701355042943 8.929804248934678 11.062737310420918
Mo 9.631828402927846 13.175039039017955 11.71121975317585
Mo 10.305903991374901 11.1402057926057 9.779221188281737
Mo 9.09114661853072 8.597571875375728 10.917753935402885
Mo 10.80113338426447 10.629067130372782 11.955191982159315
Mo 12.447844296549857 11.623179451772758 10.500314372682814
Mo 11.507024445234146 12.917966593625394 12.893715292895118
