16
Energy = -138.27632607 eV
Mo 12.038653543974336 9.807250906836474 10.908946302013497
Mo 10.658957205013435 9.786472196642674 7.896476501424115
Mo 9.586707435272555 10.255253895860323 10.506795596502117
Mo 11.011815511467814 12.081604177312363 9.680585985128701
Mo 9.518110095129284 12.862261464869768 11.671683482689641
Mo 7.118252037547845 11.515653631790157 10.240561384518431
Mo 13.468263135905419 10.21858427593092 8.48643414613219
Mo 11.60427035405772 11.652394672176818 12.948129483242344
Mo 8.734528106256963 11.228610914918505 12.641990497746876
Mo 10.10420144212411 7.598811470625695 10.077895967163444
Mo 8.516285461571911 8.088376100502346 9.280131898016803
Mo 13.035023311508985 8.429298606318476 8.773650280114634
Mo 10.508123225626056 8.179949893486905 7.107784247876623
Mo 6.510485510802263 12.609836714762922 11.500819174597135
Mo 10.87923654620934 9.735070257603919 13.131658033514412
Mo 13.041635982031295 11.891404171532406 10.709248337030301
