17
Energy = -149.17414069 eV
Mo 12.22850268297402 7.963099917953572 6.906281617751014
Mo 7.448650185885303 8.623208246440793 10.772184396757828
Mo 10.161245618983335 11.506294850169407 11.807798263283784
Mo 9.316172148011773 9.865339149508973 9.73497185059759
Mo 9.380221035779629 9.944993146249436 12.574186915817661
Mo 6.650840679832785 11.079561498605043 9.6401821667247
Mo 10.130830953778243 7.433382473419998 10.515284609351951
Mo 9.625880852551765 12.42535495376985 8.992619498969256
Mo 9.840134824599312 7.715161072677029 8.156212191835266
Mo 11.961635124952833 10.765377729428875 9.542904439786286
Mo 7.391914634492367 11.600198974147691 11.243171563349534
Mo 11.49918816619417 9.07192472409847 11.20479456292165
Mo 12.538984736766832 8.128123000268276 8.752193858459394
Mo 8.708093979728831 11.412523040448454 7.582136937195302
Mo 10.99339205633669 10.254491263193078 7.607603621547517
Mo 7.241971598642512 8.481252702883815 8.489455038883621
Mo 7.966403544517914 6.498518733852158 9.120041427995663
