15
Energy = -129.89279724 eV
Mo 8.424353700404001 11.770940944151867 10.423056552518666
Mo 8.68279509950918 6.330985132625497 9.736960678471974
Mo 8.747492340138283 9.310159295838558 10.309273151980765
Mo 10.833137465803292 7.870627043278507 9.806987640555281
Mo 10.694751966795453 10.451002624282113 9.369730330213608
Mo 7.438779431743301 8.441910554386581 8.311844965065681
Mo 7.270979356785371 11.209635535371865 8.550668405037326
Mo 10.448050819801505 8.175070730198232 12.130662402594028
Mo 10.593293649282057 10.817858807906738 11.994692947731643
Mo 9.201069989354833 9.176548666613709 7.5677044321488856
Mo 9.172517646619557 11.933666621589397 7.834802445677604
Mo 9.395767129369146 6.283437758038902 8.013445911574918
Mo 12.258368583443552 9.320311034179143 11.510503045655538
Mo 12.377602854171599 12.217182480110774 10.783352453720264
Mo 10.840182460650416 13.069805274492353 10.035457137053955
