13
Energy = -110.77572322 eV
Mo 10.004120026261425 10.420546708966382 7.7800436423553965
Mo 8.718255026635342 8.88371137817308 9.595250422644408
Mo 8.260005504931957 10.663254984120606 10.162090787473883
Mo 12.238714378198903 11.349920665485259 9.229399726925157
Mo 13.767431390750096 12.383349942216181 11.262652087261387
Mo 12.534233315489445 10.280543988396163 12.889582878937889
Mo 10.7075594716412 10.121703314534 10.984265461946736
Mo 9.41960202517325 11.566796133502022 12.909274383229803
Mo 11.317255670378815 9.051977610153749 8.671358666118518
Mo 8.213730528393887 12.573431397174822 13.593537483116297
Mo 13.223827409708264 9.493725646529464 11.360213792701046
Mo 10.324329038615609 12.354634796326161 9.459587840546776
Mo 12.03541598451178 12.955188882048294 11.543051022028799
