28
Energy = -252.60996789 eV
Mo 8.204736737760566 11.272291436576287 7.409161406884056
Mo 7.002398053219393 11.988118520980196 9.14318018517942
Mo 9.351645371297337 12.847529271850807 9.188724334860296
Mo 9.254248186233117 8.459182678874603 6.630688096850341
Mo 7.8276188921630885 13.260075371252892 11.796271444793884
Mo 10.909944623597498 12.56207209040968 6.7686725257573706
Mo 10.877456088524276 11.010501342285151 5.8049624259567585
Mo 11.877016153075253 12.45895685279083 9.737175393934516
Mo 10.364465262071105 10.386945528958197 8.55620966262796
Mo 6.3269756743543635 9.97823271232646 11.230282121972046
Mo 10.772971416019468 12.537898386358098 11.539920934541023
Mo 7.801008440042646 9.31497189093855 8.897781916787713
Mo 8.176077197152031 12.155558744944472 13.171796885003154
Mo 8.878615413620837 10.895795728241954 10.789053739811648
Mo 12.118950219418855 8.710726889881322 7.010489107461707
Mo 11.052055848886226 7.732907090991656 9.031530190046235
Mo 9.444449584992721 8.427259222515477 10.964024999106675
Mo 8.337903030252958 6.669306955192984 9.033173977082956
Mo 11.785554743335476 10.04562915078285 10.58783612179798
Mo 10.053473261448582 6.751600069954195 6.66619410790729
Mo 7.289443833531382 7.154709266687326 10.567263076312885
Mo 7.402509159441054 9.292107553277765 12.639226737293894
Mo 12.932652612231687 10.522646239287898 7.983902496054623
Mo 10.466760131921099 9.908382944134114 13.146585548281603
Mo 13.358097392612422 8.464588939047816 9.40825771165002
Mo 12.023946015903821 7.292169571010411 11.65303966296064
Mo 10.53934308764206 6.098418654316961 11.505760167168734
Mo 10.000911842573363 8.136175582347555 13.543711833662918
