24
Energy = -215.06612951 eV
Mo 10.585917087003777 7.034774320485207 6.196470811514936
Mo 7.798511388790346 7.116230647081404 7.558524289772182
Mo 6.796314038460681 8.608203507964836 7.277988569442435
Mo 9.716457634132732 9.448750965704443 7.233913111105976
Mo 10.424243078787503 7.5673479273736906 8.847663998664382
Mo 12.061570725329132 8.107415813482575 6.551847058030161
Mo 5.911015981267142 8.020304184473561 10.370455101767092
Mo 8.275563136122353 8.797175242394253 9.74181465923374
Mo 8.052713132369687 10.924647880169482 8.321407012328006
Mo 9.653180337875517 7.020202141424244 11.470476775162693
Mo 6.616505331570294 8.415593915595014 12.000429501895
Mo 11.548350383016494 6.659827434205099 11.055765680796544
Mo 11.702407603727547 10.92633640802335 7.4540182286954835
Mo 7.157694097249599 11.118838639376238 11.045998657169008
Mo 10.312668267548492 10.478618829388818 9.79568574761729
Mo 9.992177806332263 12.258955367330886 7.439004082901368
Mo 12.272327957334067 9.060230563708636 9.352430566557748
Mo 11.626471027723696 9.069908958986899 11.920146963473305
Mo 9.217501220392707 12.99483898703166 10.082276666457817
Mo 9.282277577051696 9.53874834459601 12.158254095094467
Mo 12.555984752678645 11.254511480222442 11.196226988581886
Mo 10.6397499096011 11.793404447631938 12.054962574333159
Mo 11.2029288359699 13.126405566345772 9.634304570785794
Mo 7.802786801629835 11.974724229536395 12.521030142056125
