20
Energy = -175.7235186 eV
Mo 7.419186246474165 12.477346530290157 10.820773093922433
Mo 10.821404445446824 9.25585231955546 8.913429036583098
Mo 10.729330617466003 12.712177103761466 13.012351177620365
Mo 11.32593291542346 11.113866793413788 11.125543593152726
Mo 10.655458835527051 9.58406703866311 13.632057221991202
Mo 12.943866433218725 12.289760001836918 7.686658406177111
Mo 11.676464377739087 13.040645012296348 9.399056953832496
Mo 9.575325529289401 11.687167614076257 9.380155812681902
Mo 9.796508371329427 13.667054394173322 11.398005320719529
Mo 8.607110461472631 11.395675469002809 12.413466174977644
Mo 10.560494132971971 7.010190134534472 10.566405245164892
Mo 10.897941965499395 11.324526137402458 7.3355871237390895
Mo 8.474399756666573 7.91369625211416 8.638358909810943
Mo 12.279092459455594 8.632578126320267 11.445057811455264
Mo 10.320308445440666 7.793470616936563 13.358857841708328
Mo 12.915128930221432 10.42137257972871 9.193874774549062
Mo 12.643581734352866 7.4949927769103795 9.627860231120366
Mo 7.405320782815149 10.279288137585286 10.110677222784489
Mo 9.32544705082384 9.282754419353042 11.175960755265372
Mo 8.4423744007605 9.438196434439954 7.580541185138165
