28
Energy = -252.01718658 eV
Mo 7.564306525298063 12.12402136544327 16.313772342479282
Mo 10.852401507905084 11.84309482354634 14.108253174314928
Mo 12.842113034944678 12.992392201841218 15.928513138994049
Mo 11.856535649488896 11.73779958291818 11.5149002830763
Mo 12.4529741230587 12.79601036029203 8.802291477358567
Mo 10.608698315167429 14.203132495893033 14.592116861296583
Mo 14.37783626089621 15.00159208895406 9.789216641976926
Mo 9.377804713567064 11.202195989530162 11.784599613111489
Mo 14.288979069829443 12.613148178336827 11.237970216923372
Mo 12.10026625355373 14.37980703733123 10.708343426861964
Mo 13.466374818362155 11.289122968596349 13.679303017548897
Mo 16.41343262501478 11.546350257460725 12.744732358842231
Mo 13.221290853312773 14.850311653899434 15.681782811078229
Mo 10.55058963216877 12.200283801514754 9.349058129765858
Mo 11.35421443328308 9.079765403785732 10.959282641595827
Mo 13.312446354528927 10.571827285688398 9.674296637640714
Mo 12.553925213926538 14.028067334657232 13.149667252016052
Mo 15.510299613382816 12.291671177012278 8.86622520852234
Mo 8.711191642507586 10.70030087581746 14.079538978833375
Mo 16.070781169107466 10.807125363230664 9.89427199084226
Mo 14.054830607800852 9.895717523790305 11.87366156733964
Mo 14.846407745332046 13.364167994169792 13.83651008635105
Mo 9.333133400645144 12.359857908016652 16.474944605526286
Mo 9.81308670045968 13.62523234976594 12.10919066870458
Mo 11.274462881245556 9.322847353359677 12.844724797004705
Mo 16.841040336928558 13.10447724351818 11.652945981378936
Mo 8.236130677111115 12.985211407558898 13.709562944395762
Mo 14.715346767431681 15.234428960902774 11.693616323573147
