21
Energy = -186.36563678 eV
Mo 9.683125046147488 13.311930241947648 10.554070405614988
Mo 10.78441904962797 10.366095769401062 7.058189857289921
Mo 8.854067065733906 10.872484087771285 11.657576239401877
Mo 9.801451602927115 13.372810869539538 12.415244098435988
Mo 8.928014513866602 10.22329977649582 6.190882264210143
Mo 11.871717760759816 11.678545793121195 11.754604001432073
Mo 9.260645347146546 7.892862257764079 7.372590280144504
Mo 13.64750661667636 8.339919191688761 10.467605217732885
Mo 13.267624241459764 9.97628946705883 9.336122890899563
Mo 10.56388868545487 10.872525239800343 9.597453916569629
Mo 14.295440875633096 10.601636783807908 11.910487775218284
Mo 8.398928152044919 11.198863573201518 8.473680106962316
Mo 11.336271304794796 8.435111698358677 8.731050957391878
Mo 10.742256088217204 10.858181533834172 13.523199460076768
Mo 13.1738182029496 9.589928132427653 13.180328362045925
Mo 9.387990568041351 8.80470444707181 12.771593324001607
Mo 7.486736430188688 8.851743894705558 8.08166901784253
Mo 11.320048542034469 9.018227785191524 11.391301285727296
Mo 6.87196817266974 12.296240766920377 10.617377377107475
Mo 9.026217599059162 8.81140001049656 10.001771855983185
Mo 6.542672548535639 10.4506738640814 10.401603967848198
