29
Energy = -262.62507588 eV
Mo 10.68780579383236 5.924710493673698 9.19114262686094
Mo 9.811972073612916 6.497843240281315 11.768773145820402
Mo 11.722318038929856 6.722733910183435 11.849918196369753
Mo 8.038731404266416 7.082707497373889 9.561009836195513
Mo 13.09565991813095 7.298206541270803 9.300811411250914
Mo 9.422710171939915 7.1942368954148135 7.6194300070043735
Mo 10.391059266262854 8.97199617359988 13.284968220557538
Mo 8.320159991783378 8.85747354407866 11.46614225110152
Mo 10.549279512964201 8.310044544667582 9.807150344708901
Mo 12.255259098467532 7.693615763013524 7.591301569132435
Mo 6.569978747194419 8.390765610402022 8.084430011901205
Mo 12.527963559172138 9.41941900312551 11.434951298229302
Mo 6.146500069921491 9.176256920554096 10.098613895278035
Mo 12.496251589524526 10.143145839673068 9.21047142348155
Mo 10.206505346215028 10.561101903306742 10.919769007944154
Mo 10.465722454468004 9.84587850685284 7.371567022498658
Mo 8.431255710946047 9.129358112998847 6.245240271397144
Mo 8.3569441436409 10.177577596589726 8.881165636755231
Mo 11.935474905632665 11.987230855275762 7.509599520097139
Mo 5.858755415978653 11.51396550884687 8.909009828613717
Mo 7.542435585519674 11.470623642832079 11.311959102816086
Mo 10.375479637488075 12.308859556466217 8.929914456996698
Mo 12.365224318536251 12.350888761568154 11.037777806849059
Mo 9.337594355160668 10.558132563409544 13.520363789203182
Mo 12.019880044854363 11.655092543560183 12.806619566495144
Mo 7.0679447200479455 11.148963686736808 6.586271890549444
Mo 8.984462972918598 11.952445244511544 6.693530124223297
Mo 9.408004168176323 12.730020463887728 11.662730370391838
Mo 7.507272761238224 12.75698569692681 9.255210960503446
