28
Energy = -251.55293129 eV
Mo 8.91269257877812 13.663070146652295 12.323240315651898
Mo 11.346914061413171 12.310977341158754 13.586851316568708
Mo 12.812825265340734 11.337504768101585 14.190663102995053
Mo 8.961591154302711 11.127932664652587 12.397786705102225
Mo 11.015987831079826 9.584731645231681 12.988548757483269
Mo 13.372770202489098 7.284785354952064 10.786742904691064
Mo 7.967300001178685 13.014817181797863 10.67620733018083
Mo 8.410608077106833 8.276457538956896 12.183485286588361
Mo 11.054555001821846 7.6085240372262275 11.430419784129453
Mo 10.69298837442266 12.72975963450929 10.776526189986946
Mo 7.781359680204543 10.217520746422066 10.204375399684679
Mo 12.692333441926577 11.13608158368862 11.418399398362132
Mo 8.553868977093474 6.494669601049339 11.547190068843792
Mo 13.396087688634598 8.912668037140726 12.416321055151254
Mo 9.489383427127153 11.797340050556933 8.603303796186552
Mo 6.612852974364299 7.97805807184238 9.350806983439107
Mo 10.477812664743317 10.10666962277353 10.481085292572665
Mo 6.9995085446974175 11.83828955627002 8.476346856887284
Mo 12.326978378256214 11.902016962141763 8.514433232846978
Mo 5.831169836291417 9.415936698984959 8.357287632994217
Mo 9.399094879228175 7.859546460513001 9.461507896333783
Mo 12.974193112072296 9.382779246929669 9.632492208877068
Mo 11.568801467772307 7.124150556281522 8.706728025223356
Mo 8.244712787170725 11.639379286043567 6.096312603499431
Mo 8.340209083375807 9.505811366545386 7.603238243070602
Mo 13.13746570702373 10.729444140095659 7.250881648559707
Mo 11.00808870168959 9.346691456432408 7.951663100993233
Mo 10.110700585242938 11.21072712563598 6.0801530693192865
