28
Energy = -251.88314116 eV
Mo 13.249166783262277 8.508797770884884 8.168155129894814
Mo 12.464588358643244 8.318119369762925 10.803259858868811
Mo 10.816222150263672 7.168130637530629 9.020972414791487
Mo 8.75108886364593 9.17218688538882 13.942356910139496
Mo 12.485758872268638 7.554791704450039 13.449175451112684
Mo 14.155098026914873 9.821607062409559 9.45997607311843
Mo 10.12309901700495 7.720864555513251 11.91845077748747
Mo 9.05327503736456 7.710730070695603 9.218921737148404
Mo 10.870319839003654 9.901119826617842 8.23156564804806
Mo 12.941760414728646 11.04508686437044 7.371675335164824
Mo 9.058405637596882 9.937949478799405 6.599249745248567
Mo 12.810193688291163 10.544957540760821 11.799112058807793
Mo 10.347229946132522 10.039855386665904 10.84092502628811
Mo 10.912929754201985 7.209040631033211 14.4111192236664
Mo 11.123026527511914 11.501934026066339 6.003793623860546
Mo 7.921883600655713 9.087064667555797 11.623881020859177
Mo 8.591371603607167 11.844653722157116 7.450673984810259
Mo 10.932251564913882 9.83040294848279 13.410628015274941
Mo 7.999039351513349 10.219643408226732 9.293259047442229
Mo 7.349117590919947 13.738614121630276 12.00348436386058
Mo 6.799236795070666 11.31541544210705 10.781423382520563
Mo 11.326407994611948 12.510062718795957 12.332617409870272
Mo 10.892182427948073 12.902039408656846 7.817262537207094
Mo 8.831795951821087 11.313833995495068 12.60903392726004
Mo 12.142919177321872 11.911920278022514 9.724379633776637
Mo 9.27888522872824 12.427262265701513 10.239470372740904
Mo 11.218655115112796 14.00011303088661 10.478488922148582
Mo 9.032220588520333 14.221932088911146 12.474818276162221
