29
Energy = -260.67144552 eV
Mo 10.758251552890348 11.667857616509522 7.420631970265726
Mo 11.53190079298681 9.055308797117936 7.934962922345795
Mo 8.93742391395878 9.821602644328221 8.315137019300222
Mo 8.841899497089695 12.221358184935447 9.217540746566048
Mo 13.018098997328625 10.898727917181295 8.94688236210821
Mo 11.375266753136914 12.777100438910832 9.296508486619842
Mo 6.641569505081784 8.238752023056195 7.959481184881266
Mo 11.19389995487808 6.361968789454234 7.7255910554155625
Mo 9.478692313939915 7.191657186896283 7.40192051209641
Mo 6.6261728750399325 10.515451565460884 8.80984189747423
Mo 13.564808860868236 8.287584490110257 8.417189655496323
Mo 6.557722753668035 12.995300787740863 10.20573325565949
Mo 10.560238393210525 10.269980227330437 10.342930784365572
Mo 13.873721348189143 13.110411998149422 10.415548530327536
Mo 7.383331924370871 7.990884136738142 9.761139525863108
Mo 9.65526266526879 14.558233280921273 10.627046132307486
Mo 10.249570244105026 7.564120461907148 9.902363829838139
Mo 7.951591364852003 10.527163269935421 11.05104830204759
Mo 12.377075236226487 6.392572483704942 10.636977257558154
Mo 11.388789203052637 14.553077959129386 11.392050927768677
Mo 12.82635526090614 8.945748133615375 10.611573861007999
Mo 13.133677991632588 11.808581253365276 11.563683993052633
Mo 10.233713477738766 12.188356317767198 12.019149554075211
Mo 9.157968302814572 8.556682155010384 11.962438434258418
Mo 7.479488477742627 12.972316160888443 11.883473160072677
Mo 11.397134708846378 9.984112840895262 12.836868216846776
Mo 11.60186773823825 7.123894918023655 12.307887795887499
Mo 8.85982835401388 10.917808641787243 13.681730526303031
Mo 9.839874697934645 9.036432305247109 14.266427996159592
