25
Energy = -223.95448368 eV
Mo 10.139957488120967 9.483002986432547 6.364039211516739
Mo 8.356547581658127 9.255162712636796 7.070684767969784
Mo 8.979391632880757 11.831136006961865 7.703839932843719
Mo 11.422907716503595 11.324529400992063 7.781074663044415
Mo 13.125343553279883 13.01239595134483 8.852782117741043
Mo 10.195884876145493 7.581942771466539 8.610282864764054
Mo 8.053357159142948 13.932118890247654 9.433772193571015
Mo 11.873948062013367 8.663500633222633 8.712312596176961
Mo 14.012146877094803 11.31775528211488 8.945284436648949
Mo 7.636224992945681 12.147429923550566 10.176770066678015
Mo 9.575668188875241 10.201624396201806 9.30025891861798
Mo 10.36529039561403 12.88135374356076 9.665369822916261
Mo 10.067926121523621 5.819577181165325 10.91278959380195
Mo 12.09721301388542 10.900435309116698 10.542306374548122
Mo 10.592246996007761 8.550844659047666 11.172789429470436
Mo 9.674492195111496 11.20464461057447 11.840977120422448
Mo 11.616826468010007 13.37030372796405 11.837909825411243
Mo 13.006760836226245 8.966660080584258 11.447225393399455
Mo 10.3196933270407 6.300624793980853 12.59122677413432
Mo 9.451125947780458 13.681645960284635 12.054098816122025
Mo 10.026388093260552 9.236355429703488 13.743440114973117
Mo 12.021190270701899 8.440340295781237 13.63114077465433
Mo 11.679685833607612 11.033539908133534 13.258316878389767
Mo 9.365133267872855 12.232397633906935 14.445409534639257
Mo 10.97324150983221 13.259270116159199 14.534490182679733
