24
Energy = -215.00179137 eV
Mo 10.14745250069451 13.238342164620411 15.68547321936955
Mo 11.542322971863998 14.396037026247376 10.832826396398355
Mo 12.490998100171065 11.134323505788624 11.354546803959442
Mo 12.243228281708783 13.85101979136398 15.190252683140583
Mo 11.181599674461221 13.053559188397523 13.061454919880498
Mo 11.260855851560219 8.557071752402777 11.394272511047841
Mo 13.263925629119072 11.64028376882899 13.985961735201801
Mo 13.555308723873987 13.765380838128973 12.03849863214506
Mo 15.25519924084688 11.56193059472958 12.004257722624194
Mo 9.996599220475176 10.686211543197258 12.57848543589437
Mo 11.054838566108781 11.238849535007416 15.017189163606043
Mo 13.065806056778628 8.655244608572756 10.077898903526998
Mo 13.833177281021959 12.911221240887723 9.905069713982904
Mo 8.662600469177423 12.711556995476895 13.247724709437847
Mo 12.578550958506213 10.58884591001779 8.583637309018274
Mo 10.51615851497437 9.945897060008264 9.640025156824015
Mo 11.517882933176312 12.603069586535721 8.957607413709548
Mo 12.39652835260833 9.29877758124281 13.688091200498045
Mo 9.133887348153664 14.47378055059702 11.843363736194767
Mo 9.849095849021472 15.40689526753538 14.121036429767083
Mo 11.5899197930543 15.760542356794755 13.170630973106288
Mo 15.106215522027805 10.64975383975048 10.226539894601435
Mo 9.745725333453764 12.180803720947464 10.697443199358059
Mo 14.054274342751322 9.13016448679138 12.435217466178669
