26
Energy = -232.95308783 eV
Mo 11.884389714155892 7.4631519266815936 13.530089347558475
Mo 11.719452044075187 10.092206704328918 13.223782942524624
Mo 10.194633814566616 11.55853765711325 11.86443853415425
Mo 12.431829867843154 12.934212157814791 12.76749223875024
Mo 9.802974816101141 9.023689823576957 12.470024059412257
Mo 11.966745003131303 8.41934929728531 10.950754821675453
Mo 10.531396110782806 6.584791136295421 12.43851357265934
Mo 7.635102263580468 10.487196482245748 11.387532459265653
Mo 12.370341442481323 10.949925223865538 10.687363203864567
Mo 8.499381328473014 12.170192895120554 10.1795183074658
Mo 8.05784259369022 8.057372116561433 10.62679980560552
Mo 11.800865844047557 13.589032842958288 11.150485524553883
Mo 10.255642651813247 6.840326200365786 9.593561604884437
Mo 5.46019836581 8.528747602180097 9.442438156232553
Mo 12.564122591927545 9.637561811224366 8.468813282670515
Mo 9.972380467430733 9.67000187070302 9.738828735433282
Mo 7.332057291485429 10.350071764027565 8.768039949096986
Mo 12.344080388025809 6.951929265090335 8.948177277948066
Mo 10.712601431533086 8.353469923485843 7.459493219389067
Mo 8.112046354577771 12.641775061049795 7.2540943970242155
Mo 8.053798450766944 8.036594119144178 8.271444969788313
Mo 10.861235159737339 11.889816678706621 8.766354089168994
Mo 5.445118707292196 8.790103816044855 7.605514967803748
Mo 11.573026793556412 10.911353066147258 6.6804491761423
Mo 9.324447506848006 10.324669979530112 7.026127530574586
Mo 6.794953993167181 11.62012824007376 6.448557853770272
