24
Energy = -214.02264316 eV
Mo 8.891254223554627 12.608688965314062 7.137795384075188
Mo 13.755104186826014 12.758716892949693 9.305766807211382
Mo 14.014456231135716 8.243769488641872 13.102495159111536
Mo 14.524360687050018 14.252286855068219 10.0989799854917
Mo 12.896025310614974 14.252700476353873 12.344763011949595
Mo 11.661548438500356 14.285256522349124 10.138420236407383
Mo 11.379664785404966 13.78310009837177 13.967941223762361
Mo 10.80544729485409 12.154280033938502 9.017654293878524
Mo 11.6588185823031 11.724155987566052 11.6875392251273
Mo 10.059821992538508 11.614824263891624 15.035820641172286
Mo 14.313813132728688 12.27187737148304 12.051077957567315
Mo 8.105037069344403 11.492655420965468 8.364132564379839
Mo 8.98012876189451 12.103377821604932 11.034970171334258
Mo 12.981098359414073 11.967839136103311 14.100891517987929
Mo 12.414044075524618 10.320631213217306 9.136955799468604
Mo 14.745469105049104 9.83087951930214 13.651605896909125
Mo 13.902775146660982 10.135762799428488 10.78122975692281
Mo 8.803930103448108 12.325379748437877 13.872955635017025
Mo 11.877166772809318 8.969705845504508 11.537789728180377
Mo 10.036672116451527 14.168533865547612 11.928410980506564
Mo 11.807807983944539 9.836085794531868 13.80118025620233
Mo 9.543020579905951 10.020282855653381 12.66216376279256
Mo 9.94190433037068 9.781467149355077 10.37767098190684
Mo 9.150159752940166 14.016776777955895 9.527449363220544
