26
Energy = -233.6277965 eV
Mo 10.302488390282743 8.720475287831746 9.259302355296434
Mo 12.473304952508634 9.88551182826033 9.544548028241925
Mo 10.194917944013413 8.79404508538526 11.271523792731973
Mo 10.54894864180282 14.243298108002623 9.840033082356145
Mo 12.743844048161934 10.102335203487906 14.94594955551966
Mo 14.35502261059454 10.438752426508538 11.095842465464504
Mo 8.741215613591839 13.272316627216085 10.25884680454974
Mo 14.665982781574575 11.370877730791701 13.44180697156044
Mo 12.715595807136197 12.812447134677809 13.580962857399827
Mo 10.458837187275318 11.503626430762546 14.354453081386266
Mo 12.152638364735363 12.345996889128298 8.099054058477089
Mo 8.212114240813007 12.768769233675851 13.071625008704714
Mo 10.295404787840052 14.719744292361119 14.075461302917207
Mo 13.949316112049083 8.475120571974998 13.046110458749846
Mo 14.790208978930396 13.148032563953084 12.058981632551001
Mo 9.639455842606935 15.418524078832556 12.50062508123967
Mo 11.035931113532717 9.129427033188817 14.181316614507532
Mo 13.8996933288464 11.63267147459928 8.226803670300761
Mo 10.246415295140364 11.23926160171646 10.052373127218496
Mo 12.778368881453682 12.493576565298142 10.661913784948785
Mo 13.540995620518215 14.89666610931934 10.21172446095392
Mo 10.587820984252184 12.904788937642712 12.089571843080261
Mo 12.12090725103546 10.49932295215984 12.26234886526825
Mo 12.866818016966162 7.872985241419755 11.606071062936289
Mo 12.54219906882698 15.118299201606273 11.851343860308086
Mo 8.724776889025167 10.892136438053374 12.642751285892825
