21
Energy = -185.06660005 eV
Mo 9.434571801827737 7.2094908643576465 5.769201914157123
Mo 7.813986651093051 11.125364934926061 6.13148458239184
Mo 9.968297827062816 9.749326135011776 5.739530230456294
Mo 11.087986050530374 6.1682269827942955 7.152570407434823
Mo 11.70040563451851 8.53294911473755 7.044862699683306
Mo 7.7421069371430224 8.636928925411627 7.26722858278193
Mo 8.489610007548832 6.089951645493927 7.4196660953780755
Mo 9.293414400085009 12.232665799426226 6.877933821139997
Mo 7.097092379201724 11.999425127479363 8.72150837370974
Mo 9.646615870200527 9.969411524808917 8.134635989953104
Mo 9.44238458940434 11.899169297438364 9.875825271033158
Mo 6.154150667237554 10.296033573332094 8.611615271399865
Mo 10.055778547498289 6.080443450059977 9.439845638085812
Mo 8.332470111791066 8.033951800060843 9.546435048229382
Mo 11.183145478435684 8.083236899612688 9.30177517191885
Mo 9.750762029845138 9.949251953184591 10.94687792802747
Mo 6.3057521688358396 8.196021116359006 11.360807112033521
Mo 7.461719610588952 10.380640649364986 10.967749682991728
Mo 8.298592116978504 6.301873317857412 11.7638012814686
Mo 9.960039653878844 7.2330456469772235 11.895771494000227
Mo 7.629010091171923 8.680483866182225 12.87876602860177
