25
Energy = -225.1224893 eV
Mo 9.242919378845198 8.65555588170667 12.876104603527274
Mo 10.601545053985099 10.662196585697036 11.747258423975735
Mo 8.326040346861081 11.008416284750854 11.291113005152685
Mo 6.631595439460128 8.745638939191961 11.985949898597388
Mo 7.164880080653323 6.843566646918024 11.797044176749786
Mo 9.923621978462835 6.751162796506543 12.118134871419484
Mo 9.98284259188989 13.325846120806872 10.838688141884685
Mo 11.539474616297582 8.181678869708785 11.237426999527056
Mo 12.961440152591498 10.301574050500898 10.459503452666954
Mo 11.764164553863292 13.059362976827552 10.689493703090248
Mo 8.929362153647613 8.615345327177613 10.168431489144991
Mo 6.454322629482971 9.935766249056176 9.537389204995264
Mo 12.871863606078195 11.927291594409319 8.208013070431186
Mo 10.39172782255866 10.888490300301967 9.167072945220568
Mo 6.600862862571422 7.565303786474245 9.359609716642588
Mo 12.823374399208443 9.073998886415547 8.861919768758947
Mo 8.803084297188695 5.889502059913763 9.5867237995704
Mo 10.169930622723962 13.164848534000775 7.6068150406944
Mo 10.910893311231149 7.129745594566182 9.09413550830195
Mo 8.158869267153644 12.085134258523311 9.055262273269467
Mo 12.126973601855974 10.98576130405941 6.7683722364122
Mo 7.825174153258022 9.857098172206145 7.8012421704088455
Mo 8.406126986556414 6.995563357642504 7.776495175467655
Mo 9.39568036204107 11.757375255118435 6.535744120014375
Mo 10.334068666813756 8.99115328293734 7.605992095938428
