26
Energy = -232.1495268 eV
Mo 7.263263438168488 12.821179991040593 11.496758464654812
Mo 8.43095756596136 10.524529822803526 11.692704289180915
Mo 6.395315098151095 10.189599587824047 9.83012859069585
Mo 9.749396814633522 8.331190027968812 12.705296637402535
Mo 12.334457424105466 9.155533877036198 14.110455651297704
Mo 7.994343967474776 8.053442927928613 11.05945301441801
Mo 9.161644437152903 13.229877176815439 12.092766206766958
Mo 6.293244328324342 8.634023779909503 8.909847492144728
Mo 12.094047280965444 13.276368619829672 12.655728764141339
Mo 8.508295601954309 12.318639329838543 9.421729859495615
Mo 13.349777894323697 10.306944751577163 13.057436262775322
Mo 10.895180768480161 10.871507340193963 12.283692892827975
Mo 8.272458370749057 10.255264970908536 7.278555757562896
Mo 7.804307466434658 8.603493583414885 6.426283730854487
Mo 9.092507452491457 7.828741374836475 8.558439559718215
Mo 10.19937728651327 6.59197482407149 10.558361195471923
Mo 9.70947380435345 9.933649248912564 9.675321562656867
Mo 11.801075227547049 8.134222133503473 11.791605760411604
Mo 10.919827377051869 11.613343841798086 7.8674191624562475
Mo 10.806826834420448 12.631575729440925 10.186106440978321
Mo 13.262807802785277 12.607039088578603 11.321229959038183
Mo 10.74225646546001 8.96763554476475 6.462582088257153
Mo 12.17245685184858 10.235715831470092 10.050693977203935
Mo 11.533774812686987 7.626014957622973 9.0965173157836
Mo 12.370880030049022 9.46715028726233 7.16682575493529
Mo 12.979960177061669 12.00507800045051 8.463539472893435
