24
Energy = -214.02776531 eV
Mo 7.927561954906746 12.255682760339774 10.03309176074898
Mo 10.703032106344564 12.879158915385592 13.105749830101962
Mo 10.448784450118755 10.083552111489501 13.36967196200991
Mo 10.677555985953473 8.81241860367687 10.962796399843906
Mo 10.643351727856162 11.386823061480218 10.817453550993871
Mo 12.64755377399979 13.107196976266854 9.574474904718402
Mo 13.311945729837285 7.822294078869491 10.368337041976137
Mo 8.876316205889184 13.651889174585268 10.885147052406898
Mo 12.981711281214078 12.307122717630138 12.230742155847148
Mo 11.562048804860686 10.820216354941502 8.112686061158442
Mo 15.136150479908082 13.535550367435665 13.67647963634134
Mo 12.632936146087369 9.469699733192352 12.639584177855612
Mo 12.028289213584491 11.391202418980122 14.75160633396908
Mo 12.9933552567369 10.338772481651725 10.30878445246835
Mo 11.569817114176136 14.469911233069826 11.110801788220101
Mo 8.335771607528919 11.465693702416953 12.69762870269992
Mo 13.783279654614418 14.752863427760209 11.893675260305525
Mo 8.256134604357646 9.826434886127753 11.523588039751916
Mo 11.912919262531368 8.092511766066883 8.98538385217049
Mo 9.584324542327993 10.181522021481424 8.919653781954247
Mo 12.577562492710003 14.508140125644317 13.95007175859875
Mo 13.99170254016797 13.246591204693503 15.388957903078078
Mo 14.156465872411106 10.903099237662696 13.937440727219464
Mo 10.506095564742004 12.930023353136828 8.724997125021321
