21
Energy = -185.92099416 eV
Mo 7.756971580450404 9.222637703825306 6.145228647277514
Mo 10.252395263198435 10.134188230372335 5.389717747766639
Mo 9.93377655625416 8.096513726988045 5.794053563394618
Mo 7.07692323695623 6.831849157471056 6.9022121562857475
Mo 8.7066290116567 10.89555898140112 7.440937478043118
Mo 5.862361535492897 10.730030145264468 7.44697679635522
Mo 10.003733726434943 5.863956676645977 7.36833137058191
Mo 10.981567228291835 9.862627589850945 7.694236993797954
Mo 11.499786644901612 7.174076459742614 7.856224783918299
Mo 5.4872978687805185 7.810657672544992 6.894276088784981
Mo 5.086241485360804 9.92347719479559 8.929251260344827
Mo 8.189567388870396 5.460314247710123 9.60236217268545
Mo 6.386969804204568 7.493051512689553 9.582817355278879
Mo 8.994739223194848 8.270627677818867 8.604115548606837
Mo 11.289701164396993 9.145397283353008 10.130734811320428
Mo 7.2879132063876275 11.546733434705898 9.770001896642931
Mo 9.054831186346705 10.85123395180169 10.002351405841312
Mo 10.412593576366671 6.554994470288192 10.027782556184256
Mo 7.169416104465157 8.88404157709263 10.729521956288051
Mo 8.022877027453367 6.10612415591549 11.450203237492433
Mo 9.736729620970518 8.334930590157782 11.431684613544567
