20
Energy = -177.37987162 eV
Mo 11.212516430635429 9.958779615779802 7.265507377135036
Mo 8.280633198584287 9.908358373874082 7.046534483039819
Mo 9.59191600510072 7.471921137228317 7.467992245191302
Mo 9.56305493996908 12.444934567797164 8.130321815555153
Mo 11.00598985428492 7.188136803145505 8.624936740701537
Mo 12.369221709953896 9.901995502987134 8.883725827497518
Mo 7.252110511700135 9.201087871635737 8.422563116842966
Mo 7.983482512311356 11.984186664979608 8.969330953491262
Mo 12.479917231512465 12.51957600422152 7.7689834983958965
Mo 12.111478437726651 13.025752104899345 9.453162256181479
Mo 6.082520585967909 7.638413294332821 10.66730773809199
Mo 9.771708299513088 9.86226169211974 9.558720953231555
Mo 8.867818639200573 7.672274535049924 10.273885209199584
Mo 7.5878001712217955 10.153093794755627 11.151879551160919
Mo 10.8407792632502 6.681339459332885 11.765287236107698
Mo 9.774966354034122 12.136480699159035 11.247554500653756
Mo 11.755013308551078 8.183985953998084 11.280830028596439
Mo 9.247865781582288 9.301380277131027 12.220216818172085
Mo 11.331479790757804 11.084883254353064 11.46690224836738
Mo 6.86893936040459 7.660370779482512 12.313569788648877
