21
Energy = -185.75011543 eV
Mo 12.956576904579087 10.180516398007121 13.244675185695877
Mo 7.629697730624972 9.468565892980212 8.87103969016016
Mo 12.103802774498659 12.813903225818883 13.122895356277223
Mo 12.373704303446683 9.845411641402604 7.737778568339075
Mo 10.74338851917075 11.393155983385217 9.015309131740977
Mo 10.14927656640653 9.110339679474796 13.31506259175312
Mo 8.577478487389332 10.775800904527141 7.537025865373344
Mo 8.529669244134988 11.114675440706513 10.417755817555662
Mo 7.61524872141861 9.459971644568801 12.188542148254184
Mo 9.785752154643447 8.820009215862017 10.370561022099563
Mo 14.396068076358707 10.178052590528406 11.843609447717704
Mo 13.502664764214419 11.34956959960894 9.748064066081895
Mo 9.632411011477787 13.502778574572401 11.166131960517616
Mo 10.24053867175181 8.955949575623798 7.909853259467223
Mo 9.510913097207219 13.71289663279099 9.298168443923835
Mo 11.144128671485573 10.863714151639446 11.515040677618519
Mo 13.99550179515163 12.705774470935808 12.442997474109367
Mo 12.248091680741007 13.095322099998066 10.482301691223325
Mo 8.879129804901675 7.54748735380123 12.266073589613221
Mo 9.09771048212358 11.19698995158038 13.002720206171693
Mo 12.374530078721154 9.073769128357005 9.880697364581371
