24
Energy = -214.43858528 eV
Mo 12.571680593390985 7.469227699590237 8.79397297874526
Mo 10.705774442906375 10.739337133255459 5.832784996922657
Mo 11.078283618665331 9.478979596220775 7.997914715750556
Mo 9.845413429171499 6.768584881786512 7.769297629377059
Mo 12.025840705709882 9.830665525420942 10.360622258694763
Mo 10.396509700201243 5.64698300512604 9.17244116724443
Mo 12.575894448430324 7.352580933398821 10.771336158071488
Mo 9.148372211313502 9.317415798641933 5.950712497045365
Mo 11.774643869377703 12.141561503462093 8.545863892516087
Mo 10.115167699356823 8.137879834548785 10.256455563325213
Mo 11.906049536460278 12.584987154890976 10.304147894192829
Mo 9.054198117149776 11.64746795534325 7.490680148956706
Mo 10.323644190722291 9.535827908675952 12.643558336270251
Mo 7.121548411621193 10.692710824419947 6.928043217319842
Mo 10.853133664352079 11.300475254716428 12.778241212081909
Mo 8.502884554590363 6.451396524192532 11.409260398337457
Mo 9.59683007143799 11.0418139798635 10.141980305221503
Mo 8.460212129015606 9.219716914690292 8.60991094551676
Mo 7.590284505839362 6.704609913266146 9.68064917972
Mo 7.174376959529229 11.81834711263346 9.472978562500419
Mo 8.051059412645643 11.32960207951216 12.022969118749362
Mo 7.710904418758236 9.001555139509735 11.311962792105266
Mo 6.168213179122928 9.261360326619005 9.347040488391073
Mo 5.829443090103292 11.10799710489841 11.020978952003096
