21
Energy = -185.4766563 eV
Mo 8.724920427509918 11.13090268195065 6.506247260091982
Mo 12.749826829141158 12.359798148952763 12.18544190748248
Mo 12.221863148338704 10.806788667831208 9.81469584288414
Mo 8.858296676938446 7.735371786570398 12.572121357095117
Mo 10.055957339711409 9.753601235267501 10.925435155727696
Mo 8.461283204967492 11.428162662893346 9.32881287472212
Mo 8.358666756347516 11.923938616478722 11.952660365860735
Mo 10.187259041985024 9.702833623148472 8.27753580386062
Mo 9.705416669433129 7.359099833124694 9.749623476920302
Mo 12.733212609774927 13.410042909290288 10.701218601635524
Mo 7.450423217924603 10.054824516914302 7.414066740369739
Mo 10.860027000994632 10.097604404651618 13.193889049497114
Mo 7.6974572302726125 9.190557146190809 10.220367432928004
Mo 10.117747477634857 12.408219015778306 11.147415878362061
Mo 12.49244612427224 8.654030885957622 9.86264822230314
Mo 11.627868741606191 8.073053093178787 12.453759268192258
Mo 8.561456977816695 7.5745165786746265 8.172060080947695
Mo 13.261016281698135 9.529928928131291 12.000701540704037
Mo 11.807704570766747 11.34844364405454 7.149030173565903
Mo 10.670518866417236 12.580937164412859 8.128135933244945
Mo 7.916832652164459 9.370478852752303 12.834033209785353
