21
Energy = -185.11939459 eV
Mo 12.886732583483763 9.19447165024176 12.600696390904755
Mo 8.810394189017419 10.8649135022028 6.770921666175702
Mo 9.108598853813454 11.604938008493798 9.562498987032335
Mo 11.959189811815724 13.837737048908352 12.622847518674806
Mo 13.31552697336856 11.655018091303974 13.930589172314734
Mo 10.645394037101331 12.889177244243914 13.73579501407739
Mo 10.683379474561951 7.742650794361207 11.820314426265034
Mo 10.330474551295657 9.260893067467354 9.681760621892682
Mo 11.44323461881693 10.900395983356479 7.919780326775847
Mo 10.213406866320094 13.743302033961948 10.919249896942956
Mo 8.446522513644503 11.872562728020618 12.13960116616008
Mo 10.343920744465606 13.024651237721631 7.96652884173103
Mo 7.909923391159372 9.919498526466963 8.687344746214505
Mo 11.95212931155036 13.144902700809986 9.621088742904586
Mo 11.233775481763269 11.235488946044544 11.581487099757325
Mo 12.786992861623009 10.166266912302405 10.106563348481783
Mo 12.304814396306845 7.719387179639253 10.512195602730529
Mo 8.787236469807194 9.971061700488677 11.960590272513684
Mo 13.638299277673333 10.30147848780527 15.074581420452285
Mo 11.0682464423969 9.76621964918171 13.628621646359477
Mo 10.06820696773558 9.11768004411802 7.071120547363412
