29
Energy = -261.74856508 eV
Mo 14.377227089022 7.651153719116946 11.604313991127603
Mo 9.707372160652593 12.572815188599234 12.12869796238517
Mo 14.22214545210709 10.30473933971469 10.985191122884345
Mo 13.572132669960167 9.624215359264628 13.424748428104031
Mo 11.518808588379766 11.62339968011514 16.45829886117118
Mo 9.671830408582151 12.707108449494072 14.268966065744575
Mo 11.746912750424142 15.468980468314292 9.651337892818674
Mo 11.504787141551231 11.013163327286614 13.6809994971663
Mo 15.061219721283617 13.427391347107966 14.981013168219548
Mo 15.460848784459317 12.766994120380586 10.159918629607228
Mo 14.006074128405972 15.182500845110248 13.3708061136806
Mo 14.567909477222988 14.356865388605435 10.807469046473534
Mo 13.280128707624328 11.267464857977638 15.809068633036789
Mo 11.836687566140856 10.930070481538293 11.281392271633369
Mo 12.718376318321798 12.614000232053876 9.383837328376226
Mo 10.064879725920095 15.260948493741584 10.565453849983601
Mo 12.322837095215963 13.453284075027081 14.49428794352414
Mo 10.74111312304834 14.332375217897402 16.557187577110383
Mo 16.187898850233672 13.52373217915248 12.939026899841563
Mo 16.507743567281473 11.176292678126988 12.228496534818166
Mo 10.437756455660931 15.144489979311059 13.537303574963522
Mo 12.643849138284883 14.255617241150729 17.03689809884809
Mo 15.717307811377598 10.924322079754736 14.260223255952244
Mo 10.77963433797063 12.691217586503104 9.438383174973943
Mo 15.78447283630093 8.366112656095359 12.54607968814836
Mo 12.17628697216795 16.313061766497757 12.226132316566297
Mo 11.959489007343599 13.7353532478668 11.788642518823421
Mo 12.23884812365984 15.984803649643844 14.900772067245807
Mo 13.97518662878559 12.17024943975374 12.65528069965492
