24
Energy = -214.23787024 eV
Mo 14.133087260989617 10.861387840442228 7.795044791339829
Mo 10.62606636573762 11.446502441390637 11.131715997160175
Mo 14.316765818525447 10.771860103660632 10.711177197284767
Mo 15.018899180456405 12.363230378398326 8.31063109964313
Mo 12.344983603536612 14.781806825540619 11.272792815501303
Mo 12.171304011182448 10.086271164330403 9.585317683377019
Mo 14.416302679276837 13.262956769360423 10.873638263514357
Mo 14.744134864397806 12.634911807238351 15.745655027595413
Mo 8.680329580126797 12.95214951509312 11.724921605891478
Mo 15.33870503976928 12.384816851061817 13.128843744559722
Mo 12.597504364085474 12.338543067705483 12.547327146530657
Mo 10.220396189200315 15.162639936308972 11.903305415055184
Mo 13.77185053437002 10.620578788014763 14.184265049400297
Mo 13.422148328692108 14.049358204481042 15.960160478557238
Mo 8.525024648851826 9.985377524687475 12.391914727408293
Mo 12.693519083705922 9.582601484708935 11.94947784522536
Mo 10.265940122718773 13.915358353083471 9.838419311088083
Mo 11.801173428083436 14.287539869515149 13.816787869185589
Mo 14.466401164185182 14.327806812218356 13.464965134862082
Mo 10.954561923723913 10.287758713432401 13.621175011807676
Mo 12.043550113624867 11.830778636467985 15.176424944257061
Mo 9.755945433989265 8.910033491688548 11.51949873513816
Mo 12.332144599481834 12.591301791454498 9.505990727259865
Mo 9.769719577813627 12.71764742458966 13.511986470922382
