26
Energy = -232.01351517 eV
Mo 14.67765635264149 8.377396534200363 12.022446606302214
Mo 11.570712144216523 14.134513212454682 13.091221519965345
Mo 12.925366857611658 8.951427144902135 12.582910929214101
Mo 13.73812734795636 10.014168729731415 10.104299874661313
Mo 13.01635058107287 14.734634828138585 8.979303161239136
Mo 13.582081803179014 14.34102303350795 11.725270887052009
Mo 14.630169952995477 10.639208793590875 13.666773892453001
Mo 10.050422654059293 13.228311750264409 17.320371676508074
Mo 12.878694333418077 11.84772880302492 11.93628051142047
Mo 12.297302475680349 12.48764127751757 7.262347391685435
Mo 13.548883503077255 14.578040318602282 14.44332828984253
Mo 15.615241770429353 10.941325987951537 11.382899476254556
Mo 10.935671697041883 10.22465293327196 10.271365172271942
Mo 11.58658612238874 13.965033515789278 9.951458817981305
Mo 15.13428279247268 13.0322827105526 13.43253643421358
Mo 10.287951860152932 12.27747205183458 11.77437839991703
Mo 12.50380776162211 10.680774132477966 7.668854939523746
Mo 15.70675062143748 13.213002176012237 10.83317158435978
Mo 11.276438664900859 10.634099154824296 16.329369738280317
Mo 14.00599647211192 12.356037716610851 9.454267840460751
Mo 12.715953250236197 12.258757276864506 14.554673638186754
Mo 10.76826476630036 10.646105624942518 13.417627110306617
Mo 10.061095102867947 12.478581753049953 14.534982713513305
Mo 11.562621532520103 13.857752416903125 16.64536253549167
Mo 12.51440246824496 9.594608799289503 15.509771939645873
Mo 10.259647787749063 11.462039929362513 8.996761345559618
