28
Energy = -252.24249214 eV
Mo 7.150947594679362 10.905024316300953 11.910327410325126
Mo 11.329971957410752 12.223010354341676 9.573411178554956
Mo 15.350080579819746 12.048597075244862 13.103036289419306
Mo 12.293125216447585 12.17504558008016 16.714645701872108
Mo 8.327376274014844 13.015001001443355 13.341529205842479
Mo 13.438175493840733 12.765658781706753 11.284946952163263
Mo 13.357735877651232 10.53600789946462 9.36847986440946
Mo 15.874590062060852 13.26387807290339 10.39525143886707
Mo 9.942512264441495 13.412743835668863 15.574619011804735
Mo 10.20969230399942 14.909561185828405 14.160370454807907
Mo 11.115232119952411 10.793521243279798 16.11673920059569
Mo 12.510006950808569 14.581179632216848 15.34930913455593
Mo 13.840836609708889 15.472585290659616 10.247823372644257
Mo 11.93514415720155 12.467417386653825 13.920801834523747
Mo 13.647609646175681 10.568582134955571 14.885056037454744
Mo 12.71096097386601 14.927638038844519 12.819771655011838
Mo 10.471987714984607 13.339832876877244 11.958136464601074
Mo 9.413201225565231 11.26386024737966 13.691238854909255
Mo 11.272367224387619 10.968148505233982 11.415188362286937
Mo 13.75835991318064 10.226960977483547 12.019628626180292
Mo 15.894563233973075 11.122946912113154 10.898830571178674
Mo 12.110241332124856 9.683447863713818 13.749452246070263
Mo 11.926300887675493 15.0497358847696 10.281914895303467
Mo 15.042988559090928 14.518316952112992 12.64442986406744
Mo 14.470005746066002 13.44434656597451 14.905415355854648
Mo 8.45894100306907 11.511504294305581 10.83744278231001
Mo 15.081567706531377 11.43733546983808 8.400049761001274
Mo 13.667504105825818 13.248190923509423 8.746446241632782
