23
Energy = -205.70526958 eV
Mo 13.442962237651665 13.684105119443855 10.72757930722067
Mo 13.849611136618217 13.119303064957096 13.890834533926414
Mo 15.647156226297968 12.699332194287763 11.760982351361847
Mo 12.407707253777424 11.808641774654554 9.33565589915725
Mo 11.403350410173289 13.670013853103532 12.485689498691555
Mo 11.124822021929356 14.113974296035828 10.216702830117883
Mo 14.80341706282021 10.751907062560207 10.066279824659544
Mo 9.991647213640654 12.58303880316841 8.268512772534486
Mo 15.560892162489747 10.968007728286416 12.863760051973333
Mo 13.136332512713267 11.505290580399922 11.989620637359105
Mo 14.255483701974176 9.078945058545944 11.323220119350605
Mo 8.69327789657607 13.640262575747233 11.346767333394746
Mo 7.497217067667768 12.128691565084056 9.314585299287039
Mo 13.625677270855402 11.191259400138314 14.776409468948847
Mo 9.930995187516993 10.6729572086876 8.552134474730892
Mo 10.493335334436155 11.49891666863883 11.104257549095596
Mo 12.16023576904684 9.480884390145288 10.19725972075408
Mo 11.679170597826293 9.435676918267772 12.886459439416672
Mo 8.968113514025092 12.735105000433904 13.08188402408763
Mo 11.359267374442666 11.506953373458431 14.067637346749066
Mo 7.823760245121832 10.941620259802656 10.72839296596538
Mo 9.77383925985526 8.7479286516841 10.921984324300267
Mo 9.377170011923875 9.655615175275658 12.828071610851216
