21
Energy = -186.3157541 eV
Mo 9.776301442357333 12.152219921787568 12.055326639083964
Mo 10.209184069756553 12.323288235289137 10.214069351563136
Mo 10.914246829285952 12.037002246191223 7.372640427967938
Mo 7.478147364077605 10.814507782360124 10.61492384018796
Mo 12.289677473521387 10.842360144902969 11.789405744440062
Mo 8.386503150299369 9.919852071757363 13.237918800780436
Mo 8.25748753188763 11.203048515389149 6.126948772991295
Mo 11.374171101071093 9.939878877814245 13.216307367021237
Mo 9.885643997672073 9.625722760428747 10.871411546402136
Mo 12.023072648133718 10.515035419373937 9.210776978790346
Mo 10.601509673609497 7.430367163342326 12.365509281936115
Mo 7.752527491656607 8.422403151193643 12.361537345459372
Mo 6.974314053078323 10.081378477456518 6.79769905189498
Mo 12.063944653115916 7.9973877821477615 10.916860281378662
Mo 9.311687490969517 10.151976735817245 8.37834146255439
Mo 11.487667986122334 10.285244870173335 6.632753214077068
Mo 7.26372598336773 9.06650152969978 9.633252937700654
Mo 9.416817614350707 7.200512899770048 10.255921619609792
Mo 9.221427313727556 8.506264760540667 6.061966981776903
Mo 10.948017468949322 8.244423554719374 8.576407483762717
Mo 8.613959934959944 7.483015156843735 7.53171045406914
