25
Energy = -224.97195496 eV
Mo 12.507110954923597 11.53142889994464 12.798899434743289
Mo 9.838618799286216 10.216791991747654 12.777989459528989
Mo 13.16709300218469 12.314657613246709 11.295311048702532
Mo 10.327113194331458 12.380613642564308 11.211035688720514
Mo 8.11122225866061 11.195210902823534 12.47318187014408
Mo 7.689820032126228 8.743362895873595 11.520776240308585
Mo 9.981892636336221 7.937084995313503 11.169590564987994
Mo 11.592763850674231 9.933874584871866 10.624523441419532
Mo 7.923691430006659 6.196994711173687 10.166074124725174
Mo 9.138231276518587 10.333200063254761 9.943485602626387
Mo 11.373660264275824 12.103218753620341 9.10988411644896
Mo 6.451670808882588 11.343920916533921 10.308237759371286
Mo 11.875331749292348 7.368665406726387 9.455062952580404
Mo 7.770725828055982 12.70678765533367 9.862397821268944
Mo 11.187974647077558 9.81277065839318 8.124371258340044
Mo 10.613837203717447 5.894169254224027 9.016343492032528
Mo 9.244308462381584 11.740686190460293 7.69023576365746
Mo 9.288614811001175 8.091082722530661 8.55695273731253
Mo 6.755555192799981 8.69650601135188 9.36131589224525
Mo 11.242427978222306 7.399154667464155 6.54772649502965
Mo 7.352979280056526 6.100624303945011 8.393556039348772
Mo 7.264897724681132 10.602780821964014 7.754019143363241
Mo 9.427907017059551 9.623219502988904 6.136338871214357
Mo 9.602037985852467 6.577284434604985 6.256473201617135
Mo 7.5787225370390985 8.496597744491456 6.549970431291998
