20
Energy = -178.11921675 eV
Mo 10.546396788138217 10.701441837963673 6.381904545350388
Mo 8.998003799834741 8.856041389803291 7.38039702810966
Mo 8.040193954250578 10.682661606994587 7.558518944408996
Mo 9.830752331348842 12.447038392218603 7.526886040754787
Mo 12.757267862169655 10.10263182355187 7.710577637791733
Mo 12.40026067777658 12.070224598728283 7.978989874691289
Mo 10.371848849710194 7.669338711593335 10.010636607143441
Mo 10.477199154242806 10.30764510086572 8.975488284935668
Mo 8.029008219811253 9.565956343799979 10.089694826273488
Mo 8.376200027552809 11.580065967982096 10.274551458849235
Mo 12.086173918145043 8.341426830175868 10.267288336332525
Mo 11.118304560399697 12.425960419089634 10.645626708300462
Mo 12.707146135089076 11.191071134444256 10.587700856761304
Mo 10.276692937306272 10.034839664341913 11.619238687122257
Mo 7.702693024071839 10.568686815566869 12.862883895240216
Mo 9.014405700159767 7.9174305752320375 12.719676517246816
Mo 8.972849426464636 11.81512161938627 13.25100945620143
Mo 12.619445073105988 9.669943063872797 13.026616003249563
Mo 11.960184760634068 11.383069883604769 13.344244486436375
Mo 9.929874817631696 8.884306238627914 14.002971822643982
