25
Energy = -224.66864443 eV
Mo 8.637771683862198 7.7780863993931675 7.904029466190281
Mo 11.46532765439461 11.735542228051797 7.129704483869418
Mo 9.718898555970734 9.207749091396897 7.216762892307619
Mo 7.9562786387312086 9.969548165471911 9.216476463994956
Mo 9.782356497371795 13.685146211803287 8.327457261024177
Mo 8.63491958458287 12.295655078832143 7.771658930224059
Mo 12.291344115721824 9.511095862221485 8.325289953828504
Mo 13.602355122850518 11.618152643142926 7.769455683437315
Mo 10.49476176563221 11.153716016513231 9.422103026084411
Mo 7.703297651563236 7.842592792596427 10.868374911728615
Mo 12.444892420637837 12.988515750146806 9.383322567275627
Mo 10.39368968650385 8.329461192216021 9.85921608522519
Mo 13.183546238193754 10.953158879182713 10.28402336990751
Mo 8.724515107759196 6.254359187170546 10.356052808549482
Mo 10.204636819171922 13.159100790847997 11.197861998571852
Mo 9.429558429647903 10.019217876127254 11.528199281182706
Mo 11.492091466200794 11.906201342473839 12.084393694522024
Mo 12.907983347978599 8.28362134901217 10.491949776778815
Mo 7.742028442542128 12.296963219373401 10.549324814930547
Mo 6.823199330495328 10.653804304699454 11.375516266738309
Mo 11.973427233426003 9.169896531707751 12.282343231716977
Mo 11.192752335909693 6.527176517743061 11.727440965585938
Mo 9.833390763715883 7.61213585016876 12.709215397967876
Mo 8.790007346952148 11.841676734821732 13.441798191241986
Mo 9.948771592337021 10.579227817039223 14.149830309269063
