29
Energy = -261.75253244 eV
Mo 17.652731647620755 10.486574412107995 12.562316451828812
Mo 17.82679525164144 11.598868809785523 14.11561335727887
Mo 10.428917561697164 13.825413668963192 14.611690606993955
Mo 11.4064295618227 11.846607368677482 12.400976597079419
Mo 15.35324030679863 12.285356056570608 15.15013378304616
Mo 14.180842900911584 12.628409056551101 12.636594793180022
Mo 12.787252208205798 13.12405102209424 15.007534832644481
Mo 9.337847841791152 10.499251523418595 11.29902303362873
Mo 15.374964119167666 10.894618623560037 11.18833780682967
Mo 16.8886982838699 12.99550690325258 11.743039311084019
Mo 12.81626008772384 10.755124837994716 14.63370979385304
Mo 13.096233600997715 11.36149162866697 9.99972171829476
Mo 14.179436208589694 15.004459855011786 13.919948471903398
Mo 8.795215324104468 12.33979717873928 13.02023705368075
Mo 10.383324601599977 11.414012645588455 14.812546195879928
Mo 10.548011969048952 12.115782594915117 9.779319261580284
Mo 10.005279082750993 14.025815762789675 11.647691971597196
Mo 12.491680210947619 13.88829247964744 10.491423948292478
Mo 12.090923944117419 14.687924963006585 12.84986570459304
Mo 13.874855900964976 16.18339674090617 11.319112891334045
Mo 16.481260180115402 13.948684410252122 13.68265431823414
Mo 8.680628539834537 9.674667239694909 13.656076226642298
Mo 8.396562525231163 12.707750531015433 10.47140527464112
Mo 14.800929524492803 13.644527080855852 10.318576653224955
Mo 10.652114870598174 9.250721039109129 13.290894178615297
Mo 15.288782735667452 10.36027682572289 13.961528870342045
Mo 15.697121700645692 15.744381821260339 11.600613666821927
Mo 13.375030290263862 9.798093008369271 12.248808135049055
Mo 11.735328542013171 9.574050340700726 10.53816021524221
