23
Energy = -205.6293275 eV
Mo 12.654629747943458 11.683420855855898 9.961988311462932
Mo 11.828929333350958 10.330874964193791 8.30188274450503
Mo 10.755522813981118 12.807686863074888 8.627727853652756
Mo 10.959832309556697 12.397799718144123 11.505383241046333
Mo 13.409661156170921 8.945162071964955 10.21879918584885
Mo 9.704397388099336 11.554493581601431 6.364742961187137
Mo 12.547572946032746 10.201524981922262 12.716716848933292
Mo 9.031323514735963 13.196338538676928 10.067522403571106
Mo 10.761283715141662 9.85774944547478 10.713253074493045
Mo 8.337926243768568 12.568818961648697 7.077368455772683
Mo 10.736947689310101 10.32177138090468 13.47631465077651
Mo 6.6140331984907075 11.702055503845273 9.370744562704669
Mo 11.895370371076899 7.853130444629567 9.39678928680118
Mo 8.525221850811063 11.231682131465783 11.468720662697766
Mo 9.122743367317515 10.70875784579802 8.935849533382052
Mo 11.366354283782334 7.834410842236231 12.039471681614394
Mo 7.781635434590713 9.01473129988136 7.542268594537026
Mo 9.66197787755443 8.667699077436644 7.2014033637866
Mo 8.84918463983588 8.792287228659884 12.214228545154569
Mo 6.750766110250749 9.926220492174556 10.151879423310685
Mo 8.92004060310908 7.971645577575725 9.864461046673345
Mo 10.16906211570549 5.826555570669343 10.309227924135236
Mo 9.299806273059483 6.2569545703427885 12.039482400951384
