29
Energy = -263.02666307 eV
Mo 13.293432478864752 9.212276427163662 7.5470712127917645
Mo 13.30918860843953 10.163872732229478 10.235732518031435
Mo 13.477803958729181 11.352378566788774 12.8999450658814
Mo 12.470770747288269 8.681376870732617 12.228256226084763
Mo 12.604696931171071 7.787098785035866 9.995120359176333
Mo 12.295181427221435 7.330868316072396 7.6161306459423415
Mo 12.268758459142544 10.593285073970305 14.091622371237774
Mo 11.702774174091816 10.802225976482207 6.2267731654996705
Mo 12.417189432943019 12.002526774318001 8.532357357964784
Mo 12.707539634278579 12.80132901858229 10.427489190101435
Mo 10.638309570139983 8.955557558080827 6.3487684426192965
Mo 10.986955410553064 9.648708825104215 8.850066386251493
Mo 11.09947391673596 10.76885191798722 11.49289120813736
Mo 9.701166445443713 7.041110516407343 8.69180383888979
Mo 10.254042908268266 8.061612657400113 11.205583393526945
Mo 10.664923289598475 13.298090454009868 12.369371563175854
Mo 8.074968104642938 7.190653635082998 9.629937573558074
Mo 10.122070954819712 12.4025482476805 9.598465951612157
Mo 8.627486947282726 10.178216795562122 10.45412128198551
Mo 9.777303461063434 12.191958814505803 13.59963571655914
Mo 9.525762984397167 11.535595227493733 7.307883645619632
Mo 8.393149269934511 9.354436287368463 7.980145732555377
Mo 9.57666159434298 9.339229187004063 13.185103304252088
Mo 7.606461538030039 8.791822139869872 12.166015358450313
Mo 7.966478448894606 12.662122085969653 11.464600914907646
Mo 7.619653440278866 11.714581638375098 8.642846912167938
Mo 5.979447055795678 9.393929350581868 9.468876357229249
Mo 5.683757001949356 10.910962645203785 10.429698644003048
Mo 7.259955665492986 11.302187215128363 12.733794298028617
