29
Energy = -261.18565213 eV
Mo 9.327484592562207 14.833383022107169 17.109841077987348
Mo 8.857773032958162 12.405403421377374 11.53299833958021
Mo 16.028695246614575 13.310277720960798 11.746381242570697
Mo 12.016479105365299 9.101685785456175 13.521773818147492
Mo 12.900150207860545 10.833045545676036 9.151647878352586
Mo 14.21885354326083 8.931045380775167 10.11074754679252
Mo 15.36211690226187 11.644284510201288 9.778727142589362
Mo 9.278510603084548 14.246708491849887 10.557881609394006
Mo 14.707330115928018 10.147006212108932 14.158383878892662
Mo 15.962854677451615 10.912393130361918 11.847885780444795
Mo 10.792677414421048 10.772164414974657 10.203829958904487
Mo 12.281058263244587 8.543735963268498 10.820946618702513
Mo 8.213706891643621 13.805125949273275 15.484783444562039
Mo 11.47782471155989 13.035054913204664 11.927765878572629
Mo 10.837386650434489 13.26986012420818 16.327367727693673
Mo 11.98938301113294 15.481699073300065 10.35025557162572
Mo 10.341984800285646 10.186264950191921 12.673467073559083
Mo 13.209568109603115 10.89527217711601 11.763585321654931
Mo 9.264030067505264 14.476903830657564 13.288925148046461
Mo 10.151851104093794 15.786793677415371 15.138409257802163
Mo 9.8450784548659 12.21658354068561 14.33186891935259
Mo 10.995594466710099 12.941885595690433 9.349102442628705
Mo 11.895714383843018 14.252673147590714 14.209883145738063
Mo 13.681242245736463 14.973007259039054 12.49181946321595
Mo 14.544797985652178 8.652400136241528 12.901274059187067
Mo 11.090532634936078 15.978114481558551 11.933387401686408
Mo 13.63128378776389 13.222822448076945 10.431329406087212
Mo 14.33605842063138 12.844722466079102 13.22368090321902
Mo 12.234269262103378 11.46852893351395 14.304618429352098
