21
Energy = -185.13524831 eV
Mo 10.641542459806805 11.481730161041739 14.449835249285346
Mo 9.079873371288574 10.780464142288698 13.762967442285118
Mo 11.745407147635024 9.313119504315859 13.106222747615409
Mo 11.908643868111168 8.19102153219156 10.331495203094034
Mo 8.867919291300193 11.776618446267703 9.137710683449347
Mo 9.066721241786224 14.100584669637938 9.748109004478016
Mo 7.761672267052805 13.106329015319787 11.363203586242987
Mo 13.436759811176163 7.555014160320632 12.405186550563595
Mo 10.122302545834119 9.75957441603783 11.25009405994072
Mo 6.85479015559396 9.911345198468055 8.520008120563725
Mo 9.992483834391063 12.401391467862677 11.796784358864304
Mo 7.899998586761465 10.518290417273539 7.081613075593676
Mo 9.640532668174362 8.986091685601215 8.777223125461834
Mo 14.144270541938026 9.314284067178708 11.765545268714867
Mo 13.847998673864263 11.603318884058886 9.955756883170876
Mo 12.383613798724923 11.32570814918728 12.046269189628807
Mo 13.717451211490445 9.67680802271357 9.135845125284998
Mo 11.33960259933458 13.276920728928301 9.975934712189625
Mo 11.39164378087318 8.211347467408531 8.01393397317833
Mo 11.38447852176037 10.89385884619761 9.375125158793164
Mo 7.714707110510929 10.73610189613223 11.027480034869157
