29
Energy = -259.09489874 eV
Mo 10.472654802814171 10.47117514 8.318490333427361
Mo 11.87062592373898 12.894576146244106 11.900201630430304
Mo 10.472654802814171 10.47117514 12.623859946572637
Mo 7.673923985865536 10.47117514 11.900341987452494
Mo 7.325176966185292 12.449027668564982 10.47117514
Mo 10.331905489416753 14.184561024653458 10.47117514
Mo 9.295218855807137 12.513445241412565 13.366955677877815
Mo 11.495712691962236 8.684709349480752 6.58299901615686
Mo 12.822493887620865 10.47117514 7.573072215707111
Mo 11.87062592373898 8.047774133755889 9.042148649569691
Mo 9.295218855807137 8.428905038587438 7.575394602122182
Mo 8.415876728885872 10.47117514 6.584196967373678
Mo 11.495712691962236 12.257640930519399 6.58299901615686
Mo 11.87062592373898 12.894576146244106 9.042148649569691
Mo 12.118915074884374 10.47117514 10.47117514
Mo 9.64855644702601 9.045042275911122 10.47117514
Mo 7.673923985865536 10.47117514 9.042008292547498
Mo 9.295218855807137 12.513445241412565 7.575394602122182
Mo 9.648556447026007 11.897308004088874 10.47117514
Mo 9.295218855807137 8.428905038587438 13.366955677877815
Mo 11.87062592373898 8.047774133755889 11.900201630430304
Mo 7.325176966185292 8.493322611435014 10.47117514
Mo 10.331905489416753 6.757789255346538 10.47117514
Mo 13.758878741931593 12.209651172223763 10.47117514
Mo 13.758878741931593 8.732699107776238 10.47117514
Mo 12.822493887620865 10.47117514 13.369278064292896
Mo 11.495712691962236 12.257640930519399 14.35935126384314
Mo 11.495712691962236 8.684709349480752 14.35935126384314
Mo 8.415876728885872 10.47117514 14.358153312626321
