20
Energy = -176.53178121 eV
Mo 12.28859557717677 11.663121012516118 9.082028606651685
Mo 9.15257202606915 12.914715025699717 12.618050515291593
Mo 12.859694307604101 9.454202806127201 13.272235441732256
Mo 8.634175123658547 8.190633197692726 8.46579320042438
Mo 11.360258431391156 11.173090161002678 11.75731313419307
Mo 13.65974080379176 11.844215339505396 10.298930432515675
Mo 10.50132635280449 9.053381969464818 12.711082467783772
Mo 10.545134345325213 9.147379858249508 10.186776755216657
Mo 8.38537234171829 10.307889505786324 11.610486004912199
Mo 8.292373617441982 8.174785126824373 10.852839682034146
Mo 9.800115587067856 10.029593035884526 7.794098909523648
Mo 12.14493381300393 13.553862138305838 12.610430311296534
Mo 12.457922189226656 8.847760735833988 8.200814170296578
Mo 9.724490987615463 11.62180539524581 13.830005659726636
Mo 8.128233038597378 11.939330245345332 7.953094530357597
Mo 11.255475947170948 7.476282780842292 8.007746807424438
Mo 7.338614711059681 10.407528498289167 9.066391732338747
Mo 11.453709754155586 13.899487474095602 10.955040343202809
Mo 9.574597059159581 11.761026227853277 9.984198797586052
Mo 13.048822828881317 9.146068308354867 11.348801340410917
