27
Energy = -243.33904292 eV
Mo 11.411825275190516 10.073934563928526 6.670999521480696
Mo 11.367974186534438 8.164601737479167 7.003078864043655
Mo 8.592645305416427 9.048572043898492 6.7933023500639855
Mo 13.501355552700717 9.466053656857188 8.93825877409955
Mo 7.048286096452664 10.05116538756094 7.07689192273669
Mo 9.234426304434512 11.643613007011338 7.8838255020494
Mo 9.322378950982424 7.445066805477954 9.12058853076176
Mo 10.731742104246775 9.73552085344515 9.149343692857883
Mo 11.944050202925382 7.284261998441579 9.70167682693575
Mo 11.69928098656041 12.394983957493201 8.766427277840931
Mo 6.96696126192558 7.840352643970713 8.96063235243617
Mo 7.947578108966015 9.88237535327356 9.756013618013315
Mo 14.069366223434615 8.784820127455436 10.624255393842901
Mo 6.78986136679458 12.300464073715235 8.946457495243271
Mo 7.539526078026892 7.566268942984568 11.353304121805436
Mo 9.619371656562627 6.388403553049772 11.24221544738764
Mo 12.245994616544463 10.793827474020954 11.017583301237883
Mo 9.050254598621532 13.610059323364968 9.038405459589214
Mo 11.44537682910286 13.425507825821015 10.548342405526068
Mo 12.159248147074413 7.0554463449181615 11.810106219017294
Mo 9.616616600266592 11.775959009650654 10.695023878924196
Mo 7.908215935178582 9.90496152927908 12.21956272815357
Mo 7.095097670168085 12.460058544359086 10.894657501614208
Mo 10.119980372543248 8.90215560809065 11.525795262549224
Mo 12.377652968672734 9.32833489241557 12.807476556940145
Mo 10.313063004034591 11.231762364418863 13.332718354910552
Mo 8.81173936880581 12.295674807204048 13.262862559649262
