29
Energy = -262.310268 eV
Mo 11.817289556570634 6.4309239572607 10.809124558903084
Mo 9.904838358834418 7.061495476794264 11.96600368378516
Mo 12.212006156604348 8.56190012647349 11.774329225945285
Mo 8.624878205953614 6.073713500150497 9.95533009922362
Mo 11.274014957393536 10.456588373828309 10.331559303119716
Mo 11.243704940274444 10.887809786582759 13.320104010435074
Mo 13.533477630965798 11.39663882720563 11.71784777667589
Mo 9.345534634926489 9.40535718135211 11.900549927117348
Mo 10.897483187563541 6.133385635670663 7.899801332971184
Mo 7.644097767089798 7.711920732739101 10.29608085160898
Mo 12.816449722511685 7.9393467402783955 9.099138507791732
Mo 10.247065781409345 8.260409934998115 9.446458978949114
Mo 11.20693505074829 12.732131145590158 13.594854347165409
Mo 14.029942636505238 10.184212606689975 10.301934266487159
Mo 11.97886313599754 14.186956582116379 11.2364917780635
Mo 8.346648037412924 11.605162548381857 13.312188402662319
Mo 8.428783398932731 8.052388474429266 7.5208998602818005
Mo 11.224606540181746 7.640449285643923 6.783987574460233
Mo 12.447059150846988 12.729074186738556 9.61336316412254
Mo 12.079655064140034 10.011819666146634 8.09460610310238
Mo 9.35528974568366 14.770487755717113 12.637776724614284
Mo 9.888841414486446 12.372733033128046 11.173261654161742
Mo 8.433930657710654 10.278892681076034 9.469031902765286
Mo 7.278903380854404 11.465733546958832 11.7463640168986
Mo 10.227320402266068 14.496330228108253 9.829918160477652
Mo 10.141261666529278 12.247155591651783 8.45589856610805
Mo 7.981680731855689 14.398684292606815 11.475958449082878
Mo 9.365889226509763 9.787648816817255 7.118610788085239
Mo 7.9861088656215955 12.596270754442727 9.13940991334671
