27
Energy = -241.56028259 eV
Mo 12.483878410574976 12.161448492845135 12.436487444683834
Mo 13.074818045023408 10.124656993068387 10.627691075528245
Mo 9.086199120573584 12.956685125675369 11.13233035622145
Mo 12.253286893580247 11.984643486411063 7.552424929654131
Mo 10.416338549969621 13.86104825441543 8.207292105227678
Mo 14.432339296614023 11.23892008718853 14.087074410330251
Mo 10.796855465667276 11.113298908698875 14.123215935296752
Mo 14.80178820512216 13.837921594328494 13.110771797077318
Mo 13.524377236657198 13.859240075909678 10.676366013398045
Mo 13.556789008518711 13.125582782691215 17.538650341472867
Mo 11.776078082337744 11.263790007700315 16.934274568121527
Mo 12.577578975405748 12.937637792739382 14.966544770044834
Mo 11.50507279005909 12.14793821517203 10.04780247020287
Mo 13.753338718941263 15.158505986981506 14.62598993996917
Mo 10.564414177957612 9.793634888425313 8.963070567668261
Mo 12.18559130215179 14.746469934517187 12.772167364656164
Mo 15.125888235973509 13.065009195899703 15.660973589816962
Mo 9.282414069159193 11.10909495585655 8.775629414265435
Mo 10.055966520424649 10.82630680889138 11.657911273255005
Mo 13.988940065094502 12.071413805736674 8.929177049528993
Mo 10.03672379681961 13.264920722175455 13.259500222178172
Mo 10.936184110815264 14.539462814839256 10.521981552010837
Mo 14.779247701661703 11.448735244281004 11.43951321715255
Mo 12.504263827944808 14.389933426641075 8.151882966197213
Mo 12.837023989075131 9.68391804178681 13.032544126925432
Mo 14.502517023791349 11.24515176441075 17.249037692843846
Mo 12.657551089603603 9.935996473869544 15.723974671049474
