27
Energy = -243.23650561 eV
Mo 13.639307047827453 7.636899707508427 10.661528606189801
Mo 11.808141895254149 8.468279912326723 12.412337633657819
Mo 11.59947201980734 11.070985681660288 11.850880260748594
Mo 13.987582852590881 9.547541168567973 10.834449395769568
Mo 13.548251049170231 8.995037627443853 8.18531139345802
Mo 10.202791040557736 10.060160055617892 13.481796785796066
Mo 11.450234004281764 9.277302956686253 9.803232016351945
Mo 10.607386474382398 7.015441680230943 11.166576679574575
Mo 9.647785464485324 12.849172946744213 13.187344316198702
Mo 8.78082856186741 8.218962068099108 12.3401270168355
Mo 12.569044839195026 11.790810158377864 9.164078105487938
Mo 8.033206371524352 11.310587018554731 13.5748759426603
Mo 11.650869832442629 6.914764231219276 8.46029393354944
Mo 10.227085998789223 12.858429774994887 10.433957556380182
Mo 6.935323987894496 8.596455655466295 10.945287957064023
Mo 9.048497591750703 10.539670054370232 11.03601375457556
Mo 12.174549713299504 7.513485687285755 6.6428100780231425
Mo 8.092796718236036 13.217829331051488 11.501464011541676
Mo 9.941742340906815 8.79735273307746 7.31670369177739
Mo 9.045340905592113 8.209130542219047 9.567041009224573
Mo 11.216994341028323 13.06450081489641 8.089082887616822
Mo 6.684634124941143 11.059868198572682 11.518874951670895
Mo 12.086980823797651 10.337433850561629 7.188380381668759
Mo 8.099660953085449 13.09473201252237 8.58388922040497
Mo 9.731640336485935 10.968414606440453 8.415268081880987
Mo 6.324782525514801 12.601820794995609 9.271863492973822
Mo 7.3843233918284295 10.356720316077634 8.91661040719949
