23
Energy = -203.30076594 eV
Mo 10.397455744148898 8.075010124334277 9.778299897827841
Mo 9.956356066191578 12.101027356675818 13.81320132467567
Mo 9.522075179895966 9.808802123716465 8.623300125021421
Mo 13.471600186308816 12.127885501348663 10.188454876405972
Mo 10.57097709785566 9.560654917981315 12.09529452276559
Mo 12.016671909763348 9.791819645469783 10.042595223402907
Mo 12.599029346269207 14.761551826169212 9.475400735674349
Mo 8.256805956118836 9.498720929718937 10.410202352541209
Mo 14.656375619548742 12.88279041837587 12.702513054623793
Mo 14.045581871885512 14.609030972500761 13.460268273693433
Mo 14.082289657184804 14.742571483718732 10.588497502544138
Mo 13.700178341462218 11.053560839220737 14.44325568343533
Mo 10.922953060597337 15.000391585220651 13.41640963437892
Mo 12.468374787971664 9.015715993396018 13.774766308255915
Mo 12.46843026736897 12.85511392797193 14.57119764478354
Mo 11.891459995078733 15.944355000241872 12.178278301660242
Mo 10.732637104484613 13.610271437425508 11.159257706325203
Mo 11.20559338472951 12.146119647267557 9.236499775915261
Mo 13.021484639691877 8.118661846773604 11.608640731615901
Mo 9.442607154064358 11.494374461353049 10.904066735006667
Mo 10.684073887001476 10.609835722973637 14.798227817855503
Mo 12.065355173069834 11.701536439702908 12.193314095669637
Mo 14.169405487878802 10.003163641106092 11.892025145070106
