22
Energy = -196.70764521 eV
Mo 11.097152456380096 8.509960152599962 6.081741224234283
Mo 11.513275999955617 10.319849913993332 6.546603363681368
Mo 12.928567131951896 8.66932906550416 8.372073168772802
Mo 8.751672552501772 10.088520686026476 6.557318530793244
Mo 12.071375305853854 7.066489316887201 8.818923061680838
Mo 8.355342072657514 7.391061172718416 6.971525753580084
Mo 9.449692087684543 6.269421472777013 7.977647280731284
Mo 10.07490554620158 8.927915727208067 8.579071548474305
Mo 11.68585006386317 10.948146789819695 9.743812685103286
Mo 11.7116636933501 9.102095586554938 10.832854673682967
Mo 9.430014907652271 11.585318100318815 8.32285377095905
Mo 9.522856286768201 12.957953780731186 11.003942326653702
Mo 11.030044716559734 11.14980702276759 12.602902415392222
Mo 9.594039382974197 7.407458975892451 10.87782123307821
Mo 9.122992985400819 10.16012553314445 10.659339784346091
Mo 7.198656759424525 9.914807999591057 8.309616495117025
Mo 7.848023036346301 7.768510822826632 9.882597985241423
Mo 7.414086811297097 11.910295119416999 9.574819500383814
Mo 8.32223943137251 12.184221973654466 12.288623587319023
Mo 10.09917974230579 9.598337591259924 13.159412657485845
Mo 7.3894384664915895 8.948026013018982 12.478282073683165
Mo 6.414941142863015 10.00752209511407 11.312094676374965
