25
Energy = -223.98482849 eV
Mo 9.349946950600717 9.541708170001977 5.735600045349505
Mo 9.199541949814803 7.100923229631102 6.013876375473994
Mo 6.850873010189589 8.800083371217454 6.406210026432594
Mo 11.37164823540183 9.40375220626437 6.693362541577997
Mo 10.545050359314914 11.08909019689772 7.972650014098369
Mo 5.808212897711969 11.391426506700634 7.7302043123992785
Mo 7.9186707050274086 11.155236558848173 7.585688010240556
Mo 9.090752339540424 8.530772587910663 8.235604717039015
Mo 9.29805920289833 5.838166497886533 8.813557212033885
Mo 11.345370169475704 6.884726788791257 8.001763497492705
Mo 7.270703524050943 6.656011549217231 7.0868184122006195
Mo 12.792475632699826 10.971815134140043 9.165714083400204
Mo 6.507902429822431 9.15347978486542 8.74379765584108
Mo 6.632974848142962 11.766897401533987 10.132965555526301
Mo 8.414257302534526 12.712389898743844 9.613499325541827
Mo 7.902108940940107 6.131512710734842 11.499929012682191
Mo 11.911592038722997 6.307530566945245 9.95802906516756
Mo 11.67460065405107 9.17649428083943 9.598283592623279
Mo 10.984022755662178 11.728996158348442 10.812078540391196
Mo 8.840065529166726 10.247945844393985 10.26120902817946
Mo 7.000900447682472 6.7588180530299855 9.947206894387639
Mo 9.892806543978171 7.455851362151144 10.576330588793583
Mo 6.810232758895562 9.13595185600267 11.655410326068962
Mo 10.950129919911797 9.998457267543944 11.941705622824406
Mo 8.415285996765961 8.840147160363028 12.596690687236142
