24
Energy = -214.15276727 eV
Mo 11.308451313755258 11.696371555535883 7.870395314514357
Mo 8.906944895971748 12.407999294222023 9.333353702198142
Mo 13.782809389464271 11.888555060862656 8.974422320518151
Mo 12.303182480101754 9.73380111381683 7.792813785632147
Mo 8.531967987535078 11.865610915372732 6.860199318532406
Mo 11.439076590072313 12.484800181389161 10.298880574982892
Mo 9.015383259614891 12.699059204394459 11.654766631436939
Mo 9.639839995165921 9.611134447007053 7.254529329581752
Mo 14.371375505569164 10.071711184407176 9.442283608151513
Mo 12.688979896929924 10.772294948492933 11.360231962772916
Mo 10.910305156392182 11.651353044704837 12.83139961638849
Mo 7.1004676837666745 10.783612875142836 7.840750054455811
Mo 10.35803246977098 10.04132007724648 9.983679325632703
Mo 8.323810314247462 12.487618999133115 14.187361279548709
Mo 7.784501578496232 10.626209678549166 10.477594908552085
Mo 12.40713820338938 8.17699090583235 10.066821891823594
Mo 10.884484692537983 7.628402848195274 8.461252699653368
Mo 6.952750719615188 11.587791996557401 13.292183087812306
Mo 8.297669220530588 8.629752532096528 8.80171489697514
Mo 11.089766700679291 8.676243049564286 12.135546758298169
Mo 9.04487161600409 10.101477113102613 12.873251926947884
Mo 8.842010725567327 8.140392561321683 11.457230644410366
Mo 10.868017017014985 6.202965512220086 10.947900644418198
Mo 9.202176995776025 6.172657342671687 9.834924413242042
