28
Energy = -251.93609311 eV
Mo 10.32891992219591 13.190404402004647 13.110322837004853
Mo 9.02034793926204 10.494811964279187 13.295904794800794
Mo 8.933299029320661 11.670189631915905 11.150578312078979
Mo 11.358491425317613 10.443319039792962 12.52547849039491
Mo 11.128792126436203 13.467698480774082 11.535464081042724
Mo 7.004418200538915 8.803918089325181 13.353133065065874
Mo 6.8051325301843635 9.936067263188049 11.65188195547608
Mo 8.043197288577744 10.812484909265464 8.988108177481076
Mo 9.74977715659892 12.706231147727467 8.713427834475631
Mo 11.386026242604942 11.065631382654416 10.015125357222413
Mo 12.067291415202563 13.480525124458147 8.594612882891091
Mo 9.650800467663665 8.146333544874947 13.008019185376194
Mo 9.501560104706707 9.101615577772087 10.375853505364798
Mo 7.778509024706488 7.414845862042416 11.310639034341644
Mo 7.126369953010631 8.378197214889507 9.225611896307182
Mo 8.580501187336141 11.256807201616473 6.181681722957001
Mo 11.692764826832947 8.299305537543033 11.842633230862228
Mo 11.239263663373585 12.4040649045364 6.681153028043509
Mo 13.636250921732062 11.948268839960352 9.627699814831722
Mo 8.023031254608526 5.663783033555837 9.286664993224989
Mo 7.9310885987054816 9.578717135420403 6.630770176735198
Mo 10.451062988734275 10.193715604498346 7.797914811998959
Mo 10.18446384915755 6.558251356454981 10.262143554610132
Mo 12.984010838852228 10.919551011081692 7.732318701156986
Mo 13.618369988839335 9.225737907803218 10.091749947979482
Mo 7.520235496668077 6.6611369818087365 7.4979490244358855
Mo 9.735766083098184 7.561619945884966 8.185502397317837
Mo 12.274843373977234 8.36813480126078 9.052357025254434
