27
Energy = -242.96599387 eV
Mo 10.66131371 14.367493755899254 11.04024108711805
Mo 10.66131371 6.955133664100745 11.04024108711805
Mo 6.508094738303657 12.340970272901572 11.214988667765754
Mo 14.814532681696344 8.981657147098423 11.214988667765754
Mo 14.814532681696344 12.340970272901572 11.214988667765754
Mo 6.508094738303657 8.98165714709842 11.214988667765754
Mo 14.933390735468919 10.66131371 9.564290520509793
Mo 6.389236684531078 10.66131371 9.564290520509793
Mo 10.66131371 12.051080118621757 7.57846501824546
Mo 10.66131371 9.27154730137824 7.57846501824546
Mo 8.276010302337948 10.66131371 13.3334482991919
Mo 13.046617117662052 10.66131371 13.3334482991919
Mo 13.281845858728834 8.221187559036586 9.903106484199819
Mo 13.281845858728834 13.101439860963417 9.903106484199819
Mo 8.040781561271158 13.101439860963417 9.903106484199819
Mo 8.040781561271158 8.221187559036586 9.903106484199819
Mo 9.199059793063016 13.080720262265576 12.248198054966911
Mo 12.12356762693698 13.080720262265576 12.248198054966911
Mo 12.12356762693698 8.241907157734417 12.248198054966911
Mo 9.19905979306302 8.241907157734417 12.248198054966911
Mo 12.484458128919004 10.66131371 8.28570193604101
Mo 8.838169291080987 10.66131371 8.28570193604101
Mo 10.66131371 10.66131371 12.706775472248271
Mo 8.584069779285661 10.66131371 11.00408536996891
Mo 12.738557640714328 10.66131371 11.00408536996891
Mo 10.66131371 9.249353649566617 10.035528704038368
Mo 10.66131371 12.073273770433373 10.035528704038368
