27
Energy = -241.71970144 eV
Mo 13.713751869796097 11.2593363125804 7.290772817419749
Mo 10.162320486813964 14.636085956938256 12.686349746172624
Mo 16.055323634094893 11.363687170520222 9.256838394254311
Mo 9.410995844137139 11.782605823121969 12.128959742282088
Mo 12.912791746552857 11.639494175502271 16.248654162506774
Mo 10.274175130900037 15.42587675138036 15.093865069939417
Mo 9.16548135678988 12.936061838720219 14.028156085231362
Mo 13.940589824176515 11.680803591768525 14.079841910516235
Mo 15.328536376528096 9.617300625437473 9.12102707276384
Mo 12.73496804404656 9.730288811808906 7.839949066980574
Mo 10.619781393581523 10.648094210714133 9.723189883811031
Mo 13.006072106120923 9.51653182339383 10.582975159483814
Mo 10.886641209778967 13.182197161134415 10.67085641086426
Mo 14.066899388492754 13.759273618590784 16.043506827790374
Mo 14.558713376996936 14.13869134558438 13.948134493004895
Mo 11.499842593636243 14.201157363382912 17.340216505664067
Mo 12.835695419586767 13.664131494707036 11.948390561133737
Mo 12.53030805731951 16.125486797900788 15.295849782392992
Mo 12.319379236626974 16.100501910989667 13.209409269464953
Mo 15.334177875139257 12.422213189771735 11.722506099991577
Mo 11.012879986872182 11.910255577215509 8.270850896449149
Mo 10.212764445278252 13.052278890949143 16.686903380515425
Mo 15.024618352353063 10.399668968391632 11.951497239287505
Mo 13.38478633613769 11.72925233071142 9.921414707266416
Mo 11.061322741461456 11.159049061739674 14.569745778065839
Mo 12.032016435844513 11.299604426960057 12.370866108860278
Mo 11.900157468539538 13.559403175338183 14.452774671856158
