26
Energy = -232.10841428 eV
Mo 7.846870838116892 12.03659707002753 14.012547553771112
Mo 12.198329562914582 10.999603712417828 14.00985412570764
Mo 10.430170793909356 9.047733275942058 12.939764842536617
Mo 8.588700931236229 10.0124018457955 12.293565703477606
Mo 14.85082542354348 15.558193553393506 15.78603630210033
Mo 10.490544921237978 14.720914599764527 12.7551324442722
Mo 13.540300576960604 9.38892785497082 12.16212120291205
Mo 11.96705471077287 10.367781275961628 11.100313586890726
Mo 16.650035073457193 13.13526755691953 14.766036694305473
Mo 14.29976145656071 11.445130228051983 10.827277155500546
Mo 9.975692689163663 10.435259204734633 14.720846813584922
Mo 10.325708600658267 13.259753751480574 14.497216633581665
Mo 14.045259669005194 16.96825034931223 13.044512532380496
Mo 15.75239708228374 15.980273943233497 11.82939718029479
Mo 12.90836635286451 13.138339401163371 15.212935689452362
Mo 13.018969991675053 15.681009555975315 11.524046524782845
Mo 10.24174227010658 11.865541346365156 12.352326947021206
Mo 16.30866432512791 12.588222118927625 11.831730671093116
Mo 12.400688043240807 15.127535872804346 14.179814972604188
Mo 8.031043747798673 13.375412159615882 12.673081835364815
Mo 14.791596132008909 14.03037630364414 10.632740265908184
Mo 17.595835743956034 14.164319812959326 13.367476868610382
Mo 14.599559894194865 11.520605790447057 13.322995707657714
Mo 12.658929338657604 13.055922879948975 12.262552851991636
Mo 16.303054444612442 16.155753979239844 14.884140778984342
Mo 14.804196892432772 14.218371717071973 13.331137583198897
