23
Energy = -206.15767711 eV
Mo 9.382357114152349 12.922457652801741 11.561947032483287
Mo 10.502294050888601 11.852458757450384 12.712653236358653
Mo 10.84099070604114 11.309547567084381 10.08818095140487
Mo 12.98392635688486 10.29020510840724 11.333329730205225
Mo 5.973800308910358 10.126521121547945 10.89142861881459
Mo 10.050714098708363 13.278867009299198 8.461869321363759
Mo 11.520805911825368 12.319752256096471 7.713561501646683
Mo 13.401103897339356 10.463525075034982 9.49801997712654
Mo 7.914044634995066 11.664068527754731 9.530183264927828
Mo 10.519209766972772 9.158837445999543 12.144271327101041
Mo 8.15643327449585 10.420882018051818 11.749365037732138
Mo 10.786594219324911 6.305214185944945 11.629939786952011
Mo 9.353749852452564 10.712564724885004 7.465304117992789
Mo 11.774816890807974 8.113998812215982 10.215448832635902
Mo 11.499879935460386 9.35452570900953 7.789950889866896
Mo 9.145493886263313 8.949437332630882 5.8584863212451666
Mo 9.389209955665713 9.192888898259707 9.6693395191281
Mo 6.9332218805796115 8.327957806213169 10.137894964379345
Mo 8.595530689858172 7.9034440764089355 12.175073083563998
Mo 9.46519073283648 6.441777450238661 10.121614966277559
Mo 6.9641158263739 10.064816303377848 8.250642962959487
Mo 8.32031056239698 7.888783528938141 7.4298500356762815
Mo 10.74586216821528 7.350015879289448 7.82512910803851
