24
Energy = -214.33837037 eV
Mo 12.453527044610142 8.242833875698796 12.936813146697133
Mo 12.617515930698056 10.087384582353849 10.935688770509802
Mo 12.52880669010914 10.92443153987517 8.372164286404145
Mo 10.713193481772809 10.482871590876075 12.921976581908481
Mo 12.908629302928125 7.328999984470167 11.336922395732204
Mo 11.8783392083418 8.333745082199238 8.855951950436003
Mo 12.705239414717315 12.070908612711737 12.244559638496376
Mo 10.220941205036493 8.187101361922304 11.398721115601276
Mo 10.133233515577839 10.371408904676032 10.024758349272624
Mo 10.395636373917752 9.627598829351962 7.361223226201984
Mo 11.76503784317444 12.67533239568459 10.350011977892782
Mo 10.818707010095837 6.38547968925306 9.521089763077187
Mo 10.71878836098151 12.107360408476493 7.882872035935005
Mo 8.520885962949855 9.640517377089886 12.367376669872614
Mo 9.827890465936543 12.304031831212013 11.811800806227202
Mo 9.099871828723728 7.831964051386568 8.88189179398683
Mo 8.0029139638049 7.150962055033516 10.927153442963562
Mo 9.008774825525816 11.586292927016803 5.783564019001393
Mo 8.761208100380657 12.773012023574736 9.572468450295482
Mo 7.355382354484225 11.070951422804027 10.444512050497934
Mo 8.07483207033434 10.424246217182738 8.27661800725407
Mo 6.373032337338885 8.798835397150212 11.331825521386014
Mo 8.114308437149251 12.817654636144832 6.826159942226658
Mo 6.585416329984564 8.631229111024119 9.074477427255957
