22
Energy = -196.20695005 eV
Mo 10.923881005978958 6.651613554305203 7.989648412576157
Mo 10.880210242405429 5.838832976089322 9.726642645626246
Mo 12.278494259662617 8.045171311837438 10.093173797343551
Mo 11.50579185356105 9.373628491393841 8.04184103662378
Mo 8.974606531401845 8.44906871554797 7.145747573858572
Mo 7.9734175550686945 6.589887971795923 9.030260292406249
Mo 11.091005614845589 7.289406714854475 12.248855425783882
Mo 8.24153447531228 6.377998107522871 10.910801608307345
Mo 11.44109050732292 10.85218446018126 10.065594329706663
Mo 10.057621937364726 10.30467985649982 6.371717484709118
Mo 9.780317717295695 8.393640886945564 9.988750522099089
Mo 11.127081382047168 12.25490628695107 8.297704549949097
Mo 8.975931126439276 10.611164272915312 8.715159394020477
Mo 8.339518277575607 8.724625732092893 12.387897742438254
Mo 11.084887619525533 9.216968170549931 12.330487125217877
Mo 7.168507261366771 9.095686601828769 10.693496153802332
Mo 6.708427211483336 9.362628109953198 7.888877187061604
Mo 7.3159344379081315 10.765550405460612 6.585848773200675
Mo 7.891919531066601 13.059618189729973 8.09360010226595
Mo 9.629940119165076 12.998494843607121 9.853702115522172
Mo 8.877680023089946 10.930617300186833 11.220928705077721
Mo 6.813817088980986 11.963655470694961 9.39279873226393
