20
Energy = -176.41043919 eV
Mo 12.56857796452581 9.83722825024002 11.018263740885258
Mo 8.24594560348184 8.87796392599291 11.793374248538681
Mo 7.283050878650094 12.890537097558603 9.116177656098696
Mo 7.7441622757499955 8.322586967397573 10.044467328977719
Mo 9.687942031143182 8.981914345104968 7.932912646967076
Mo 10.720419688687967 12.617920914326769 9.561542617701726
Mo 12.865405334729044 12.638543517803617 11.2391669708844
Mo 10.441536366521028 10.932781907875116 11.709490437713052
Mo 13.232124439718495 9.208052837851355 13.514889883595961
Mo 10.436391891514766 8.171924088299043 10.443507475133181
Mo 9.177529652370303 11.753888961209714 7.493207166382268
Mo 11.351234960239314 13.497877430096981 12.087266480264562
Mo 12.640622211397242 7.41851194062128 9.472754988586578
Mo 8.6007389153073 10.785773489876929 9.681879641214001
Mo 12.453905209028932 11.061482656410037 13.489480405565223
Mo 8.84155509068848 13.283132598881933 10.796277276212093
Mo 9.067616675937241 13.957940324876438 8.129543553948137
Mo 11.17727249008013 10.04499226777278 8.566209807988447
Mo 12.895586948910845 7.213931205196048 11.349872299818625
Mo 10.865216976749222 8.799850878039237 12.856550978955935
