24
Energy = -214.78793598 eV
Mo 13.157607136029364 15.153410794928854 10.858388494349347
Mo 11.295485755470837 15.338692505204738 10.578162396554447
Mo 13.926723512188907 12.598201807915089 9.805587481196518
Mo 11.894318363730495 13.26673550646748 9.135114469115525
Mo 13.839832373860729 12.814843146361891 12.486729536916556
Mo 12.992272065042348 10.595034941100073 9.01571383084224
Mo 11.762026056760481 13.609598584226367 12.830439872621955
Mo 9.286334699231665 13.368728209789255 8.645388071084088
Mo 14.056346396608392 10.31710171979741 11.34693862079041
Mo 14.27095704817942 10.708885939035213 13.776387595475681
Mo 11.634340413063276 11.44900758199857 11.318721549098015
Mo 10.381707876216474 11.007089572313284 9.050451293542102
Mo 9.517393833719417 13.139298065984576 10.801323225134787
Mo 12.900373241340848 8.035483830547891 10.292954139005552
Mo 12.10229637551443 11.470876565735615 14.153404755473478
Mo 7.766985951613966 11.374786753093288 7.867119296317837
Mo 12.32430822102841 9.23826029877347 12.750833513850544
Mo 9.55293528968163 12.041996032440418 13.570219988314792
Mo 11.4278960507283 8.313059813652137 8.998384031881624
Mo 7.09744920231896 12.053488110014005 9.733962223277077
Mo 10.454694914687412 9.003745014518968 11.1759826538213
Mo 8.460583805870899 9.580229990425657 9.352977110893322
Mo 8.564184385484205 10.759999448460592 11.388182165071575
Mo 9.75988926990578 10.079634467942338 13.788946829317863
