26
Energy = -234.09390476 eV
Mo 10.690673111247385 15.096513946726615 14.016731805041914
Mo 13.976468323514796 9.098946544862516 10.48128837926816
Mo 12.34495105748727 13.916899093198968 8.984122363988867
Mo 15.235782875293038 13.705792859839104 10.03402765539293
Mo 9.030086085641162 11.115045958305139 11.830495285535019
Mo 10.174917393165448 10.02502831064907 9.348052788722914
Mo 10.347480225037243 12.694662746614416 10.232318382861187
Mo 11.838697141503804 10.786216338034748 11.441972706476424
Mo 11.260348997193221 8.534287512455451 9.741111248470304
Mo 9.477741302602137 10.856613630370857 14.359602439688862
Mo 10.945945303308495 12.562377629503178 13.176764730625042
Mo 13.574024722803735 8.948827793691915 12.372919639387893
Mo 13.400503123046935 15.648713033542174 12.762659040704039
Mo 12.837404886171457 11.875722493731141 9.16216201563421
Mo 12.806933952628334 13.53158452465411 11.49422117370423
Mo 8.72442335574153 13.561386645528016 12.342087583593099
Mo 10.276345366948828 9.008192147620175 12.164656801580305
Mo 14.999964811663423 13.926935088003935 12.884213588366492
Mo 12.71460592688401 14.276535004479069 14.532784954341205
Mo 10.372352218779229 14.780462822512147 11.436344732523999
Mo 13.688158052126177 11.768460076005141 13.389487053769056
Mo 11.811383558302545 11.98814689151558 15.737551005636881
Mo 14.547181752166477 11.433775154773013 11.273717766376098
Mo 11.450640626295886 9.849105641350706 14.140261102428568
Mo 10.19634547132879 13.205298223745263 15.708465890261996
Mo 14.428979490263966 15.421072704323707 10.245970509498862
