25
Energy = -224.18876777 eV
Mo 10.011980794557934 9.119677196812171 5.424645329559794
Mo 5.827976219515904 10.297892827002142 5.8392822652245435
Mo 7.954923422954062 8.521364383288073 5.788272595203671
Mo 11.214476174937156 11.655749574457877 9.056644579970168
Mo 6.5896178124593074 10.870919605785579 8.292403323562604
Mo 9.313247341342933 10.0879313032384 7.864227389285731
Mo 11.861226232610969 8.936535160257504 7.669695142436786
Mo 5.3852600146373995 8.794827570739393 7.040249297351938
Mo 9.68591434775761 7.148836827190823 7.099549199924078
Mo 8.249575144702426 11.199086914873632 6.178295947175974
Mo 7.290427917895143 5.822462880700063 7.404335046191702
Mo 11.475573239169975 6.667798796976973 8.690074793137905
Mo 8.42611782513295 5.640355435366616 8.920583102177211
Mo 7.534798000628412 8.284212583107836 8.545323689908994
Mo 8.443501127841316 12.146964573881077 8.948116642912986
Mo 5.413005667657854 7.166610483482814 9.51612446152102
Mo 9.900367565009445 8.200520428191581 9.710472502057351
Mo 10.52445348470466 10.764518207996657 10.70815465917521
Mo 5.337860520043908 8.970275182494248 10.149765954965998
Mo 12.48169290526744 9.277739250843108 9.61486780131786
Mo 7.884518113837725 10.221684654478814 10.533908263451798
Mo 11.694270781148282 7.260927847238872 11.488711575119746
Mo 10.163771452297313 6.11883586110668 11.443267127746926
Mo 7.7210192417403345 7.635934925799432 11.326734762241637
Mo 9.159869819636693 8.733782692176943 12.29173971586551
