23
Energy = -205.33310289 eV
Mo 12.156419122470073 7.9003966643641315 7.65886449917099
Mo 9.981508922767057 9.042876895491906 6.409416063281111
Mo 9.150520509116745 7.144805713976457 6.865362439156651
Mo 12.173246496862824 6.921946072195207 10.393219295708436
Mo 13.153355499116573 9.178191187365332 8.789125081498208
Mo 10.819536930989807 10.308756251368838 8.511945804302476
Mo 9.874692427024037 7.860641222605594 9.070143831343131
Mo 7.972494656160553 9.542161523857597 7.9226698713095915
Mo 7.119071700557989 7.5764569928103915 8.65408215841907
Mo 8.717821383549369 12.124757209989909 7.0526178163899615
Mo 10.730992201412517 6.933291929231603 11.54670367984484
Mo 11.491268146570617 9.571795428695342 11.103115078970664
Mo 9.000735415565032 10.319959116563384 10.407820347983145
Mo 7.888799248107645 7.848114806034778 11.188426342740744
Mo 7.466569649694619 12.077896273212168 8.547008911541308
Mo 10.139746167631131 12.656700990235839 9.159630332759294
Mo 6.579970954641521 9.377369115655306 10.296763538547127
Mo 9.321495807561607 9.06236777084149 13.018228752527108
Mo 12.446843076447538 11.612756438485244 10.342902539609556
Mo 8.710697309262356 12.543131590376245 11.099631638660249
Mo 7.843577239601112 10.32286967684275 12.839617717124982
Mo 11.40174946038925 13.337851341369785 11.422355861928416
Mo 10.621379551429513 11.500448342868498 12.483949087018855
