24
Energy = -215.29316731 eV
Mo 11.75606585156879 11.585725947944525 6.233175616189023
Mo 13.31242543682928 10.878487497498606 7.012590031086453
Mo 10.555111326228829 13.008600634989318 11.208682268932492
Mo 11.851128342631878 11.841102773840571 8.981347453245132
Mo 12.733951081105813 11.176746480021778 11.618926458490398
Mo 7.514413705432589 10.93235899276643 9.893462418186907
Mo 9.46366902667106 10.914308385433385 7.725335934595943
Mo 10.388656870191983 10.684875658285218 13.314563326233365
Mo 12.990487284877808 9.783973990963984 10.325207552225566
Mo 9.484027549713561 13.034620177946135 9.546764638659386
Mo 11.168291451149612 9.47345994687172 7.994266795851658
Mo 10.253771186194044 10.42839504064783 10.501489301019179
Mo 11.076108277059907 8.94391363879027 12.56637395280615
Mo 8.587534690556783 8.626499197580099 9.32293962729991
Mo 11.043007812529822 7.429561218247742 10.033652687709031
Mo 9.083715790082463 8.2672927684983 6.825466778304066
Mo 7.377401920427417 9.583960773775038 7.162431640036157
Mo 8.299716639086697 11.660545497642984 11.909878762568207
Mo 6.006241066691498 8.709540501806712 10.336313921404464
Mo 8.416685584100398 9.2142716260101 11.939274518002321
Mo 8.380282223348388 6.137609208458378 8.403494493951001
Mo 6.702747957291222 7.039299924440909 8.013044796672672
Mo 9.735595358594383 6.697327181810839 11.104096773675737
Mo 6.856384074441662 7.104975207019816 10.939402703404637
