24
Energy = -213.93349693 eV
Mo 10.68544530475354 12.583123925773439 7.382736672709593
Mo 12.947209836573288 12.36468687272298 8.365176142151121
Mo 10.995362384889203 7.774203093831299 7.191191053562914
Mo 12.16372585280785 10.26956572899694 7.843457744449027
Mo 9.608215335298347 10.422934123858674 7.266218479043831
Mo 10.29252467010602 9.527701979058364 9.500162108480735
Mo 9.12017162191305 12.213532097620751 9.274413437738396
Mo 11.411052375011904 12.229492958114891 10.160219938453885
Mo 13.817962221080967 10.558087475344758 10.100634954303015
Mo 9.833692031301178 6.3397011750060726 7.454957519132041
Mo 12.642743121465665 8.60220011689397 9.837841921210009
Mo 8.208241899893205 8.402730420516445 7.82812554964162
Mo 10.664854487788565 6.755521232374893 9.961999570159604
Mo 6.882062682528949 11.815629169142086 11.367840463819382
Mo 12.011290753948906 10.368992771090467 11.750864671253513
Mo 7.501320689313147 10.120396055010346 9.63399319608979
Mo 8.61357617764237 7.34586676164343 10.005511963088198
Mo 10.339880643214384 8.234120493773089 12.392010218625579
Mo 9.456280240621023 10.848567744296817 11.531065049332465
Mo 9.46891311409058 13.525696516584565 12.004423691451134
Mo 10.825099340758486 12.739806346975366 12.99890585615592
Mo 7.603632737393862 11.219660503061483 13.270066525609439
Mo 10.048401835821206 9.43334600138702 13.807735671453726
Mo 7.68918940129596 9.182228351443525 11.92706867089922
