25
Energy = -224.37422482 eV
Mo 9.256284423039153 11.06336943364966 6.501725873983546
Mo 8.120436406000932 10.743500823019776 7.867641081518406
Mo 9.831891498511094 8.134882591287482 7.719005832353863
Mo 11.64070159417723 12.744605423325568 7.331942739815002
Mo 10.06960014321212 13.352163589309454 8.21204029267411
Mo 10.913659463570603 10.54216608504878 8.627915392887633
Mo 12.087680030511255 8.362813058354044 9.520167174859862
Mo 9.011257093645142 8.917068087545124 10.075486394841974
Mo 9.273509544205506 11.708423279902188 10.344655548795528
Mo 10.105477400841771 6.69609011850988 8.977287532188475
Mo 13.278020378768227 11.092409374903452 9.188774723136284
Mo 12.446379448874273 12.777567586924683 12.524917708738661
Mo 14.471960132483884 8.769396189774247 9.882500504501419
Mo 11.868021616141686 12.836083312527109 10.395441626062127
Mo 11.092878765924068 7.9442704751295175 11.676989135257895
Mo 7.143091094014909 10.41123491616463 10.98168881775108
Mo 11.469522019686135 10.287661680803815 11.407634022575747
Mo 8.418400508144092 6.973268865304029 11.926911470070893
Mo 13.717977709599282 8.511448266936037 11.832131825073159
Mo 7.379115757352024 13.25967244640964 11.718686559685343
Mo 13.850066185838669 11.051557726784177 11.515623649897572
Mo 6.820870308763538 7.801570727376852 11.641327127974511
Mo 8.790278795486378 9.862767069142643 12.519003116139748
Mo 9.982931793818489 12.09647057504233 12.574990867848332
Mo 7.0899280109738445 12.189478420408161 13.16545110495328
