27
Energy = -242.71852966 eV
Mo 13.67099622393072 7.972158000292779 9.204972275356585
Mo 13.730120919579718 9.279206434438176 7.824230165074543
Mo 11.938919322379165 11.384944994106034 6.950672029373548
Mo 10.887722120182781 12.232410910874487 8.877293109269555
Mo 13.003270450823988 10.74298290350455 9.935426647776424
Mo 9.865234528633717 13.356882362821468 6.447719603382037
Mo 12.358018684616306 12.7262207887448 11.191037223485768
Mo 12.103720862044103 8.854572793171029 11.348307522778878
Mo 11.187323054167457 9.402838276179043 8.605993384607219
Mo 11.166964960312804 6.788141892695457 9.524331127248653
Mo 12.405971149306135 6.028471811332853 11.124166098300627
Mo 9.852506559419213 10.573095826195035 6.734509565386509
Mo 12.542295650559149 11.169276551557287 12.748053904958898
Mo 10.77956902059042 6.849824095001064 12.295331053154936
Mo 10.374437194730382 10.787108317439259 11.072046836002366
Mo 8.473799336630258 8.039101314848468 8.39566169218583
Mo 10.226416513737403 11.848016325232821 13.332488424307481
Mo 8.651030531425562 10.704784894088068 8.991740501012188
Mo 8.597649680183709 13.229861814984966 7.762610666620233
Mo 8.606357871855177 12.797686105778958 10.975410607596855
Mo 9.93406254744133 9.509019695449071 13.189094406475883
Mo 9.345851561472294 8.221085163506984 10.643268120461984
Mo 6.912776863730337 8.963085579050656 9.421124709684802
Mo 7.854367935029921 10.072465465486285 11.735815220326705
Mo 6.834319353164994 12.097365831832224 10.25686930635612
Mo 7.857184198185822 10.8815194836422 14.426910723581784
Mo 7.123847887156504 12.162237454822527 13.314710145073947
