22
Energy = -195.42868174 eV
Mo 12.033994909158475 8.345443293362841 12.07913502404439
Mo 11.081000305728525 5.947791592513305 9.145195997764864
Mo 12.77973248131419 10.149307324157876 11.742387075226857
Mo 9.286684446803054 8.414127183095577 13.11979957417175
Mo 9.636076826764636 7.583476790243622 10.470917022544063
Mo 12.011201746511784 8.432126847714418 9.586190800726934
Mo 10.122736073928392 10.271079804231807 11.35812380262686
Mo 11.057286434227816 12.778796715470188 11.719601611082814
Mo 8.018860034067968 9.889704021717701 13.207703985793385
Mo 10.618166822173846 7.138503854175091 7.619353867281774
Mo 7.4185330011924195 8.808941373114974 11.063756976354364
Mo 9.670675017812918 9.810714808786045 8.708111887950723
Mo 11.633714993375124 13.403518919614722 8.668214128881417
Mo 12.030017802219925 11.160524508322673 9.354780679317477
Mo 9.203683879018124 12.589384727182406 12.243490489106584
Mo 8.212591483214247 7.572975881004026 8.687113504428101
Mo 11.77808684641286 9.760609383293964 7.439404430844647
Mo 7.2889503817505 10.936125749922162 10.324471417658847
Mo 6.96276374797492 9.808179766531815 8.49352233036749
Mo 9.438870124501568 12.466706584441386 9.527294488204088
Mo 8.315522826535853 11.944830038837477 7.64604247597108
Mo 10.714854716592683 12.106939866494727 7.06362480277672
