24
Energy = -213.36119883 eV
Mo 10.823877986804833 10.598943584665946 8.048201043868136
Mo 10.832574725912231 10.720101120951984 13.872264014966536
Mo 12.400054556875293 9.389069348045242 9.383273813331876
Mo 12.36588026446121 9.36915209018063 12.648944546666575
Mo 13.07068955478067 11.679494152658485 9.560116701184867
Mo 13.092191405675125 11.718524683368754 12.334590584382722
Mo 11.01406760904964 13.075947748231178 9.619520064089496
Mo 10.927936056859805 13.041277446994869 12.437794043781516
Mo 8.846268190103977 11.588859544786342 9.449795232134784
Mo 8.641051885080833 11.557494153312044 12.402975129179246
Mo 9.747862018153585 9.069177825355332 9.494451081831587
Mo 9.7563606897381 9.064485807060896 12.405103533449967
Mo 10.929963435148398 10.862453202366911 10.975167699832438
Mo 13.269432452767134 7.303331735564316 10.980413986723716
Mo 14.833350303311047 10.007520669750054 11.019658217339325
Mo 15.386663554953847 11.797908996091932 11.022108053937362
Mo 13.245022243576592 14.149004644108267 11.026353556695272
Mo 10.500906886185232 15.41437715291048 11.080540561437175
Mo 9.010148896015085 14.338804480739228 10.912459552212978
Mo 7.1716426155809305 12.172200201194785 10.985940376261674
Mo 7.354876044300103 9.313638394300797 10.989753470305315
Mo 7.990766568138839 7.589139271166298 10.9756157701063
Mo 11.459957467081535 7.148201365318724 11.074285064619101
Mo 12.85843637525203 14.653243847597542 12.845103032915391
