24
Energy = -215.6983188 eV
Mo 9.969699775520338 11.27942693851791 11.380295651732505
Mo 11.075889435753329 9.330428930179236 12.826040707034712
Mo 8.400284102661491 9.011913609438073 11.727236847214067
Mo 10.226634599349739 12.75408621842472 9.579814802988917
Mo 7.061283515626517 11.303574864113402 11.471815718488802
Mo 12.171148838800303 10.697002402251965 10.537458632874488
Mo 10.676750852061843 6.995718554368065 11.953108305884644
Mo 7.972942486423392 12.884696755286333 9.727880917820602
Mo 8.647183616451988 10.448391011169079 9.086171443441692
Mo 12.873773724012949 8.811911760069087 11.708766382796634
Mo 6.702620880205481 8.853447686485667 9.997976882384553
Mo 9.02555000750681 12.448358855193346 7.034126496717814
Mo 10.51636912530039 8.673956220663646 9.963111135332603
Mo 7.165906310790631 11.976565986822267 7.302935892343746
Mo 12.613639066669414 9.0799747809365 8.458296919585274
Mo 8.641361921666268 6.804864901125272 10.98317490683797
Mo 10.981676857491214 10.6769155671602 7.893185736521915
Mo 12.365839292206003 6.604393362888203 9.866948574875966
Mo 5.828501983790247 10.990073026447165 9.70222393583898
Mo 9.338107480153873 9.668544779716516 6.402281185577817
Mo 8.734542470227238 7.63217797644995 8.330319504988207
Mo 10.679967985227051 5.877599645147267 9.249843751201013
Mo 7.176938437630721 9.118107996469826 7.382236792382297
Mo 10.886000706824154 7.889921640183752 7.217341417438932
