27
Energy = -238.64556144 eV
Mo 16.928753402399995 11.69127811113889 15.046401573712012
Mo 15.99718683981071 11.698539721505993 13.458505027594029
Mo 14.618009502323178 13.304299448900846 11.475034281079827
Mo 13.683858224527858 13.024860228151278 14.30081037100524
Mo 15.099835580558967 10.95927688957297 10.39310987338642
Mo 13.617851065212623 10.655951051956356 12.553596561013158
Mo 12.818179195805167 14.62120464986938 12.489613821966376
Mo 12.157704261744279 12.219126789366532 10.524937765261772
Mo 13.438336730421241 10.662355372561176 15.041996897268998
Mo 10.895260696167696 14.284661654110462 14.353572689928786
Mo 11.897704132285334 12.658955971837123 15.842797021926962
Mo 11.149295290119325 12.015978123064626 13.242487763328715
Mo 13.297433625516815 10.58590297880767 8.606203900665593
Mo 10.323828138008269 14.359235803710172 11.578763732293869
Mo 12.769181541871935 9.35706196631609 10.422799803173538
Mo 9.265963981217066 12.362986099197407 15.318105847683649
Mo 14.355626575104145 13.15048001939797 9.130261713020792
Mo 8.629073551684526 13.202455245358575 13.055139409120994
Mo 10.832182093114946 10.103710971588605 15.21487666163577
Mo 11.713980406721602 9.15581053239657 13.335887386962966
Mo 12.571372053519246 14.649231195967879 9.850823417662852
Mo 9.190866914044372 11.96346607061124 10.927063122944988
Mo 10.503135087361859 9.758341280576929 11.312157434593635
Mo 9.100747257245203 10.551759831711342 13.441267006425006
Mo 10.81850597010286 10.89863716902868 8.824697177913663
Mo 10.09039337639731 13.57063901565347 9.182784040521662
Mo 11.989065822834549 12.925954434024783 7.795059593263218
