28
Energy = -251.83876074 eV
Mo 14.40030872793316 11.929338376776316 14.895201772304064
Mo 13.744838204400546 14.363334126491976 11.566793666693512
Mo 12.62326674786606 9.685856294240555 10.686080396285
Mo 13.058468230803099 16.297489445506983 13.354721114678245
Mo 15.803283825060022 10.062832500666977 11.53138287374421
Mo 11.143352538063944 10.521676737241878 12.41581371256513
Mo 14.096564021233377 7.764904966624045 11.766152405655935
Mo 13.973020266442232 14.872761063663953 14.314981206929726
Mo 15.254036022873672 12.625816127662112 12.81707490647185
Mo 15.136897661065053 8.208652049279435 13.630652949612086
Mo 16.531468116114638 10.446793598497276 13.439412486135934
Mo 9.553695533038793 12.472796556627658 13.654435356575386
Mo 12.522752777035915 12.74209763073737 13.584566084333959
Mo 10.98599046473796 13.724569081010955 11.542371865897616
Mo 11.751596596164449 10.480703785974503 15.079751894646797
Mo 11.027444358274124 11.725238473329052 9.941607419300794
Mo 13.324837648191718 11.978136783870706 10.829804373600314
Mo 9.290772177381418 13.6845532828969 9.23727880712034
Mo 10.235423514258825 16.413532529645657 12.377554951241828
Mo 12.311531521070188 15.76826864210914 10.391823665333392
Mo 13.140493395749758 9.145543493999524 15.453375529680404
Mo 8.908861399880054 11.884643580354716 11.924000954331484
Mo 12.211343572869474 8.213172321628717 13.231924931360668
Mo 8.789128499895297 14.954824361490079 12.32217472672259
Mo 11.052168620055987 14.793613027948396 14.0115055196426
Mo 9.681724165482024 15.462766734616665 9.641005017732034
Mo 12.269455993698543 13.93817996744677 9.126689162243533
Mo 13.768748461690103 10.264043408011718 13.046435280974412
