20
Energy = -176.3450273 eV
Mo 12.644073544543836 8.639767203286333 10.367653545831113
Mo 10.585292741200181 10.632401559975387 10.66158469309056
Mo 9.558192824445337 10.725241136274303 8.274670384450399
Mo 11.423244946197983 12.94206361272382 8.793829067446975
Mo 8.166195613968187 8.411642444765542 8.321979873449605
Mo 8.790611298846423 12.8495761275606 10.18693621130335
Mo 11.70343021854142 13.525866718142057 10.608582350596938
Mo 10.072477070579165 12.16595830749535 12.748362181044703
Mo 10.325148281323271 8.256088690845333 9.083091644359445
Mo 14.302548569092183 9.56131222941462 11.703535795421493
Mo 8.674704796729717 13.153384274868205 8.222297236090768
Mo 10.271463708571275 8.3826867975329 11.54739466873864
Mo 12.561214593845738 9.164189578232504 13.115354593362651
Mo 10.14487482123918 10.145829203840814 13.538626538471764
Mo 7.577379645313661 10.671604993132554 9.758053834278462
Mo 13.269020689167993 11.358142288174756 10.271920215938898
Mo 8.067358276263644 10.210002515964288 11.820501139577834
Mo 7.900307254006896 8.017134124771534 10.506476047762227
Mo 12.140114721795317 10.295196909098495 8.421207200884506
Mo 12.404562706409898 11.474127605982304 12.630159099981517
