37
Energy = -339.32815589 eV
Mo 10.406518212972921 8.303002002308787 13.394136715394835
Mo 7.9149221988656 5.321550010537621 11.386628330391595
Mo 11.935778205139206 11.53637962930503 10.14141884641262
Mo 11.48664607439041 11.171987288117567 7.317356490228291
Mo 9.584411748684824 10.78950980502172 5.261215450805068
Mo 11.936454880221122 7.734719477681439 11.052502426260673
Mo 8.60838939371463 10.768560358166132 7.974996485956765
Mo 5.072870990736978 8.791058370843313 6.498487936216704
Mo 10.09485347437961 12.129903066041622 9.891340065757065
Mo 8.560461244464406 7.942178785726932 8.668284323594467
Mo 5.411504656601456 9.859605988687594 11.296909020629858
Mo 11.150335474243231 6.702543475297621 8.710230253425904
Mo 8.668573435811362 5.369295757033817 9.308794484078007
Mo 6.363748892204454 11.391000926237732 9.091331227502076
Mo 9.486536401438686 7.402351267877062 11.220312499615014
Mo 7.415306770320852 6.385647330002531 5.1669307975226975
Mo 8.220393054218077 9.962654773146676 10.490233196103032
Mo 10.383050469660585 10.025627043208651 12.18440179158778
Mo 10.290661648280235 8.784614085741126 6.846601736559728
Mo 9.553170447108661 7.789787548155749 4.720119262190598
Mo 7.588863703903871 8.862413595755221 6.09594121041515
Mo 6.165745682228076 9.066409776998785 8.650030470993242
Mo 11.048611478038064 5.406853730675971 10.635382912058288
Mo 10.832121854424553 9.333275268744659 9.543973530305385
Mo 4.651323942265013 10.924132904413717 7.181155428839156
Mo 12.951922559480918 8.608735974001565 7.910034448600006
Mo 4.732311522262993 6.698617194753883 9.265901343151114
Mo 6.728883506700996 11.1864026537001 6.192709111121232
Mo 12.13065838160092 10.127007577559535 5.5465015891232845
Mo 9.353298797930666 6.212797691836075 6.469192678086448
Mo 6.864551660489519 6.447936627992454 7.563960507694459
Mo 6.7870306066041 7.489103168203035 10.890879593562424
Mo 12.442016085300546 7.434823621559475 6.335546390511815
Mo 5.670211372023021 5.132292194540654 9.762386566459575
Mo 6.486839854527733 11.281166527412188 12.115650379859497
Mo 7.864958963050465 9.125315082854598 12.70424561245581
Mo 9.227941031992405 12.57261809614162 6.5861555628114905
