34
Energy = -310.18728558 eV
Mo 14.375946560125186 10.058265527318806 10.08632427389366
Mo 14.645029245695895 8.978952538449988 12.628253748609698
Mo 13.542147439423884 11.200549218586096 7.475838627048907
Mo 12.832041567017155 12.662729963738759 9.721726598981167
Mo 13.550571560442545 11.469389488013068 11.746798184617269
Mo 13.308083600589782 7.633734263630987 10.33464990463639
Mo 12.512387555701054 8.136427138316193 8.501078981295313
Mo 12.743362611896917 12.81298485564817 6.942891978214451
Mo 13.732485993252114 9.910150598430532 13.940828194061472
Mo 10.565828626724288 7.495804484280858 10.506390750800476
Mo 11.910978434340795 10.055452117386318 10.03301820868434
Mo 11.73435738583163 8.795227471815712 12.382403178416132
Mo 10.91039682313456 10.973783411834601 7.8784005646350455
Mo 11.676989813929634 13.55756446094805 11.732581676933055
Mo 11.122246586666867 14.596400485193282 8.982473873559567
Mo 10.769624802477077 11.28840118949721 12.465098195818362
Mo 11.126480437112248 9.785079671071353 15.084322301624374
Mo 10.117414251475527 12.354175412877096 9.891850489995562
Mo 9.610218028820151 13.231174261290931 7.243199478371082
Mo 9.40082833089622 8.756684023720938 13.19389937668295
Mo 9.72660321616905 10.999385257615096 15.020341743581335
Mo 9.30179026019682 9.699092855268013 10.583542092853492
Mo 9.816897641831382 8.656267751487453 8.218874130422341
Mo 8.536456423384235 6.451127938967245 8.874626769482665
Mo 8.59607464053211 12.914059462743571 11.989391395355668
Mo 8.260079254370797 7.18246886508951 11.651974228742406
Mo 8.029503957640813 10.964489255705006 12.968461145461806
Mo 9.964809574241322 15.03832086825652 10.722394100077576
Mo 8.262331021084098 13.877790204723958 8.966789706382535
Mo 7.4051517173764685 11.743255914872014 10.179704327394388
Mo 8.321040775405965 11.211786685904938 7.938955128822596
Mo 7.045852177573415 9.151866784572244 11.251390661176229
Mo 7.362192588348321 9.090254159649755 8.62483713051173
Mo 6.717327397298061 6.832824861976692 9.467898000291099
