34
Energy = -311.24923502 eV
Mo 9.192248382422154 15.286678718006561 13.28571875640481
Mo 11.561586423523497 13.494356273561507 13.216472536624549
Mo 8.54442212355858 13.776983601066824 10.673904408971655
Mo 14.795815050006027 11.174376241378825 16.31108265772944
Mo 14.049323002096145 13.258560805067374 11.361120590726374
Mo 10.251580466146526 13.964314849166419 8.271586068779799
Mo 11.401588502497942 8.584330879772859 12.349327304695452
Mo 10.237689228909 9.76138152009255 11.376252916449742
Mo 9.370125655085909 13.075759246074293 15.0364038849601
Mo 15.256646473952024 14.79621080367168 12.837166616963213
Mo 12.998297900818754 15.530762470568595 11.953703687207241
Mo 10.833063706227932 14.425173890934948 15.640574126591439
Mo 9.228715554506088 12.512666507597158 12.254620531380779
Mo 12.912412982381962 10.050639127815304 14.465430502021672
Mo 11.27162539987807 12.662576387441957 10.444493514577767
Mo 13.486505098098853 11.339431825470225 9.379173250181537
Mo 9.02976992055699 11.449722485393151 9.346504740943152
Mo 10.822500025922286 16.302094640265647 13.573398303358404
Mo 15.208629863205104 10.690678129702214 11.812497867012816
Mo 10.725197124421877 15.07554465331177 11.005953325664787
Mo 14.03958023448081 12.527166303107688 13.982712999170898
Mo 16.719453073196615 12.864564433960869 13.760911851034951
Mo 13.705965495399807 13.679759231026566 16.45956683148211
Mo 14.329448219159815 9.010879627821328 12.428301843264927
Mo 13.429444601190498 15.067224469229089 14.539800352742782
Mo 11.91576405589204 13.190613586703517 7.713831199765781
Mo 12.905950259992716 9.588765598295032 9.96870765383196
Mo 10.564788205268965 10.664441654797276 8.565473584992343
Mo 10.6369774655538 10.891078855958455 13.910169819522316
Mo 15.56309191775148 10.31744723478948 14.82231512370144
Mo 12.538546898224636 11.128212225932296 12.142135874179834
Mo 12.005909826832134 12.183303323654682 15.670890985235678
Mo 12.828760762162144 14.711766643966957 9.612535041766495
Mo 16.145036216166755 13.832461604127811 15.31520499259044
