37
Energy = -339.83446045 eV
Mo 9.835903976493166 6.198763241033146 8.86948834805085
Mo 12.662931554371124 7.052639389445022 9.50683529202507
Mo 10.805969027990342 6.603032382377652 11.325341807956196
Mo 12.921314265980554 6.725829530306873 12.47959248393443
Mo 14.319909693821918 7.9622718955912655 10.707964063830998
Mo 11.023289669444662 7.96734727592516 6.918181798537112
Mo 8.261103072346431 7.115525173224896 9.742794849133746
Mo 12.835827196480167 9.365391921042267 8.56951225129596
Mo 9.048389017423274 8.30799174752005 7.0460818329015025
Mo 10.776759919573548 7.978721367150159 13.88848834024017
Mo 10.454780478998845 8.768558042580418 9.491480814959186
Mo 14.562632100068907 9.96687710336871 12.582183781042914
Mo 12.183988018043783 9.010760651290044 11.598805401999089
Mo 10.482471003472261 10.537147395859753 7.346954958981063
Mo 12.267331917744599 12.230124455287406 7.923182638873776
Mo 9.242950248246235 8.57820468030146 11.82945850475757
Mo 12.71795325000829 8.785030848719792 14.164350631953566
Mo 14.081853306418587 10.729020355594137 10.253706741093804
Mo 11.696636887249715 11.269726443517298 10.33818650108496
Mo 6.597934368794384 9.678035459387841 11.292078742544685
Mo 9.556760055359677 13.025888162962124 6.580878074306381
Mo 12.934910748325027 11.524219688654975 12.693529932087563
Mo 8.208650414556585 9.960051045239986 9.10714743003393
Mo 8.107884858358966 11.536618994524733 6.986960211584892
Mo 8.961689594784863 11.10036596732146 11.362302036718683
Mo 9.716503735159899 12.538334537220875 9.155586721575434
Mo 10.721950874737352 10.543386882069242 13.437624429822618
Mo 12.09976563900108 13.6888268921384 10.314547757540845
Mo 8.148212309986256 10.064758415774833 13.899130290453563
Mo 11.442984047098989 14.344255202569773 8.026952069010784
Mo 6.990527937109968 12.170045525189794 9.595493904071315
Mo 6.381643230976857 11.511448339928654 12.108445937753402
Mo 10.45117953105537 13.109347241197897 12.116756870922826
Mo 7.829030807040149 14.051336807205145 8.320964578627176
Mo 8.562787616921478 12.02709365695359 13.922731527201664
Mo 9.5831093720089 14.945968393326204 9.967255134701011
Mo 8.191683243385087 13.795741920330476 11.284135588173035
