37
Energy = -338.83805334 eV
Mo 12.141724790770702 8.07638638724746 7.108757103794241
Mo 9.657664381945255 8.218588443057655 8.06757267720378
Mo 13.093654459105528 9.625651854891284 6.552268859676624
Mo 10.495298782218693 6.5177680056869365 9.474478711887146
Mo 10.133625252482197 9.923424534705614 5.942862526260122
Mo 13.384840501182898 7.0313973421792815 9.593154245474889
Mo 14.064455777219504 8.843125203922092 9.090314722286436
Mo 8.252325393681422 9.540828463075517 9.460853813255556
Mo 12.015239307325078 12.283941095456992 6.293866030741716
Mo 11.444421060461167 8.787750017675304 10.409957004060635
Mo 13.409647899795893 11.863738059045021 8.630124878292756
Mo 10.258216853303722 12.912898155086204 6.856617375295598
Mo 8.641712728941984 10.627900544896773 7.002537848969251
Mo 11.483535928108337 6.449360369838476 11.963764493416285
Mo 8.93820943917082 7.589007025606978 10.824893546346999
Mo 13.33373828986255 8.303041554020137 11.929839574366015
Mo 11.17929030128347 10.541186136305228 8.354598738455348
Mo 13.682467942459102 10.631912301962227 10.89844106138602
Mo 9.180941590775213 12.20068075849211 9.37600125848986
Mo 11.699439625004436 13.536980169976312 8.971524389824078
Mo 10.633734151207532 7.941371919050826 13.048371541895156
Mo 11.54596597676328 11.792045663939103 10.678490758929597
Mo 9.570180524629807 10.271475138801616 11.598783274438633
Mo 11.988635506922648 10.28650777175448 13.07520933901277
Mo 7.9478985832188105 9.197716223814403 13.004550944148848
Mo 13.009012389456561 12.504561298090051 12.892029173504453
Mo 7.877397548304313 11.993538221305426 11.369856174326753
Mo 9.62989874348321 14.235419101751178 10.817136137286411
Mo 11.720029326312655 14.392035122901538 11.64258892024537
Mo 10.146818081424506 12.558588309435397 13.04989086737363
Mo 9.399765757503287 10.1933310976805 14.395233233169039
Mo 11.555414987477697 11.913591214493133 15.280368954753849
Mo 7.719209152389484 11.946127185196007 14.266720690133875
Mo 12.069148186674168 13.815268298520307 14.753058433801668
Mo 8.036173434399949 14.424318434035559 12.946941772634652
Mo 9.790177350370007 15.171946823399844 13.543836664079423
Mo 9.105510697190965 13.139875511347338 15.365174172736399
