33
Energy = -301.0290596 eV
Mo 11.46241096137251 12.944437556784097 13.0651499875474
Mo 11.360515425621616 14.33839571913126 10.474334547708319
Mo 11.163826001401397 8.37758879964216 14.0652711315907
Mo 7.447326253094118 13.388266742251213 11.335896253394315
Mo 7.8550327344399005 12.389451614388992 9.343817705927954
Mo 12.332767175930297 6.5374101234150395 11.808595669837278
Mo 7.429598141073523 7.378122588928734 10.351301272849712
Mo 13.79102117228824 9.820480862779556 9.448767548198983
Mo 10.286205263984375 12.95244031766844 8.252666802057602
Mo 9.751897475596703 6.691023317937027 12.60468879227162
Mo 9.48616874976249 14.717209719092116 10.267986841428394
Mo 12.091116393060537 7.783406693418289 9.133960057749297
Mo 10.979357967129085 9.04823921993312 11.2810138909887
Mo 9.81911394430262 8.17291904686454 8.029425093187795
Mo 13.743187744850818 10.970231687154373 7.4456853728652765
Mo 10.28964561528837 9.753307276305735 6.018599556644554
Mo 12.588819562616475 11.18770495106988 11.14675532969221
Mo 12.511874268661757 9.660546093644712 13.586647668706924
Mo 13.540300627894139 7.949921680409187 11.491624256374342
Mo 12.54592415937737 8.857775980261465 6.994619391833214
Mo 12.803041738030316 12.4711784239321 9.076473548443905
Mo 11.186449825840064 10.359806281638384 8.730534116377147
Mo 9.643852580965177 7.003099971223997 10.169908023637587
Mo 11.439624387214124 11.676024343209583 6.3682694327360245
Mo 8.488018420013715 9.62219606122486 9.850651816073697
Mo 8.910853684461777 10.990071405597488 7.4786248063782725
Mo 10.12332774542332 10.725525065471714 13.190063364193206
Mo 8.57493430669972 8.60214793064872 12.455459611746377
Mo 10.028674180426348 11.910594634766914 10.806494366173384
Mo 9.59309471087626 13.45845465535548 13.057677958797173
Mo 5.887607584757891 9.269362540812446 11.445204119267249
Mo 7.821103827242869 11.150442821331154 12.046441429633724
Mo 5.906898791616812 10.622537024244414 10.13918761038082
