39
Energy = -359.82298119 eV
Mo 11.767356271194915 13.640099147153848 9.83424930969271
Mo 10.417463819073646 12.622797385608342 13.827633245626037
Mo 14.002116056092735 14.283665198010244 10.499021349983703
Mo 10.437488462059763 14.38338453127625 11.84628282166559
Mo 12.697416790574254 11.905354027159987 14.460576076879239
Mo 12.747358877374262 12.451715195832719 12.028509523270088
Mo 13.609905333387896 13.726988200315997 7.556688024514728
Mo 7.96713488543746 14.319041271713354 10.76696236856517
Mo 8.222863880708864 11.087165553241705 14.622413395327602
Mo 9.793822031978038 12.133718122110215 11.188820720350472
Mo 14.14123947195969 12.10539743920043 9.444797158026185
Mo 11.375954856217332 10.212278918407137 12.47079512391113
Mo 7.715610117454159 10.322044987851923 12.072358718931165
Mo 13.387409951402477 9.086823056667292 13.902254920031083
Mo 8.02407650378019 12.687554013743863 13.224224441651018
Mo 11.873915415700338 7.853108984314942 13.96818744082227
Mo 10.785591940107409 10.237951224585757 14.89664762138927
Mo 9.270097364577872 14.26998978982401 9.201289967709533
Mo 9.144802265001081 8.86850079123002 13.38213544268545
Mo 7.55198911502878 7.514176258410905 11.413799624105438
Mo 12.485766778445527 14.76377100593268 13.746838129561166
Mo 15.15177092368351 11.404681829948027 13.38393778417785
Mo 10.319221275155158 7.4854957499146275 11.653819080724649
Mo 9.388918264459285 9.534621450654898 10.393467379059361
Mo 7.6197844203538265 11.887026204021247 9.756219184152311
Mo 12.55149042334727 8.297397358774003 11.148302672310031
Mo 11.86283331925326 10.765696412692995 9.700800622185648
Mo 6.614779342386711 9.599338255865673 9.514863904977956
Mo 14.243008898871627 14.214821410297663 13.66043010681391
Mo 11.932115132036897 12.767334819395614 7.350399629643103
Mo 9.588981476088678 11.692383002349242 8.443404810829655
Mo 14.060407792442685 10.17664188175067 11.346519220307329
Mo 8.267044328825284 7.029867173499041 9.75360901812149
Mo 11.0559224673023 9.529063303554777 7.439516827066418
Mo 13.699916369793385 10.551686854890638 7.35215589403484
Mo 11.139517826077155 8.093870096046782 8.787164538698866
Mo 15.603535428750758 12.484060756926153 11.780660177802252
Mo 8.169267282833513 9.433823369671416 8.133893847095093
Mo 13.952564540394727 9.217124666768774 8.686809576913719
