36
Energy = -329.25841455 eV
Mo 9.704330472464923 11.383410868551662 7.676628703847331
Mo 11.528207537546761 13.845495286766239 10.44019742993887
Mo 6.825355445391051 8.60173933441355 9.610372563766497
Mo 13.406190835988118 7.202354108446036 10.509235945268985
Mo 12.729332695126928 13.960118004393333 8.01124027843975
Mo 9.557366508081417 8.518954279141031 8.332675762682136
Mo 7.248786858821251 11.140187971716479 8.35069461447577
Mo 10.868854472760685 13.980570779749154 7.650151800376664
Mo 11.646506379567295 6.494422542524571 11.402441053358151
Mo 7.981932079999703 11.592881817288271 12.306400335334777
Mo 11.371284817841724 9.235842044600272 10.9130636967605
Mo 13.2932233779186 9.64212726103506 9.37924167410229
Mo 9.120833998423198 7.790253788643397 10.89513987413481
Mo 9.180352787549525 12.82607004871154 14.431242075012515
Mo 14.975938768846115 7.7503153365153405 12.50251020237931
Mo 11.082514496294205 7.42675762371178 8.747495781185616
Mo 7.564002134446296 9.007019298642977 12.370350747770459
Mo 9.059240619116803 14.345567577311485 11.900021774102205
Mo 9.380313468171304 10.02957050547745 14.11163927958687
Mo 11.933837562807167 10.141123029377875 13.205934528430515
Mo 6.7962604333115255 12.517926727181862 10.069615324193297
Mo 11.069376438340095 12.321392440421851 14.691142239896571
Mo 10.492422518149308 11.897504197947248 11.99099484000926
Mo 12.172472140047475 11.678075457935453 6.2682229212552025
Mo 13.997400060332902 9.980016426337297 11.846353283765817
Mo 11.505015084785148 11.603760501664658 9.277002106084781
Mo 13.111591270864503 7.7228970264410215 13.285826429084711
Mo 13.88140368810494 12.423597124514195 10.53232002104129
Mo 8.800979031825143 10.390208158738282 10.299069117042592
Mo 10.082575191243444 8.235777773661336 13.312467114232074
Mo 13.16834776997292 12.630164351836497 12.380651351177994
Mo 9.05418002805872 13.003219692688836 9.631111857309905
Mo 5.92390205910606 9.954288912990075 10.804461001129496
Mo 10.785640918109861 14.525327499908089 12.896162293136921
Mo 13.858859125297789 11.507191615090418 7.709839897091335
Mo 11.835546908335218 9.688248568673858 7.252460065643728
