32
Energy = -290.77916021 eV
Mo 15.35087363848717 9.003511297765145 9.603277451979064
Mo 13.452623158540007 10.695154442831244 8.297693619644987
Mo 11.305991432974528 12.327838776385864 8.4925615774386
Mo 8.335217988862428 13.16835446327072 8.087789811309506
Mo 10.138210762901181 14.113251064000389 9.363599551496561
Mo 13.079854839833825 13.240640258574267 9.814457432380184
Mo 14.664295584333619 11.527626692523427 10.02824303082707
Mo 12.910274397732001 8.306067810293666 9.105160539359531
Mo 8.647831957273445 10.512972050635101 8.083528688260815
Mo 10.9089627989319 9.535017464078365 7.940851339616149
Mo 9.135375542602068 14.349046103827309 11.998668224856392
Mo 11.320117503205202 12.930691937786676 11.658082892371807
Mo 11.97858788089192 10.426830139299142 10.526011266130176
Mo 14.531853696919535 8.832753074664693 11.340733505968048
Mo 7.20771155898698 13.582017826717417 9.965164995494726
Mo 10.614857278512249 6.8045365724131575 8.59379339537735
Mo 12.035005797940418 7.749868758893728 11.302741763066765
Mo 9.326251871663334 11.661593187289023 10.215480903596937
Mo 9.091807005536165 7.55833304733066 7.786807170407452
Mo 9.607115311957292 8.964055512195731 10.16847590195817
Mo 6.775447318348779 8.511971096393308 9.252656228702325
Mo 13.36817242689223 11.609296326976382 12.292520955212886
Mo 7.673903204411505 12.077215481774765 12.251949676134794
Mo 9.86065150792387 6.524412460363463 11.381510515864457
Mo 11.685727174898814 11.765794154075632 14.029572611846282
Mo 6.783633742038672 11.237983178684638 9.610851265910448
Mo 9.55366930163042 13.479550563948443 13.710064702478867
Mo 12.04565586680418 9.435274970917515 13.05377750707037
Mo 9.907322762508603 10.711368413263944 12.660547692011102
Mo 7.4259542716724525 9.838406402692957 11.630161244072315
Mo 7.368481987020761 7.32312404728301 10.613269201049643
Mo 9.614729190284958 7.967017801418164 12.816303566009259
