38
Energy = -348.51170244 eV
Mo 9.03483390302985 13.225844994143195 14.602444387772657
Mo 11.983298865684539 13.840368513059628 14.244424935335319
Mo 10.74171579502608 11.095833712039632 14.995307656248409
Mo 13.041171688227427 9.93605416482783 14.65992032672466
Mo 11.045725899631764 15.05225619949577 13.136641005604705
Mo 8.137714767646234 11.535746415488308 13.783333087207627
Mo 8.339179704972524 14.017881577363767 12.07993630446951
Mo 13.24452909134686 11.938727079547197 12.290618373202763
Mo 11.38227122141137 9.875458906656489 12.714079412093422
Mo 9.374434583534896 9.300131722984165 14.46418884967136
Mo 10.435593329845682 12.391567135957796 12.572514115526115
Mo 12.54300754653734 13.617682030515917 11.262835481460458
Mo 11.75633269017381 8.410830488842153 15.083977047129393
Mo 12.796511240829375 7.620137262254053 12.610488789563155
Mo 10.0342097539678 14.179492786783328 10.477535283752669
Mo 6.59029550521294 9.591821228890078 10.51196297746098
Mo 8.981049259885976 9.550975533120088 11.86397113205762
Mo 8.336484728183787 11.930013780487325 10.862962025585876
Mo 10.77458996827279 7.16767598791825 12.593433943653617
Mo 6.892739897470904 11.785704498907162 8.521225768684687
Mo 11.111541349130041 11.302386772696051 10.390975651690773
Mo 11.0877068136765 8.238560046292259 10.394466539068677
Mo 9.068175613033347 9.889100259459463 8.979550727064359
Mo 13.281654448357799 9.605436630009967 10.494033153421643
Mo 9.36281037687992 12.704849707090888 8.514389207093826
Mo 8.740488905912956 7.755209102674208 9.98247535941829
Mo 6.52278927864574 8.886245862663575 8.735288354770988
Mo 11.777597579910594 9.952160813639335 8.28229683249887
Mo 13.779573376362631 11.659740399561025 9.45150210115296
Mo 13.043651638208638 7.4448504905271715 8.472583306654878
Mo 11.229255362452596 6.880424799638132 8.132790834268691
Mo 11.867511708885532 12.724444348751225 8.471317753205668
Mo 7.554636581868064 10.94041540305945 6.892994945661192
Mo 9.736000426449982 8.76775232762706 6.646436827957841
Mo 14.467172614341722 9.918312312148906 7.4214396026410565
Mo 10.257860024500287 11.061615945818541 6.563174002003706
Mo 11.935834229834516 8.75889797584967 6.119204681504347
Mo 13.44150177654172 11.18329808999975 6.464133583698714
