38
Energy = -348.3672977 eV
Mo 9.649011174537124 8.19567493989084 4.104029228291784
Mo 10.411923685889116 6.314622939150362 5.901839325458097
Mo 11.373218928608201 8.509406631772897 5.437674225324966
Mo 6.562004307071301 6.8346375185156285 5.2619825941118235
Mo 9.394390854940388 10.667104336531844 5.190570225035203
Mo 6.58442015366406 9.910419984254187 5.583330444429659
Mo 8.573113472410377 8.428739846034077 6.301995050256317
Mo 12.844894965139082 10.7414764012752 7.037239786465217
Mo 7.745586224235983 12.200192627520597 5.322671084230443
Mo 4.839360403256112 7.415892742767806 5.632246191514548
Mo 10.803842214883137 7.329373727048808 7.95812222438872
Mo 8.403309550479797 6.103753567574274 7.7234815468151155
Mo 12.977766877516736 8.985511079120773 7.874496066564291
Mo 10.383447269544659 10.28077713036374 7.476865069024636
Mo 6.176687918960827 8.045561503326972 7.8342302445526455
Mo 7.424155137466406 10.74772789186273 7.775616376086524
Mo 5.94575910483016 5.39500513047088 8.103526293107429
Mo 9.043394733497994 12.460945474767035 7.336810740645347
Mo 4.919491590073735 9.899064830256492 7.351672788536418
Mo 8.700958800088301 8.672295181171602 9.058419776756761
Mo 4.408143541456794 7.7253607552831 9.95597718696252
Mo 11.463448426166234 12.177428716995278 9.261079776980194
Mo 6.448758982421619 9.711356607678585 10.201449663062471
Mo 8.92924412010041 11.25332351863428 10.05017725126254
Mo 6.984594150152164 6.857580391967728 10.178186828657363
Mo 12.1362888163403 6.904998079870837 10.650185239625413
Mo 11.159574524994204 9.32491963741521 10.009323996416434
Mo 8.249519758457883 4.4647635157298415 9.467822412411827
Mo 9.577547774710974 6.496832840752532 10.377166614374845
Mo 12.995219847604092 11.192173304537823 9.929847453719942
Mo 4.5550780567570115 6.47256493631457 11.471250650053062
Mo 8.811245048924295 8.88763278439717 11.68078027094202
Mo 7.466036429762545 11.130877121511693 11.838725286838185
Mo 6.158112079831804 8.312225220620906 12.218003096431547
Mo 10.628793726330734 10.953681570096302 11.696063866906464
Mo 11.296631412215534 7.841134141969702 12.16975193373402
Mo 7.951540707416612 6.6959722557558825 12.49192163481927
Mo 5.978733852427345 4.41423973995723 10.040716178370532
