30
Energy = -271.095859 eV
Mo 10.611947920464399 11.531515992098258 5.207907735684721
Mo 8.745594394311569 10.140214221097738 6.505150206655136
Mo 11.463211266801947 8.527227429725471 6.767385247470526
Mo 10.758053364414533 13.46424102331896 5.898031022799655
Mo 8.322416022160072 7.517773856464608 6.932231103199581
Mo 11.160153760123618 11.236165482102333 7.654890681043073
Mo 8.804999556304338 12.669116754971375 7.145479139572141
Mo 6.898769562929705 8.383777342127418 7.968673239431792
Mo 9.531101850907838 9.262204075580037 8.595587962745475
Mo 11.295305292453088 7.154814542377597 8.03010567308373
Mo 7.38821266418473 11.061018226016218 8.655598079551657
Mo 12.238809393401334 9.496522184534049 9.381914396348499
Mo 10.55268289752624 13.357083116148944 8.582330553229719
Mo 12.333456660969127 12.322848898190923 10.455706834205172
Mo 8.616727924289334 6.8769082116527995 9.847138529500473
Mo 10.656584235092005 13.022539405531157 11.615323692139714
Mo 12.599463875278985 7.343131683627955 10.69924457096831
Mo 8.039804385866605 13.437981921946234 9.936085832001064
Mo 9.744206324932078 11.273604669287762 10.146781416731871
Mo 7.53652465203452 9.458746359629682 10.560512634114698
Mo 10.215264426476976 8.558470047974648 10.903232051608525
Mo 10.924776038488412 5.932997561844994 10.73081103669731
Mo 8.215101452747476 5.456067286076606 11.632718159537253
Mo 11.902132760426392 10.409733235188638 11.68724266872692
Mo 7.39348319073747 12.204810618514394 11.259175572218757
Mo 8.360740917819998 7.786755392747451 12.580170293844759
Mo 10.91255399518623 7.577207862298638 13.027547513785079
Mo 9.159266635157325 10.411326457767185 12.821605794715001
Mo 7.178331876095454 10.067589799318041 13.134089813994851
Mo 9.947480490336126 5.5647641297576165 13.144486332311972
