31
Energy = -282.20288418 eV
Mo 12.691091461872716 10.051866902612316 13.43986691105527
Mo 11.776217378889298 12.054949368604724 13.521924229594541
Mo 10.574225194727013 8.234550091098471 13.696936194955951
Mo 9.719936407371577 10.703834161952395 13.638485877947968
Mo 13.87937151009489 9.126009176062794 10.907407264590818
Mo 9.175046785283097 13.498335044768899 13.2262520537187
Mo 8.440159897164255 10.14412201169293 11.025891247014696
Mo 11.064200698458759 9.883694962561867 11.415792519640345
Mo 12.975519658114132 11.76986379585317 11.30198991761407
Mo 8.477103316620846 8.448485606397465 13.125587384489656
Mo 12.145002016280843 14.14602042981426 11.125367531656922
Mo 10.134573747803177 7.520819127134299 11.347456776647006
Mo 12.884765141823175 7.646867720560558 11.660072174385748
Mo 10.136446390017198 12.437022634495442 11.283759117218734
Mo 7.771918594837265 12.04084136845513 12.849089277150352
Mo 9.940668659763435 6.077851194437866 8.919208582131013
Mo 12.055257693753807 7.982587937498504 9.065513839054102
Mo 7.552217726248681 7.634263551914458 10.16869392717357
Mo 12.257506567357641 10.609288353828466 9.092619504732724
Mo 7.702260307979237 12.743945229520648 9.962177493544928
Mo 11.879847238839387 13.397968990200743 9.308422613622797
Mo 9.795802889447222 8.891056112031093 9.089477487700478
Mo 7.43425265172305 7.554300573859951 8.233654233915304
Mo 9.846843473170152 11.528915388772713 8.736965672193076
Mo 7.2935097746782755 10.233789284210076 8.68045744863759
Mo 10.252145143658279 6.880463034180744 7.229914631195065
Mo 11.283559013135777 9.646014516799164 6.706864174906994
Mo 11.835314233556662 11.743488991201113 6.6956609727368726
Mo 7.353189769163341 12.662714922905431 8.03933220847505
Mo 8.76761763362107 9.553456061013788 6.7884017842953766
Mo 9.472706317438545 11.79402229100901 6.307124204732392
