39
Energy = -358.38272347 eV
Mo 6.926323041465285 12.429254244938617 7.8075607878720685
Mo 6.901400229558817 9.871118510497048 9.296531425900062
Mo 8.058532547961041 9.970009333565892 6.991008166223086
Mo 9.434070259604129 12.638943366825602 6.292290920582859
Mo 6.673342404624309 12.174568961703777 10.067394664642121
Mo 6.258035094380617 9.78439542021543 12.006839818976008
Mo 8.441307636322415 13.96976403243333 8.57331638190946
Mo 9.280852552221623 11.577576156146018 8.92060498862586
Mo 7.668088544159328 8.374591743362354 11.213217945212403
Mo 10.587870611284545 10.965925381578431 6.531470999372262
Mo 9.278249850314277 8.987966948410538 8.51533912940795
Mo 7.2347051211808715 12.050433083005117 12.633431166330862
Mo 8.885073145623657 10.704668763016606 11.353864570332007
Mo 11.170866098020827 13.459329279653137 8.053442643663855
Mo 8.799216762159885 13.439200287674938 11.043468375134523
Mo 8.686388439757687 9.384535738744711 13.55522963154105
Mo 12.219219596271467 7.41543504041777 9.113901547617795
Mo 11.696410192051127 10.01835716959056 8.60243938577485
Mo 10.42747609726485 8.466042919791295 11.168614588654922
Mo 13.017441814159145 12.159346861054434 8.102520130475757
Mo 14.484938456171882 9.844154821825407 8.626644332445409
Mo 12.53919753048694 7.027609711576611 12.05239788220331
Mo 12.845102080326074 9.51202558290268 10.882515146042465
Mo 13.967694993020174 7.102660051956905 9.924268130225988
Mo 10.582397301387166 7.9141079309614915 13.542638507158168
Mo 11.23856995768664 10.490524474227113 12.780238340604404
Mo 11.138388085215478 14.846247749893026 10.242277758069758
Mo 11.459228825854368 11.998920070136776 10.437587044823163
Mo 9.252418742838293 11.8482804321547 14.044177815818106
Mo 14.102132613152303 11.906268944610336 10.46717070563831
Mo 14.386628628352556 8.129241779496853 12.796627712733597
Mo 12.974036014228945 14.379183329068638 10.056283409463186
Mo 10.740945811574372 10.157144164050187 15.548609297935917
Mo 15.449173574700637 9.548839457003416 10.339089305907203
Mo 12.860293978431924 8.832433870551919 14.361474679396839
Mo 14.084269160765203 10.725016923714355 12.919840346485982
Mo 10.696143560782025 13.231130724070317 12.70630598385002
Mo 12.001082682956408 11.554400732210958 15.180740400714335
Mo 13.07577748092415 12.702193018130908 12.76885950933236
