35
Energy = -320.96630315 eV
Mo 13.174947856941278 12.921796243182223 10.639077020714291
Mo 12.871864371086005 9.941391905246434 12.328711075144446
Mo 13.90186206234254 10.593944028897617 10.11251040140762
Mo 10.990918020475947 12.353433079560062 12.235301926446425
Mo 12.693843059072021 12.763478428698647 8.608843871369865
Mo 10.349937331332313 13.281219000068853 10.152219690037395
Mo 10.30719494004638 10.181258529844193 13.82910825834839
Mo 12.847483861672197 8.298917554215942 10.918514511940378
Mo 8.544753154958768 12.35202343032715 14.152310152043679
Mo 11.38350414758972 10.793517251611158 10.159898609459097
Mo 10.39623190864656 8.792349759572058 11.60041799191693
Mo 12.973306600148767 10.256296075256735 7.799038111819257
Mo 13.800707257330751 8.049172982346528 8.235280879894914
Mo 8.138916796466498 13.722368775461977 11.702205119581985
Mo 10.264287632911776 11.296172444381089 7.836293174375067
Mo 8.842420693771247 11.204898881441146 11.612041265952238
Mo 6.849548860495918 11.79127686357802 13.505849068947335
Mo 12.191503611429184 5.8287346066951 8.797485994419949
Mo 8.456345800157656 9.327583432968979 13.607756790141492
Mo 11.06325499639777 8.410052495431456 8.736021870154286
Mo 12.460990166691044 7.748297435374911 6.532341038195454
Mo 10.33361418817621 6.43777568646578 10.370851748736893
Mo 8.305031810899878 12.337168312213365 9.108504773412825
Mo 11.194288022284491 9.86668239327031 6.02345684744394
Mo 6.54245871274574 12.680715219061236 10.810604765291837
Mo 8.57649265779614 9.596391693288956 9.435061810449547
Mo 8.167275364621759 7.719084652210084 11.356047061198662
Mo 6.595309685920583 9.77396724355757 11.335101300224025
Mo 10.63934039778399 5.854915012042049 7.558406481821378
Mo 8.166079490216884 10.53815363550853 6.717388455094786
Mo 9.426942652978415 8.483072702174193 6.7450508330316605
Mo 6.250705336205777 10.640186613437844 8.916271589756667
Mo 8.532559464341027 7.030790682288131 8.914062221210214
Mo 6.002147747159756 8.051440581172669 9.85087975609749
Mo 6.619815964162926 8.801730104023758 7.592566305848388
