38
Energy = -348.47015865 eV
Mo 13.843616327713786 7.611014948352433 13.953418792438796
Mo 13.494789907023002 8.237897705157417 10.8461790621344
Mo 13.84875799696989 10.018722007566334 12.87773404749804
Mo 14.210049433373278 10.646166694079927 10.13820605942978
Mo 15.445143320637083 12.19129283689415 11.936231457902412
Mo 11.664534596308487 6.956918159059203 12.297232074495522
Mo 12.79324247452701 9.331468232798183 8.487204197308365
Mo 12.28920336735663 8.357997305726682 14.65519199294253
Mo 15.757254654757789 14.241858532565557 11.050570283080685
Mo 14.796368913379858 12.9035370840215 9.343205469749508
Mo 13.62943759092149 11.919479651446407 14.14897479690627
Mo 11.642881221227785 9.619536724984634 11.184194175490958
Mo 10.660860099468989 7.538465544491185 9.699065991573821
Mo 13.288605869993539 11.754605600289658 7.19840341853866
Mo 10.634626610122835 12.037211230056705 15.844814291588012
Mo 12.731467861409252 12.3591187620789 11.356440979967289
Mo 13.717528151574562 14.227305070646596 12.684795458470283
Mo 10.090859202683227 8.04821879982572 12.689894214317357
Mo 9.670528783478277 9.898963690714387 15.069163878419758
Mo 11.400484963440656 10.792734297136082 13.628674095816066
Mo 11.375174508221365 11.240859996316656 9.114122386984716
Mo 10.349264590843022 8.60857744940296 8.153578242535056
Mo 9.036299949987885 9.896598691043678 10.266549979054425
Mo 13.239990648704266 14.735176008134724 10.213059692442092
Mo 10.090336192475789 12.135197667896662 11.681903732978665
Mo 12.602453698125464 13.440396380457257 7.7059659001334415
Mo 11.484048162358892 13.609199503015292 13.669912958750519
Mo 8.589515517759805 10.388811466643073 12.789414203622302
Mo 11.582819049514383 15.796033570815489 11.92275552262253
Mo 10.860498495621153 13.934382821065578 9.917722838250864
Mo 9.740209111377931 12.792940531051219 7.4067516845092
Mo 9.184470335322544 12.586517124288513 14.39189118339511
Mo 8.981899788188551 11.117667853415362 7.572069127612981
Mo 8.329930716056012 12.496016784191347 9.873032560696316
Mo 9.793897237891107 14.858974108795348 12.125990364006109
Mo 6.633954638317131 10.786875720163826 10.717238231220435
Mo 6.306707421724034 11.213859153686832 12.818294598983401
Mo 7.608325323477673 13.059955872593289 12.044239955785851
