36
Energy = -330.52884567 eV
Mo 6.2258961751914335 11.238036431000662 9.893353345748597
Mo 6.94751954709498 10.973798596676613 12.156993048666228
Mo 6.540946089895129 8.320570243853366 11.517961805065303
Mo 8.178319353440909 13.267905887267833 13.376947332712664
Mo 8.12783680608343 12.718869410865123 10.5013619235351
Mo 6.524534353571065 8.70401553568214 8.808912351550715
Mo 8.370404632047208 11.631194653824798 14.458071387489909
Mo 8.111130888966782 8.575932017040572 12.701773960005948
Mo 8.455424170826587 9.838174761233988 10.155109452939055
Mo 7.989117216866148 11.360769671497794 8.098960929580903
Mo 8.841472440299587 7.242309470644966 10.097920048986849
Mo 9.584067732503623 11.077178174716865 12.21344328675287
Mo 10.534067181881682 13.66275738009327 11.48761446521346
Mo 10.936495993758848 12.600328115556112 13.974006053593325
Mo 9.7708999134 13.69829890717144 8.145523779877365
Mo 8.375056139905805 8.866774785401994 7.595320100225814
Mo 10.3888987650866 11.679437252694019 9.555961820342496
Mo 11.586993252168783 10.026350878934744 14.072506396083485
Mo 10.355857348176862 10.906586096772921 7.146223340610068
Mo 12.551470081427901 13.553460883303195 12.770790496950172
Mo 9.716737869420145 6.660878911657781 8.123420081535354
Mo 10.691520776579376 8.693420735996401 11.570102982930456
Mo 12.333900746722026 13.425194569290197 9.77781656105491
Mo 12.215391328580127 11.187644671910535 11.565724970716325
Mo 13.34548852158288 11.15807697005048 13.960303413217728
Mo 11.581904819628434 13.14902257908767 7.364113032607107
Mo 10.965183130036753 8.502111608037564 6.13544689206478
Mo 10.783495632347922 8.9433193811708 8.987863991170103
Mo 11.708787875512407 6.5504450583211815 10.336627552582257
Mo 13.030742134521184 8.674542448437547 12.375848526044189
Mo 14.646493083485845 12.461830802606286 10.899287280721197
Mo 12.295893285674017 6.688601054274746 8.418587634865803
Mo 13.056991013098187 11.055655473168668 9.064929346491821
Mo 14.9013039415261 10.65516848707394 11.454830627430796
Mo 12.576258193317098 9.155437008609306 6.911752620673014
Mo 13.262714514266504 8.827600327775432 10.001192962620465
