34
Energy = -311.1650298 eV
Mo 14.114264086022006 9.732582158218786 9.15418872659494
Mo 12.985130773749553 12.642030781792863 10.157261098664117
Mo 13.378124752880913 9.99650301960236 11.38144954943437
Mo 13.797912971627545 11.68737563036918 7.306487873825704
Mo 13.009574264534129 7.670451910114869 10.91991822163703
Mo 9.909511163628187 11.33855220916869 13.999842983253204
Mo 11.881815861081254 13.483474471467932 8.611781250514655
Mo 12.318796803506858 8.09287007029073 8.513091119309728
Mo 11.937963135140619 8.973217443152897 13.391703135630342
Mo 13.070067649883716 10.074895307966717 6.509670441633879
Mo 11.763201437111086 10.660188970907226 9.046939773203688
Mo 10.092718130603615 12.667677553035809 10.223489986575856
Mo 10.73698617954299 8.795091480037328 10.748954109953837
Mo 10.865582244587015 11.71492177183099 6.882883955077511
Mo 10.970968206901478 6.0390588090461765 10.188437149404951
Mo 11.188449985525164 11.32153248958554 11.939548565601354
Mo 11.440417512539323 6.9933845109094595 12.890539219017718
Mo 9.071917259388675 6.712679201582549 11.404232141946013
Mo 9.331206567917953 8.695946520605608 13.183948756174184
Mo 8.781436152827645 12.699527244982562 7.998271238434919
Mo 8.661207609863139 10.524383422816959 11.517026247367898
Mo 10.379300198318692 9.291846473672337 6.714040282784317
Mo 9.066717379290122 10.412788968308334 8.769859165266876
Mo 8.904999925517467 12.790270387551615 12.785550913828908
Mo 7.3751914761937725 12.418511510650553 10.124446344593188
Mo 7.9504022738171525 8.148467956564291 9.873606685169246
Mo 7.2196436714326335 10.634094118946193 14.081683794758057
Mo 8.51196010300318 10.45067189547439 5.9387353624927774
Mo 9.927965233482754 7.389787313188197 8.53184521519181
Mo 7.026097905530633 8.678520041275354 12.114536206931138
Mo 6.532484804658972 11.022390404471833 7.665552369744761
Mo 6.233806494096429 11.386076398625912 12.664109339569704
Mo 7.426831759817722 8.89159944153273 7.214237644803664
Mo 6.3429265516027735 10.33463546146271 9.853946028053356
