33
Energy = -300.12460317 eV
Mo 10.673613644178912 8.316285474802593 6.644483318877502
Mo 12.945820655569207 8.17849494734639 8.597564095292661
Mo 11.848340500892341 10.671619631022349 7.023152340111214
Mo 13.68803887844099 10.85139450215507 8.663230965766441
Mo 14.384342414085143 8.192804929387014 10.565722300582959
Mo 13.060299928521314 12.750121143227487 7.839214604070255
Mo 9.141532137219958 10.860508590594472 7.676100230928984
Mo 10.679994847330617 6.894082907000978 8.017646366446009
Mo 8.336108528969037 8.452961700445167 8.112385779597224
Mo 11.772697163457904 6.951488900114531 10.651677554561287
Mo 12.69733152211105 7.369575557316427 12.353215565459191
Mo 10.896836922351119 9.408822346127518 9.250599363249057
Mo 12.82197177862383 9.83153233549296 10.978317498365074
Mo 13.792037312210828 11.786644622982346 12.473753372380138
Mo 10.974144880283362 12.155042603494646 9.145194389674675
Mo 13.132504178822117 12.695458459859855 10.802568064810403
Mo 8.927662461640423 7.60878145826809 10.249373581218054
Mo 8.487235757207406 10.4606696022715 10.035652196922763
Mo 6.7609001461575025 12.127802733331798 8.33850834118026
Mo 11.860664076518159 13.86070287318015 13.160480404154155
Mo 6.11544132319127 9.54876246558321 8.392094384126375
Mo 10.17720079873527 8.96282829086006 11.927871471912885
Mo 10.727928507350029 11.427149557554566 11.770887967829303
Mo 8.428321406571802 13.195270345592442 9.47972158688936
Mo 12.080363202613238 9.84412332568855 13.868254641651426
Mo 6.429619966218303 8.781008842157666 10.306520632170331
Mo 11.856788101833198 11.460042521549807 14.6923133670354
Mo 7.769131906238259 9.867968162830808 12.677115909166597
Mo 10.394651099423136 13.848971625184985 10.932193284608214
Mo 6.23594155186825 11.56644991992914 10.456567317536267
Mo 9.13141947550221 10.62662374313539 13.90583494070338
Mo 8.325338492959663 12.415076293871778 11.854532734775612
Mo 10.08477578924254 13.55498174279196 13.740569120563029
