30
Energy = -271.11705445 eV
Mo 9.60635140918716 8.714071896711534 5.623628911534574
Mo 10.966755313071461 10.83260016776417 6.0108665771251015
Mo 9.270984389872932 12.53863279498638 6.487070539463473
Mo 11.233668683389974 8.966260343947814 7.908636611479075
Mo 8.108886961562122 10.256130897780226 5.845710225867279
Mo 8.364045932712997 8.20559531208394 7.7965178274344495
Mo 11.905227771853339 13.028227140485118 6.811161179167195
Mo 9.372436039185814 10.63290545452725 8.500317738886531
Mo 10.50684873060787 6.656545679022042 7.641445509323821
Mo 10.259429832693824 13.317587513454297 8.621391526953133
Mo 6.522071699516633 7.826563414670503 9.893628902114845
Mo 12.102767815326814 11.484780482507615 8.476543718343068
Mo 7.279549282149313 12.208153893745294 7.977503042272056
Mo 8.880876466035122 6.139711309445622 9.336958705337814
Mo 11.47765075541308 7.1765987508957725 9.9046071096697
Mo 6.537826841761577 10.174435879133044 7.892817437652245
Mo 11.367486178532149 12.592189122669172 10.92298890838566
Mo 13.062550436445305 8.985036704990211 9.643588600992883
Mo 11.156319242391886 10.116780665423608 10.615571267449633
Mo 7.228348403977091 10.30464174960952 10.33829669956933
Mo 9.208483059085122 8.367314451980603 10.540153150657755
Mo 10.180096342334812 5.985958503689415 11.916750166587716
Mo 7.217933961330272 6.584346773580743 11.321371692839652
Mo 11.317087696604398 7.857872138486917 12.341124223209142
Mo 9.177459683961775 12.195389092467085 10.58919298043331
Mo 6.718118589993676 9.257097967110152 12.40001907905064
Mo 11.549713397898229 10.700592575020337 13.368435173446573
Mo 8.79482458850608 10.301669938523537 12.5241369511404
Mo 8.785729891999033 7.811567343535927 13.076187034566141
Mo 10.613512436546525 9.55378387569922 14.446420342993017
