31
Energy = -280.85697424 eV
Mo 9.790976786054445 13.745985130539367 10.748126476660058
Mo 11.238111237291315 12.398733936000083 6.455484614999915
Mo 11.178996506010195 12.395805938755414 13.435856942870489
Mo 14.38515257325525 11.005203001958211 10.237678257245763
Mo 11.218436813829268 10.562743816610498 6.753195986215226
Mo 9.051393143966116 13.636224993381916 7.960013560487998
Mo 9.998163813514696 10.867351192896013 11.568114731599342
Mo 13.436629101460596 11.594415773650693 8.43186375792555
Mo 13.910471562509823 13.94795222640483 9.732146116163664
Mo 8.0497761146197 11.901823191005153 9.991238026026995
Mo 8.295573523052727 11.813341186213506 7.543548828665515
Mo 12.167200029058705 14.153108361129094 8.926541823662525
Mo 12.029170301378167 9.617033637174655 9.46940069394045
Mo 9.311916947411097 9.400521393769447 8.979193220128288
Mo 10.20486469687198 14.445531094726284 13.497047034769311
Mo 11.122848782923898 7.5493024065019805 8.110002084677443
Mo 10.656568182758072 11.898138965341753 9.057118468959175
Mo 11.743216078528224 14.67823405069787 11.838636136685329
Mo 11.9501900774641 6.957809190531879 10.149245134309101
Mo 9.15932805596194 7.142700387033028 9.354503287290923
Mo 8.598120635172755 12.547882034562111 12.614807307922685
Mo 12.6321739101502 9.445305356350678 11.674834746790888
Mo 8.30036399398903 9.949810721067683 13.48131963797357
Mo 10.254846249948192 8.270880597211644 11.424002782910678
Mo 12.29124351193789 12.273628382384873 11.121404421093247
Mo 10.676317912908088 9.675398540204238 13.804810863762075
Mo 7.758967140980955 9.545036140684727 11.028566644495378
Mo 10.562008198687417 5.752478114059289 12.208407500451782
Mo 9.363833850009508 7.606217353987096 13.897251020685673
Mo 11.939708020932242 6.8348175113706615 13.078864339474737
Mo 7.842457109614556 7.462117587973205 12.27639315813409
