30
Energy = -270.82263322 eV
Mo 13.733468650835517 10.281694425313217 6.065049120607336
Mo 11.668815659326773 10.665406844411136 5.440043946411333
Mo 9.565530582503301 8.633108224801868 6.305205524669552
Mo 13.269744367591052 12.265303070932935 7.066047141299583
Mo 11.808186264269542 8.707145737561255 7.220473757650719
Mo 10.817874106974257 12.483320007833582 6.897210957586678
Mo 12.347344176779906 10.706539683799795 8.5976494098606
Mo 7.330577913911314 8.96705541067498 8.193815230942874
Mo 9.368936577034125 7.421795072153073 8.144677694492515
Mo 9.831144528420541 10.555107440847028 7.969221453135501
Mo 6.697466737637541 6.953616282816869 9.30631852195001
Mo 8.008622999809594 11.39651252136204 9.676108224757941
Mo 9.542817561011683 13.490111211156485 9.150973667014096
Mo 11.51706768253179 13.235101467776886 9.49046373305344
Mo 11.253525397283585 8.762424053824615 9.839377268207459
Mo 5.74107007775187 9.380175003119128 10.648581167038358
Mo 8.57222174988145 8.804328015908862 10.271105041620755
Mo 10.831427389431415 6.367567323278254 10.726412126588375
Mo 10.235375839707471 11.175760401711509 10.679111539997093
Mo 5.251567375827665 7.622904652319813 11.32106188977444
Mo 8.689107117612998 13.29386974490561 11.931112165527706
Mo 8.078102083922005 6.635862937242988 11.226096651464037
Mo 12.451426100181218 10.23542562847274 12.108982446322353
Mo 10.577852161049702 13.498022342574595 12.153413814616195
Mo 7.841722059176338 10.614379571290856 12.1868001485825
Mo 12.179885558911035 7.1539926815794095 11.798575995612056
Mo 9.988882610312688 8.691127269854823 12.479814772122868
Mo 7.307700103416354 8.319490631623994 12.79274582149712
Mo 9.941319835395872 11.034144371274127 13.239452360230008
Mo 12.218147422240678 9.315638660317767 13.741029098106138
