32
Energy = -290.76187941 eV
Mo 13.569389400903532 14.7721036310758 14.387457927859865
Mo 12.143431770735807 12.49048246192213 14.16864994751727
Mo 10.158447799854512 14.33122289724194 14.609496688496135
Mo 14.67069838568212 13.0833481811483 14.549053192102978
Mo 10.099547972682963 11.502128358046397 15.541515547208148
Mo 13.65251676204073 10.756227088974239 13.029106232192687
Mo 11.721284468761995 14.308188205075561 12.250455505663055
Mo 11.697416542914413 9.560155676867694 14.511511214711879
Mo 10.254439775874769 11.641339746047757 12.73320386488876
Mo 15.423813428136025 12.261846424387931 12.188562317723715
Mo 14.063478834828716 7.9809033941933585 13.025107385210633
Mo 9.01830921321967 14.570964319768821 13.070545201384492
Mo 15.361320120345473 8.772562073092889 12.009196141759286
Mo 8.190230301007793 12.328341438060066 14.437647041850383
Mo 14.329574151107751 14.554047800474214 12.077637188106316
Mo 8.928533294586767 9.67127266773414 14.248937286593879
Mo 6.877324179108725 10.458468932356135 13.55352096518777
Mo 7.732934251919918 12.172639834681817 11.822961158294982
Mo 9.912162370333302 13.240455805337618 10.748656597304642
Mo 12.7629442770418 12.354171946075905 11.066675276325618
Mo 12.592628588669015 14.644578501535229 9.780505598335777
Mo 14.818804291054228 11.058041161613136 10.113379184919204
Mo 14.850112443926776 13.741285476142416 9.878815990255982
Mo 13.018299967373576 9.516663428387124 10.814717822271522
Mo 11.220705165578947 8.805263601252928 12.718134420480128
Mo 8.607244537094482 9.805733194084995 11.700036045593908
Mo 8.569344926770396 11.240696093197895 9.669002149223084
Mo 15.052604525906547 12.477602902618882 7.678200206317085
Mo 10.715130231470917 10.554175636676371 10.29363722410857
Mo 11.321479806101928 12.609417828176499 8.624048162377903
Mo 13.468637672941473 13.629651823096564 7.4013215237928085
Mo 12.805826052942924 11.047190588636985 8.440072294207482
