36
Energy = -328.343935 eV
Mo 11.60883409877605 13.770024377919292 7.565723760736681
Mo 13.359510154081772 10.58955171603443 11.784606672833647
Mo 13.810267880569468 9.916039678460507 9.345954501055704
Mo 12.371507186454686 14.902652451531848 9.459628053167439
Mo 14.302319987640466 12.223970352306686 13.429758797908809
Mo 10.845353372290983 9.798457165940663 14.617877851752615
Mo 12.023311176037023 11.966159111515235 9.782923287263468
Mo 9.92673967394044 13.473155508710137 9.198055677562131
Mo 13.315790218780128 13.472777974454878 11.63781729861107
Mo 9.10505392478579 10.547025477345004 9.841852049399742
Mo 7.856950774329581 12.245475377600476 8.299468280464858
Mo 14.312013376773955 8.012357738221334 11.453935497552706
Mo 13.890014874205045 9.657872012915693 14.617202809083258
Mo 13.136300570715914 8.117202516406968 15.175080163915752
Mo 9.065993056984702 12.858467467183196 6.693866755846133
Mo 13.822583193556712 7.431537243019619 9.514446379132027
Mo 7.910282650926066 10.650314931735673 12.561577386677117
Mo 7.4259394520981505 8.658325640092443 10.592915645207572
Mo 10.404568477069486 11.066380325259958 7.694121273609204
Mo 8.886418416665464 14.68197959839528 13.405589864979035
Mo 10.70094899561659 14.68524976091826 14.031397131377762
Mo 10.617148967373945 10.981664702688636 11.976688643352317
Mo 8.946504504580979 7.7629738691483565 9.845334422361505
Mo 12.409100870873656 9.370861102925362 7.146144363697867
Mo 12.958845373147135 11.304103180423267 7.122515579244252
Mo 11.692270494074108 7.04156331359677 10.855302094102004
Mo 9.570179306633158 8.6085528420932 12.363183426437224
Mo 12.019157964706416 12.157340480020265 13.843660551302767
Mo 9.275137173465161 12.088295025425234 14.00494148120455
Mo 12.061057989436897 8.419818752058285 12.656418601410316
Mo 8.178933431298312 12.857517539163732 11.217015102106545
Mo 6.577501466733732 11.61715718985649 10.592508286123957
Mo 10.856773933782929 13.607705380610225 11.71409669377326
Mo 13.947661720672489 13.435536028923812 9.076730483469927
Mo 8.697469392880814 9.636149107607878 14.749215775852942
Mo 11.516994083133158 9.211265350772837 9.787306978896732
