31
Energy = -280.53844536 eV
Mo 8.709381694347847 16.60927587919076 12.59838263745593
Mo 11.8862404885397 11.23341559935983 9.903081489576545
Mo 12.460519502772422 12.35422877650876 16.463978067975837
Mo 14.989345744734678 10.478149421775086 10.738930004610905
Mo 11.364612361386104 17.144533457950377 11.731604000640248
Mo 9.96235864990095 13.986031810223489 9.983647427217551
Mo 11.336710277542927 8.970756541613614 11.532168578528331
Mo 13.025462390788013 9.091041212885207 9.898308197638318
Mo 14.92237076801948 14.639069122999368 15.837383909719511
Mo 15.466072635860852 14.513620432542924 13.34020047427153
Mo 14.34214436076041 12.851260110375858 11.098404572862991
Mo 15.538488860695246 9.531855710099686 13.093718215469561
Mo 15.690375958886332 12.21059593027818 12.999963613700444
Mo 11.48449318302624 16.410302142045694 9.954314952706147
Mo 10.207211858654544 11.094167784114074 11.509804478952546
Mo 13.051815426931123 16.0895237452346 14.091986930188716
Mo 11.062370381537121 15.1971558525804 13.734831315779063
Mo 13.303088690307396 13.313899611034142 13.965725965768064
Mo 8.708246629390331 16.604248372991815 10.753829014093313
Mo 14.042117389931622 10.67761696635312 14.69569844465303
Mo 12.050824650881799 14.155193335711845 16.25213004184292
Mo 12.531773378547845 13.924343042379807 9.685072688580851
Mo 10.181339812041614 12.571088709333482 14.419604524588264
Mo 9.193815612457485 14.008066330070356 11.898693104126302
Mo 12.896367687943444 8.483831759106986 13.84620178746572
Mo 15.481025852155902 12.784420806893236 15.723165324304203
Mo 11.61762423480751 13.175207490226672 11.973281577816106
Mo 11.142689017016526 10.9877688716596 14.208166452486081
Mo 13.090978073521033 10.70474470333559 12.276509214512025
Mo 13.24126856123539 15.243783941233037 11.8054183524291
Mo 14.02924119495296 7.9556375755174065 12.140777329181944
