32
Energy = -289.61844514 eV
Mo 11.842510099411559 7.734065952642579 12.41075154645604
Mo 9.565374854534985 11.10969056945348 14.229938948340157
Mo 10.216193363652495 8.143922727918538 13.552646078187193
Mo 9.071377346281949 12.709039212597014 12.655579379088206
Mo 9.372020959810495 14.75365905793797 10.590091999142905
Mo 11.65329969508901 12.353999849005602 12.774910547251501
Mo 14.615797297993646 11.18085048638071 10.243881465389881
Mo 16.359728675517456 13.14596598405211 10.702370965668178
Mo 12.216286981876845 7.011919510979104 15.300951033401857
Mo 14.396811387341067 14.964687861021911 11.143733620054538
Mo 10.826497204860516 9.502365747249948 16.05802137443013
Mo 9.638336454045238 13.602611116142352 15.280602778737226
Mo 10.362133080122549 11.991195449041177 10.493936747623257
Mo 12.382118649167207 14.063605699031745 14.357479593276656
Mo 15.280838087887679 13.786720723539343 9.08951823523957
Mo 14.155090552593638 12.584433979164647 12.317275883759615
Mo 13.036404080169643 15.787647213402334 9.06446580718337
Mo 12.38200428582351 10.03601277499141 13.792879510141626
Mo 13.803769863475935 7.539677774851447 14.548106710941214
Mo 11.953992675097004 14.670143974608953 11.506605692196572
Mo 15.906831609780069 10.88233575552293 12.8486083148905
Mo 14.356183832182827 9.192323465633507 12.309891550220554
Mo 12.511336098824364 10.29865144391017 10.974658962968121
Mo 14.126000953738856 11.973662985040011 14.858356350751082
Mo 11.572779955752146 12.086094230749286 15.685832488482328
Mo 15.16407441309728 10.029314473425751 14.904356350850914
Mo 10.243883807243476 14.836800937666972 13.572516818034734
Mo 12.80686274680395 9.64739150641914 16.40004586400881
Mo 10.121963211223523 10.027705329911635 11.981812544683141
Mo 10.4511485490543 14.236985512191822 9.139948374946973
Mo 12.911525737431436 12.881626294447262 9.869357799678323
Mo 12.165674137457446 16.9054772222721 10.328560092630193
