33
Energy = -299.43857233 eV
Mo 12.42535773833016 9.180417278712497 7.335881696046568
Mo 11.303479909837966 8.10536486817949 9.130268723634613
Mo 10.133900638062881 9.692654124066387 6.978311545207727
Mo 13.557431965413263 10.082586272809806 9.293134450468338
Mo 9.865829805940486 7.399506147826246 11.124413557393435
Mo 10.571302512568785 6.455637421702632 13.432982104005658
Mo 8.835492413241903 9.009899352062153 9.036951825077717
Mo 12.185037905312752 11.239747284334399 5.561220365304214
Mo 12.934629435926306 12.069883360762123 7.154627297609232
Mo 12.180007446947265 9.325274678610903 11.376846615006958
Mo 10.475957945500591 8.966422656177727 13.612442180535332
Mo 11.159264099436394 10.971464824055536 9.158192469518344
Mo 8.640558222481424 6.857417155199055 13.550310841271925
Mo 7.756120893568456 8.185630708867938 11.265005079247107
Mo 10.109113117881396 12.054516435621526 6.719097010561975
Mo 14.225220115429298 10.891858632131594 11.492596530865361
Mo 8.318695147270367 11.397905719520093 8.806676120773155
Mo 9.60211898299907 10.145582625540609 11.303612747398887
Mo 8.023417577675442 9.690133393678396 13.4179603507501
Mo 7.15718540909989 10.88655277506007 10.632983269073526
Mo 12.69640932236446 10.228272070011505 13.842102540387865
Mo 10.81454973439378 13.433143685620268 8.572181657036868
Mo 13.162021884338293 12.742465210782143 10.021511631481077
Mo 11.718069588159127 11.982889879464212 11.869169966179765
Mo 14.504780053112826 11.597223790502577 13.771413240678372
Mo 10.252990994890935 11.482080401705298 13.880080083573045
Mo 9.443059277315783 12.822429681534677 10.70623199619848
Mo 7.970150836528995 11.894132581438749 12.95295611534583
Mo 12.51286281480152 13.151213868505156 14.227954706062212
Mo 11.394577925504956 14.481030958187814 10.671059311602969
Mo 13.800699304522428 13.745754972806363 12.469130774309601
Mo 9.961356780936422 13.946317357445198 13.07052809265389
Mo 11.703065577509511 15.27185790995157 12.983184624341813
