36
Energy = -328.52679925 eV
Mo 10.211758833310762 8.803587287442504 8.095673068072335
Mo 9.831393856299062 8.896563502853242 13.927719734602801
Mo 15.128897261317732 12.495782207854136 10.072883683194453
Mo 15.699353745936984 12.798722979352354 12.568384190901181
Mo 7.2800221714984445 12.244453089769879 12.87058213426786
Mo 10.610462594618376 10.797791749625986 7.86276322041728
Mo 10.907731012318878 14.983428589294741 10.855144119701833
Mo 8.164835075894018 8.06836494845462 11.7549447302288
Mo 10.316360672510132 11.461525625693438 14.89012808470579
Mo 11.786521511649541 9.437694579298716 10.086811939874742
Mo 14.452717196800826 10.765537488762817 13.768992400609942
Mo 14.02809642720846 10.808896595221634 11.314087444488731
Mo 7.630815224823241 8.07770505089438 8.928926187173117
Mo 7.978309713490112 11.258063204782975 7.942191788539791
Mo 7.531408523825935 13.415516144830505 8.523329005718267
Mo 14.018129743556626 13.565786674396152 13.684562766007076
Mo 12.193556443041022 9.126676094930673 12.686563633746852
Mo 8.8118456560244 13.244375392361333 10.865636333367007
Mo 13.390090805075225 9.38300461814974 8.00998857279202
Mo 8.919885443210326 10.30797667740226 10.178639754283312
Mo 11.733086979940563 9.608238024184391 15.09087982284643
Mo 12.192069111815785 11.732273567771596 13.328961475846086
Mo 11.275867270507518 11.934585940440169 10.624277960854013
Mo 14.561396851690429 8.535465036950166 12.876338035825167
Mo 12.362260698354813 14.143342313804586 8.973642256772942
Mo 9.93924598830045 7.79294025207232 11.13944525639112
Mo 10.113043105251684 13.213021747988206 8.675556536521393
Mo 6.7877001113395545 11.784009115768088 10.160452583385881
Mo 6.314901402298614 9.125395173442808 9.640207527870764
Mo 14.049622367686862 8.423672723220852 10.571389195538158
Mo 9.583164959983401 10.98771585276267 12.658726381371496
Mo 6.830534528553019 10.392004366389177 12.517082186259705
Mo 10.632927331725803 13.916453469922486 12.606119539727286
Mo 13.2934896578262 13.594902127335612 11.370933026056905
Mo 13.055451394995826 11.778322330797074 8.754768268050677
Mo 15.25560843642518 9.943944943943041 8.857090505905921
