36
Energy = -329.31894308 eV
Mo 7.65423932822993 8.06497409010203 4.447681911930141
Mo 9.56171749691201 7.326320050469487 6.045459754601208
Mo 10.01541379747272 9.970863120785095 4.849469343365742
Mo 8.81379207039195 4.45051674533989 6.28073426712626
Mo 5.421660636765375 6.632357059928737 5.094141806948596
Mo 8.178868404260559 10.506137303636276 4.117671177538297
Mo 12.187379714865171 7.74976264332094 6.308597713312832
Mo 7.789720910140353 9.420545839269744 6.49816792064319
Mo 5.26461175354392 8.427186830156218 5.976123800769158
Mo 11.442536403548683 11.897154016135964 7.162165106026241
Mo 11.82352504877295 5.92404925087216 6.720767438432807
Mo 9.27897113232381 11.778632031305063 6.5603562109331275
Mo 5.23731367245791 6.25286476041476 8.405671244382598
Mo 7.4817828344084765 4.0502904459728395 7.5675475498466485
Mo 7.1676091118519745 6.575941001113255 6.874113998335879
Mo 6.200908584646429 10.927783622237028 7.690888300034194
Mo 12.200896295930235 10.063614976639899 9.486188811746976
Mo 10.555539863777003 9.557197273876731 7.661264645805838
Mo 7.831022649782632 12.72954560309676 10.311853391574529
Mo 10.509233133253137 11.903257392953362 9.268541249445146
Mo 8.125878192565331 10.660435364500632 8.935227521145022
Mo 6.045563249751542 8.554767018126014 8.623769052129203
Mo 8.83184022760092 7.916632513382964 8.624219980812931
Mo 9.683121891070106 5.6194257284124385 8.4492447264508
Mo 11.549487527919263 7.377882214461487 9.059446779117174
Mo 5.717029005528208 10.609025012344125 10.725923751536486
Mo 10.222983653052136 9.3656344623427 10.568219898437578
Mo 7.1731682213146355 6.0213351230728 9.765177621652311
Mo 8.423555966358979 11.4534304600814 11.655215260860794
Mo 7.650423820963585 8.650045849668622 10.949093586161336
Mo 5.413260169134228 7.722386317207763 11.026203464415408
Mo 9.526577881944748 6.51594117918268 10.99846399632599
Mo 11.567555241310117 7.57571636679449 11.486062708853778
Mo 5.895765192291073 9.873330670336346 12.540133126824664
Mo 8.768349852123945 7.683429962383238 12.986023398308973
Mo 7.0617445424546785 6.464635178795473 12.553216962885838
