31
Energy = -280.57685774 eV
Mo 14.618966188188118 13.68861978758093 7.099110122402675
Mo 13.147245726308238 15.653793625680107 15.055305401203812
Mo 16.363003805548423 12.351165044899538 8.907228221078071
Mo 14.400437350306207 12.622239788715419 17.046883637160896
Mo 15.457035186109149 13.218207364748043 13.11057376176439
Mo 12.835569845131019 12.834514631405803 14.68794689384492
Mo 10.908062447509772 12.12451317973921 12.628252699633023
Mo 14.25453067707477 11.833680779595445 9.045955696852277
Mo 12.92807933633841 13.91919258742914 17.252594057900726
Mo 15.267908911698326 14.100417896199653 10.42970896371916
Mo 14.507028993851787 15.832615678425668 9.010076956017906
Mo 13.641645179030771 10.840862761337048 13.010821031922585
Mo 12.68310956913046 15.8232337847104 10.995641132299172
Mo 11.572645138658688 11.905797133852975 9.93290167925753
Mo 16.29786767994143 14.744879435294 7.827173917888955
Mo 15.337196619951559 11.501714593027293 14.661171625130061
Mo 11.71042526788005 10.063877866338403 14.370010770226822
Mo 13.34634535110753 10.193242685952525 15.884461314966346
Mo 9.361635965681101 14.136358166171252 13.403401154958585
Mo 10.03695367148494 11.88772384738335 15.094928570821793
Mo 11.740811683075615 9.423948328029063 11.479672292349733
Mo 10.439762074686808 14.121405358905774 15.442577625368376
Mo 12.865639977101646 14.023079475678994 8.999152196504658
Mo 11.697636050678224 11.654143364327911 16.823846657375523
Mo 11.555419806692415 14.814509836483412 13.062614693734394
Mo 10.48188346033594 13.662736122009877 10.634950609639922
Mo 13.136360310463552 13.10178138575928 11.669153189667266
Mo 14.948964164571905 14.615959708303588 15.217128113428052
Mo 15.530274910622818 11.549390567991887 11.356118480510286
Mo 14.16455843839551 15.585012821565059 12.589241474533416
Mo 13.35036604866037 9.520724767845017 10.61055922371095
