35
Energy = -318.12567994 eV
Mo 11.34564235307904 15.099735981274153 16.889049506223515
Mo 11.645871615426689 9.620291437737492 14.06183150276422
Mo 13.68822847419575 10.387072954941736 12.383629345908645
Mo 11.046680492962448 10.48217730154776 11.750276855653519
Mo 10.975466465941047 11.448626067056995 9.457122492524624
Mo 11.83912705316274 14.7588363340815 11.761131398742885
Mo 12.832622407563468 12.572262706516732 10.93402006816058
Mo 11.753520208455308 13.764725585023237 7.737912837447286
Mo 10.191860310479306 13.358273786654925 15.105824832341767
Mo 9.285512278146014 14.02905540956592 17.504921842423894
Mo 13.916930496171862 16.456345989538814 13.013414597450128
Mo 15.56174189775515 13.391631678576653 15.393273580833949
Mo 14.309518712093016 13.82598425120054 13.262651202123688
Mo 15.724013471709917 13.08937127731074 11.05807621588732
Mo 16.10958116259553 11.62747248696692 13.04578254470221
Mo 11.974210347407796 15.267572866333515 14.302036779064863
Mo 9.844580469347626 10.752186435576709 14.273538079767256
Mo 13.855189515592766 15.510281485158174 15.664668488674206
Mo 10.013638792757376 12.748941382770688 12.048928499873625
Mo 14.17551531766128 11.548804856168005 14.984463223788826
Mo 10.218611746207431 13.675963567311134 9.989081900467575
Mo 14.863436930169094 10.949957954812378 10.141789559349656
Mo 16.389155348510066 15.358781711008733 11.939438504691127
Mo 11.051823786154943 13.05051617342018 18.46979832692799
Mo 12.079687305954668 12.341707175994024 13.703597800371968
Mo 9.440743415394634 11.566127474670433 17.016146908825604
Mo 15.879312081271948 16.04741894259327 14.09892642581929
Mo 11.420494993511172 11.10877474332831 16.416875625005684
Mo 13.288288169279868 11.512314344135742 8.399707076853645
Mo 12.239535204135318 15.28587108643822 8.732463470228348
Mo 14.039489015484946 15.254977448544064 10.800852600331588
Mo 14.331998162333923 13.510122542780271 8.820335969111923
Mo 12.905277917422955 9.422398460981304 10.452620528581045
Mo 12.76562998301461 13.257099612278731 16.331131508815943
Mo 17.22458532232861 13.432387970379434 13.490619785653879
