32
Energy = -291.37204907 eV
Mo 10.150595815971998 14.233600992743726 9.567992006292098
Mo 8.729539061213995 14.584709464226863 11.19833505417359
Mo 8.32781448841392 12.75249249776517 9.115779235843306
Mo 10.033200212237942 12.348006132931381 7.001139185829649
Mo 8.310810621791767 11.612884395982826 6.620399654124228
Mo 11.816270011758034 14.155142679919635 11.879188180082915
Mo 11.913967033572156 11.833278881611077 9.229735911263836
Mo 10.038446291967894 9.059331351252151 6.464088980292622
Mo 9.989842320375466 12.067670813486362 11.19624164946381
Mo 7.349773529544743 12.537086148288997 11.30559169089548
Mo 11.766133910113458 9.82121819502727 6.929212655437814
Mo 12.56317687734348 13.574338263611718 13.485174103387653
Mo 6.930474972557629 10.5201421492142 9.137824030369044
Mo 7.403920155141218 9.158841827637795 7.406623859610875
Mo 12.890501331210292 11.591287487508913 11.631181612636144
Mo 9.633185033743906 13.031209960209114 13.35369373644653
Mo 9.682706368293005 10.32330227032146 8.83274383844373
Mo 8.357190765421349 8.053113476633209 9.11870148734791
Mo 8.405576597088935 9.841499008363172 11.126854826800027
Mo 8.355931176047756 11.026187421390796 13.335632856037149
Mo 11.199171366785631 11.044497644024762 13.522465112660312
Mo 13.216439011125715 10.02922163195939 9.236436149512114
Mo 9.83406879435218 5.845692701604039 8.557722179439299
Mo 14.316666806630822 9.59855744608396 11.476042389371417
Mo 11.22874880000533 7.9665276259434705 8.733612174081824
Mo 11.234098366615164 9.529006399170916 11.109467190312873
Mo 9.79655719153181 7.318235986203369 11.078282368461156
Mo 9.916744158388347 8.988738093337671 13.437177522710904
Mo 12.921613474258473 9.175676499651015 13.29606447179828
Mo 11.176534532687747 5.4857988344862685 9.976837215999435
Mo 12.832270013393298 7.604543872263578 10.714388098735588
Mo 11.494208737294528 7.190285065932192 12.782003176398696
