39
Energy = -358.21000185 eV
Mo 8.797486909002872 10.277211877433555 4.142785013617199
Mo 9.127008528587798 8.049615498684634 5.243637550975293
Mo 7.734699236599704 5.900219711646404 5.45313658223364
Mo 6.927673230246607 9.333534820983294 4.600622793460043
Mo 10.757935894268343 10.219253301277886 6.111899805738261
Mo 9.186339690199548 5.808769521189123 7.0903494268238685
Mo 8.035826273708722 10.514442470787248 6.611233478891008
Mo 11.38903290004933 7.629362118583187 6.665057583737717
Mo 7.07859484321685 7.799750750839441 6.98029100449106
Mo 6.990715961310996 12.019649330030312 8.911496867591255
Mo 9.969208886714355 12.545890133058657 6.315028244315978
Mo 11.860578630031966 9.813779213347566 8.432020297428826
Mo 4.632156416018086 8.42523312035193 6.4636065818545
Mo 6.545005360068644 5.256726663893411 8.031952102293868
Mo 11.498306503595257 12.484445831080977 7.576938942603787
Mo 5.35043447390609 10.050689092324472 7.156386979615838
Mo 9.526568854276613 11.432058453101373 8.859650250969308
Mo 10.779602836915979 3.9331396638428413 8.845599224028565
Mo 9.471070470124703 8.691833385266351 7.8928374307233256
Mo 7.20702125762769 9.502375804753786 9.341405107194587
Mo 13.215206693864653 7.824069466077922 8.314661942708984
Mo 5.532965915069031 7.573978522660932 8.94770836424784
Mo 10.938273734432688 6.529769454403262 8.989592572937783
Mo 8.24010500133938 6.898612830200773 9.486476489181205
Mo 9.058537047912395 4.288848195758389 9.562322612369
Mo 9.026121323822077 13.201711989897612 10.623677796843825
Mo 10.092528420926499 8.971470761959873 10.572466554468033
Mo 5.954022525789086 10.639145649668174 11.251821891554423
Mo 6.31702307369725 5.4477644759486346 10.120515921421003
Mo 11.43107337693443 5.262451107243023 11.404451173608024
Mo 8.311824078633308 11.055284744311466 11.374752817745263
Mo 11.218801531704953 11.279217978125589 10.875053270376444
Mo 6.488177470410141 13.064755729969107 10.784555432177047
Mo 12.308533368177622 7.8634016472030455 10.516659001634741
Mo 7.590840901762444 8.231221103970137 11.64855408827149
Mo 9.984345576627202 6.375305828945978 11.755743764705972
Mo 9.665096838831271 9.885677615935757 12.9560399476239
Mo 10.468957775820062 12.277741188315902 12.616715624360458
Mo 7.11176603924673 9.461058798399351 13.291763316649591
