32
Energy = -291.26687763 eV
Mo 6.214875532271455 9.884806112545892 12.049965227064565
Mo 7.652441893942598 6.768519373108019 8.318430333964614
Mo 7.030354599862497 8.64344574177205 7.562328010778322
Mo 6.810201498980919 7.6733458088575315 10.358025775287334
Mo 6.310922686069142 12.003410778421964 12.0558954187994
Mo 6.506847536610308 10.294826170696398 9.61030460132259
Mo 8.088312041796355 10.681157276253865 13.942280564425868
Mo 10.36957628149703 6.8101821642230025 8.959353543369868
Mo 8.900729011233192 8.854100019776945 9.619727260522787
Mo 9.516666489299668 8.55529772169892 6.823611483368725
Mo 8.998355629494666 6.438274445681652 11.156978290719044
Mo 10.559573262734158 10.47344809470127 12.962272992798647
Mo 7.2895403866054425 12.51865489055148 9.46971981835892
Mo 8.604399255743449 11.062109764634922 11.181429208944524
Mo 8.762829553086824 8.447578469457818 12.254268167702993
Mo 8.525987180248537 12.565232575107078 13.430049815683995
Mo 11.091204014645177 8.105318616731248 11.015093326281074
Mo 11.161501354952328 10.76013450859365 10.468397674502707
Mo 9.681866458295236 13.142889675240383 9.757111440597066
Mo 8.924510783126433 10.9875310037583 8.107415803695673
Mo 11.35293049808385 9.273611958238684 8.31514258997796
Mo 10.91688793230274 10.486937427497057 5.8730604485599525
Mo 12.95917839469165 7.020493369325407 8.40567233573894
Mo 12.949178246127278 9.512064416167341 12.494578833301732
Mo 12.123817898861443 7.388851753384401 6.630642407828038
Mo 11.040347684786997 12.979610596150984 12.140594561708605
Mo 13.485171747628526 9.348234665829777 9.858999698902315
Mo 12.078806010479 13.454758419045678 10.399150734106353
Mo 11.13449831848148 11.989567216485504 7.9648882165442325
Mo 12.973134889690712 9.928512902125798 6.5884082299036955
Mo 13.344003799391938 11.420499680402889 11.990717246995164
Mo 13.433601447049973 11.35173730554149 9.02681478238011
