36
Energy = -330.12755887 eV
Mo 10.329469142603942 11.08558185930875 5.705617394069018
Mo 12.367564936838443 11.169584418331809 7.040924187368207
Mo 11.440484154150184 9.012102926292108 5.67682104694495
Mo 9.083535811917764 9.147624289561634 6.95947254610441
Mo 7.200283048708447 7.452147830640679 7.503627880787309
Mo 8.187327654064129 11.876086245619009 7.400671026263528
Mo 10.022343985520674 13.227850746144572 7.017923094565547
Mo 10.080494029486136 6.745519686279344 7.055445084677147
Mo 13.14133133757208 10.686790564773538 9.395080335997973
Mo 10.281931440013567 10.749804813445799 8.66804632370823
Mo 7.36067216373554 9.753823218480317 8.904681626489511
Mo 12.180709335009272 13.058872117096104 8.687886295966516
Mo 7.931758093902874 11.90843066414494 9.924729777751676
Mo 8.623670829620407 5.5424175243884966 8.063184878519639
Mo 11.803209165789955 8.66654534922108 7.9412305525256555
Mo 9.898171597438058 13.477551847697178 9.36342581767509
Mo 9.367607819248208 8.019811153878573 9.441602011418992
Mo 7.065135560556347 7.101548045908693 9.834899306808781
Mo 11.290220760093945 11.605436602538056 10.999087393938312
Mo 11.170315003944937 6.103405805902617 9.64329458139844
Mo 9.496839446592945 5.490492766642098 10.627583934516544
Mo 13.805224258135052 13.277635385615705 10.82711897670877
Mo 11.819937581397088 8.797877274734033 10.531049144502358
Mo 7.97407980215216 7.6767729756761796 12.170710491451667
Mo 9.146006214307045 10.019799067590347 11.283047099856956
Mo 6.430222163201499 9.45615151236074 11.145169284316674
Mo 13.701667991825193 10.627675452503933 12.052164371477144
Mo 10.473467433519579 7.4651134780347155 12.095278068859738
Mo 9.264326074082522 13.102434014886615 12.087494056774865
Mo 12.15824522864076 14.141462188830483 11.290789802004655
Mo 12.727538546100746 11.85649089239039 13.22501203249767
Mo 11.33042924309537 9.500776746427494 13.0255430252725
Mo 6.4280422892079745 9.367847751782948 13.70002559721105
Mo 8.902704432735339 9.272024982426304 13.836326539658327
Mo 9.835341940134791 11.848567640950378 13.50045020598151
Mo 7.166591362162489 11.194842036998649 12.861486083435288
