31
Energy = -279.36741444 eV
Mo 15.260577545627308 11.114904261647464 14.946845153803375
Mo 15.120362976062983 13.046705890089061 14.811144512791454
Mo 13.531310895394263 13.845910793963476 12.341888190836753
Mo 14.464626167833751 11.479087074138262 12.55080414227859
Mo 15.292490674047201 15.076297020875694 10.563627311753512
Mo 14.592553846927574 8.567444716304315 13.023969492210721
Mo 13.928689267774228 12.769320334061364 10.325316850892246
Mo 13.063106033802509 9.917804395605785 10.989133438263883
Mo 12.678031285465375 12.393970594047403 14.664918364994282
Mo 13.617592290173777 15.55308804250174 9.963240291903183
Mo 13.035930516928019 7.6890383919721055 12.332811581854894
Mo 12.61951805460873 10.93257626922459 8.68026135889374
Mo 12.758666408512081 10.069891111786754 13.988069404485916
Mo 11.675733345555765 12.017496951609424 12.05311326216588
Mo 11.017018106245706 9.478876377357285 7.812473739433915
Mo 9.88559951721092 11.359270356163583 14.050653701583359
Mo 11.587741431420032 8.422228884577205 9.579944721858528
Mo 10.723776746874929 13.510805700990153 13.78456654180636
Mo 10.788728148226054 9.526634493643883 12.54679350458263
Mo 10.37613281793904 10.877701478030854 10.071832146348529
Mo 11.528301407739093 13.55024489884875 9.899211144569826
Mo 9.192114430443162 13.00522851652115 11.6370642926315
Mo 8.456048648110505 10.78922025753841 11.802191509495039
Mo 10.798081741735297 12.644973798720402 7.915572125329733
Mo 10.054245874621431 7.080844955753256 11.79451832713691
Mo 9.130624422561537 8.182849227109841 10.562641065764911
Mo 8.808824821650415 12.74670266443813 9.139289694347822
Mo 7.99046418972906 10.178046307154716 8.887028977678632
Mo 6.500124810169389 12.889778146959403 10.911745516500005
Mo 6.053179182831533 12.43186660615509 9.197640967260666
Mo 6.5521021851660635 9.933489273599285 10.253986457929638
