30
Energy = -273.32787898 eV
Mo 13.23916981668667 9.550881303855999 11.685012649336485
Mo 13.763232410546825 8.25816270271073 8.992545658179665
Mo 12.630317368398002 11.949859260390994 11.548633876252726
Mo 12.762025492047254 10.840273175801377 9.278676835216409
Mo 12.199551365857694 13.662549091100223 9.281305292633553
Mo 12.926803992196332 6.8249834187350125 11.411604031753965
Mo 11.095033055874834 10.22071751529902 12.574145665859188
Mo 10.882747774660617 14.310733996899712 11.831130108418481
Mo 11.6841197906119 7.409886712879693 12.727232387448721
Mo 12.486897142471594 6.964320355008395 8.516653830899665
Mo 11.644595206688503 9.437307706471556 7.411153100089307
Mo 11.038106886743343 11.909536660900244 7.667318250688859
Mo 11.170360652184703 8.883673268625648 10.187494698863508
Mo 10.187415010818212 13.00760454270059 12.907382448366162
Mo 10.41211057138949 11.531399467140602 10.352945294313754
Mo 8.384825214012004 13.122469275678803 10.480594528253706
Mo 10.354426282922294 14.260360991585873 9.059042955877253
Mo 9.71091043710861 7.7309245867647505 8.216763121236383
Mo 9.301285949783031 9.787528538825166 6.979207656846497
Mo 9.224346580525813 8.311112357982402 11.942518351898999
Mo 10.201499579841274 6.3942111283203005 10.441010725982407
Mo 8.667482346489535 11.929981974331909 8.303875313110264
Mo 8.38493859273029 10.989904446348895 12.021976738785556
Mo 8.522887979903455 9.590824679531195 9.716201747973926
Mo 6.988880578734636 8.281861859274315 7.691836235083944
Mo 8.039147571946922 6.964997626721477 10.205105503015664
Mo 6.564526309114956 8.943083732500169 11.843004459114272
Mo 6.581647266065345 10.140747609666626 7.682383492159003
Mo 6.663191959235181 11.3907319798385 10.354827690413247
Mo 5.691707492756263 8.841357454369259 10.14506763103875
