33
Energy = -299.68876082 eV
Mo 14.174047060182641 8.979012387015757 9.044083996640232
Mo 14.9179545140759 11.808532738869818 9.033084856423207
Mo 16.26272174572526 10.797345196179815 10.845896241460249
Mo 12.496034776902292 10.99123114278779 9.930236231838373
Mo 12.591858901209097 8.204247183933012 9.614085804409841
Mo 14.003202903682416 9.567898570663967 11.697834205980874
Mo 14.694369553308372 14.048153427695212 9.424896680360026
Mo 12.456458297563053 13.244121494781684 9.036840824655094
Mo 16.630531948426952 12.857626497381135 11.02835378433729
Mo 14.038183123879827 12.475085598403428 11.556169766000627
Mo 15.89208595125363 11.281895286306362 13.43165729763805
Mo 9.938378593742247 9.642186588236521 10.634269518023938
Mo 9.91306690901134 11.266596731744317 9.557111534932005
Mo 11.846270223833393 8.569821467992377 12.443141427483166
Mo 14.576582796245233 15.277596743307125 11.699289929950764
Mo 12.691138487690253 15.601458549134376 10.861472643879244
Mo 15.660200668453804 13.380349192049819 13.61535595766035
Mo 11.15989334994697 13.46855480827124 11.191236994107198
Mo 8.658380192919227 13.85249257857489 10.79953316313915
Mo 13.535507231245228 10.131286102785293 14.037425192709286
Mo 11.671174406828888 11.251137135955156 12.55682057942894
Mo 11.762684546849917 8.49691037106246 14.846648091554153
Mo 12.821218853976564 14.279626034880554 13.232882317207087
Mo 9.83201897954701 9.641579915170384 13.643858374591394
Mo 13.58961034277231 12.585339508878153 14.655569929851735
Mo 9.069527458680843 11.739410278828572 12.192983921387516
Mo 11.219862145247193 10.933957483863574 15.176217088480518
Mo 10.21936936447786 15.284214728775268 12.62212747775119
Mo 7.947189516544048 15.392741138120524 12.177395183944176
Mo 10.584897093562802 13.20098901736171 14.067578006342544
Mo 8.65643844456908 11.763114314810167 14.736370325701882
Mo 7.055504988109361 13.131378072728909 13.223509227653619
Mo 8.173087458443216 14.284461413464246 14.61525032980556
