32
Energy = -291.55015644 eV
Mo 14.632273876774944 9.768858248315183 10.79348686290963
Mo 12.871307318042856 8.063498707972972 9.252106047979712
Mo 12.507981418506388 8.088267515319787 11.821358571223199
Mo 14.55873936668032 10.303229118066437 8.933136639169964
Mo 13.28871152970546 12.309462432597265 10.19881836670413
Mo 10.565407426613023 6.953158980582195 12.072258652204063
Mo 11.819020497376627 8.988686685526492 14.012880166893876
Mo 12.720654258860701 10.938651153545017 12.729335647288984
Mo 10.778291707532103 8.391020926347478 7.114973472198779
Mo 11.951438245300274 10.260733874203655 10.07454447291151
Mo 10.361070930061066 8.126229200142037 9.885022733221069
Mo 11.153846529490925 11.819513311565567 13.820967131202803
Mo 12.240973799528584 9.622200407148007 7.073287775314678
Mo 10.221291679336305 9.68574469631872 12.270988076545846
Mo 12.420022652598034 12.302934301288017 7.961583984219532
Mo 8.878156221633569 8.053125405424947 13.985074113268446
Mo 10.661641743384363 12.330650609237171 11.140560590328365
Mo 10.209052324350065 11.518294894746631 5.772435462264043
Mo 10.922548980387985 13.617303563882345 8.874305258125803
Mo 9.197657145979615 9.906149683498333 14.709020606508238
Mo 10.08560485670167 10.928166814431705 8.385249746431551
Mo 7.9128825996526935 7.686010767023653 10.964190806399086
Mo 8.631311314781117 10.415650465104127 10.458409677002857
Mo 8.28562262596962 8.753059503773223 8.281768268719079
Mo 8.42108157158503 12.086367623641122 12.76416784709661
Mo 8.749993700263756 10.321019359304719 6.002264047652453
Mo 8.52414346138436 13.11731980659012 10.060142982054028
Mo 8.770302150472567 12.929389422048802 7.490419090794035
Mo 7.390945729221141 9.57462093306281 12.520379023956409
Mo 6.436645262371272 8.77990712982191 9.867312027835009
Mo 7.341822964567859 11.25607364371227 8.438651191926391
Mo 6.765621685153267 12.109747961447898 11.517733233739152
