31
Energy = -282.40996046 eV
Mo 12.988050331173836 9.236355181868392 14.541521819699325
Mo 10.772983056971018 10.362208263299665 14.84489405676788
Mo 12.437636763775757 11.758391851534777 14.274247467609829
Mo 11.744536436641374 8.123300858232687 13.007384292164728
Mo 13.543314627776097 10.134668062005968 12.264958927619373
Mo 13.084287873975837 12.420170235840684 11.464211483794335
Mo 9.386098234932478 9.04780321600427 12.836956160883016
Mo 9.719703884303403 12.709532680251225 14.016377296093504
Mo 11.01999995940087 10.963831186875433 12.199233913538075
Mo 9.689503533253962 7.330285874328515 10.794970382508309
Mo 11.196609320953955 13.734995997332264 12.961351241828176
Mo 12.082176709940061 8.873908740622307 10.532954379210198
Mo 7.128194117149772 8.617769709873153 11.574152963282627
Mo 8.062762329548319 11.131281478448297 12.407490019614798
Mo 14.588126599881575 10.64029868141117 9.904195828970927
Mo 14.111550227507763 12.541381533273428 9.191381419068394
Mo 11.52317271183994 13.922068069880288 9.300278645161121
Mo 11.737444019977971 11.096620679073002 9.352179803862679
Mo 13.152743136575134 9.002799115322112 7.983982477499931
Mo 9.245958633168108 9.986186565514767 10.200456976745949
Mo 6.750315440454043 9.662205877113543 9.128696976528873
Mo 10.573741286934514 8.564284115773797 8.35895997462015
Mo 9.730641189295755 12.746801327913458 11.105370176730263
Mo 5.939932489815341 10.518446464502311 11.567489873504117
Mo 13.451609288445626 10.836694733383654 7.143593145069099
Mo 8.353738606408674 7.427118264197876 9.27487251119488
Mo 11.692047866329391 13.32649514493187 7.5051956389717045
Mo 10.951602198062886 10.573940893508912 6.9894679352067834
Mo 9.39331217320401 12.190175818737247 8.43342512178552
Mo 7.3513405326726735 11.836373928820393 9.79656466088204
Mo 8.427911797406722 10.059030344486676 7.572916085852346
