35
Energy = -317.09053879 eV
Mo 16.34187013399948 13.06047187210236 15.001386087451419
Mo 13.763932495152513 14.547618882444459 14.412568457189366
Mo 11.321704369519496 14.14946515172175 13.82875033511669
Mo 15.176743572570313 16.75986811589173 13.30286165555168
Mo 8.797282748673178 10.598407172311308 12.801335208175292
Mo 10.913280019632136 15.068834892732696 11.382727509003603
Mo 10.59396166892949 10.536659238566848 8.174023501411286
Mo 16.239631416255655 15.085768280614666 15.469081421530419
Mo 14.759549538028024 10.96379828287132 10.377032033628485
Mo 12.98937582879718 14.160036343472932 9.34231625105575
Mo 11.621264517030209 15.657597563665027 16.065509009017024
Mo 9.800571280430736 13.220788832792474 11.857189076457896
Mo 11.847867399307653 12.821348231255818 15.914280738936014
Mo 9.258198188640712 9.324252778889779 8.957388345998352
Mo 12.314457965719676 16.600345285710727 13.388801879758933
Mo 11.001539782167786 10.746050205204012 10.980777014506483
Mo 12.926224854744591 11.69037936861174 9.179140210539774
Mo 11.970227624416033 14.349499925432067 17.70522421469206
Mo 13.45314721755237 15.385754848427725 11.642990969359497
Mo 10.470425014348363 12.860212065263427 9.538701073813892
Mo 14.36642906374725 13.164586057169824 16.60060459610789
Mo 15.715117945309967 11.711998745074826 12.513903905639761
Mo 13.81432291568545 11.848531359059496 14.136486282926528
Mo 14.994405216547934 13.49736943078521 10.082582774501597
Mo 12.937813938909294 12.74126381583975 11.776550550464806
Mo 14.084992024008217 17.32932044094888 14.911114024853793
Mo 13.394519667086712 10.038137933947976 12.397129282057307
Mo 10.669479888815653 7.847155828930604 10.878057551508114
Mo 15.555290893832023 14.116242913085237 12.67063233535519
Mo 12.772802801598566 9.05416943437627 10.340617454232792
Mo 14.171526371177384 15.463233079857954 16.958408043383056
Mo 11.30684047304662 11.540814482869921 13.576527119179383
Mo 11.132311922818532 8.605103856331526 12.70836552299163
Mo 8.337829138521407 9.155777956683313 11.654381377181114
Mo 8.563392746601656 11.378044673888859 10.04074703181013
