35
Energy = -319.81273812 eV
Mo 14.418657069507786 11.196359397146502 11.55571921158084
Mo 12.376106480963612 13.223500052975547 12.272486590843487
Mo 12.839199751915551 10.82867022864232 14.092927801277279
Mo 14.315673496343939 9.35549128073921 11.961730884794038
Mo 12.484743168303982 12.120820982921947 9.718138353369064
Mo 12.848951748398601 9.55200012218651 9.689401969239539
Mo 11.521197771476595 14.619321324183474 9.642455813699003
Mo 11.959414828869836 12.728968418546854 7.550278444832274
Mo 10.961579250469141 13.007675060453712 13.466826872713472
Mo 11.538569633904675 10.436047198830764 11.702192355093855
Mo 12.38904109837094 8.976495883684988 14.051521609873282
Mo 12.236042337801226 10.078224972100987 6.744747361913387
Mo 12.44281125741556 7.195132426053987 11.610212166081466
Mo 10.006224740170136 12.558647961382313 10.84567969727481
Mo 10.866226333386857 15.008559339990232 7.797766589325006
Mo 9.89573313699274 10.50210637349237 14.49419016220564
Mo 9.287519434677154 13.22690558841612 8.585949781216737
Mo 9.68114703053791 11.885457975935056 6.108685653789921
Mo 10.463074958417202 8.321738675379878 10.011112122858787
Mo 10.40048678901637 10.850686574201337 8.654006663213307
Mo 12.598791451530914 6.747309874540374 9.804165479035683
Mo 10.050230717966016 8.495292137508006 12.474264262700503
Mo 11.488174556260983 8.473857188290403 7.456391895037063
Mo 8.759990831000708 11.03495754705052 13.152956044057483
Mo 9.334257196481028 9.997752279417448 6.195602693803109
Mo 7.298182340282708 12.252980866683039 10.256908565370395
Mo 8.497074471970723 10.07446199445091 10.59386385274611
Mo 7.628139229585585 11.381892007257374 8.032249689751797
Mo 9.297655842109828 6.197427688899903 11.434439031247022
Mo 9.210753040946043 6.193316836072697 9.496570666301029
Mo 7.373330893676025 8.245193852891376 12.344241603160453
Mo 8.352254039951902 8.769557482371168 8.546255305428767
Mo 5.889038254243416 10.424853483567064 11.27350350753909
Mo 5.909195070011575 9.913777440622368 9.270428190992464
Mo 6.865184822355856 7.6105661681873285 10.541174712701107
