30
Energy = -271.85490871 eV
Mo 6.099894758865947 7.835571860261791 9.063631687918157
Mo 7.0838737489598484 7.588146052288472 11.774305073972217
Mo 5.997506056348169 9.527144240479693 9.955175689559193
Mo 8.909255055020163 10.146907877675567 12.273229293259691
Mo 8.057519378554336 6.247457862515826 10.707682426861625
Mo 10.074055822510605 11.866269169889259 13.333858544863572
Mo 8.34655983259667 13.299346634934906 11.422622902106255
Mo 11.224809944627935 9.23034445687997 10.824319547986626
Mo 7.365268811337533 9.688509094975146 7.438309658478695
Mo 11.284843959446096 9.841047332245997 13.406618581213886
Mo 8.850186465065326 7.558488671020044 7.968793783934889
Mo 9.801082981744093 7.473368076103029 12.502897278915553
Mo 8.661659121239024 8.852839054941565 9.981811414232709
Mo 11.225361767568657 14.051053986112075 11.893850488123777
Mo 8.152519696084454 11.477488090353615 9.328268374603244
Mo 9.049122018273907 13.984689183503212 9.778101647259005
Mo 9.077783260501219 9.17262793120161 6.061579571541793
Mo 11.886879163115688 7.343243024024887 12.38176344630675
Mo 10.425490136056919 11.664626705685475 10.561838661724286
Mo 12.612845540037958 11.341530868520765 11.996783400311584
Mo 10.640656789087917 6.820512207312791 9.970352893841152
Mo 13.685738460560172 9.485437281471059 11.128213704585072
Mo 12.159712001116093 13.870109585591122 10.323787261299872
Mo 8.726593198598016 11.792405883920303 6.98839491135409
Mo 12.5040247147683 10.56492879741444 7.11093714085667
Mo 10.365513383892656 9.851732189086816 8.217641065215105
Mo 11.413276611034457 7.40672025809456 7.455583412562421
Mo 12.6936612278839 8.297924218437252 8.7418531593211
Mo 12.832095255603875 11.145118096443834 9.228080523980019
Mo 10.766228108951008 12.391410520149678 8.034697644009936
