34
Energy = -310.2868519 eV
Mo 12.774015987020684 9.006155442912364 13.78253347935393
Mo 12.597310867686257 11.872742147663816 9.454084646830438
Mo 16.719289253402025 8.89595092716597 13.260206711673321
Mo 13.036207210026095 12.958208449812359 11.736068404313706
Mo 14.324744065721575 9.582811982259917 10.218706416062476
Mo 10.444514741917306 12.492024889235916 15.767046991727348
Mo 11.485563988337073 17.49162388238896 13.280728628809461
Mo 13.26318460188723 15.53215801738294 13.458458239319203
Mo 12.39034731636584 9.997291779904034 11.243151673193124
Mo 8.193313267350435 13.518348240164656 10.649669360687895
Mo 16.618065313038095 10.189442611866754 11.339224495077426
Mo 15.394992737431428 13.563649135086594 13.524240757257486
Mo 12.695678095513857 10.752560104374489 15.91509662802735
Mo 17.079619311073515 11.109890055323476 14.011409118929903
Mo 16.880669113017404 12.61374552038032 12.150553857312344
Mo 7.935549996432959 14.473906095196648 12.41875062846852
Mo 14.963966933460798 11.57551372948898 15.533093571450346
Mo 11.58053611716324 11.265084135371623 13.507255817517727
Mo 10.763901941770966 14.07305502003366 12.965077474990023
Mo 14.5286944632148 8.267809244462255 12.146490036781243
Mo 13.790938920666203 13.968570756214222 9.101181457810121
Mo 14.906560101093834 14.606747123214367 11.248281434883609
Mo 10.947075612063866 13.82083748269283 10.086701789575642
Mo 11.451541738672033 15.167313388575954 15.085101123174189
Mo 15.101074811545226 12.261883996413724 10.091375533583399
Mo 14.557374055254707 10.968178884404882 12.826895212509696
Mo 9.892410487874411 15.788962407873653 11.458380361694873
Mo 12.542483913071612 15.696667851384099 11.328745635691384
Mo 14.786188487066497 9.284831346444905 14.937065431782045
Mo 12.96604080724216 12.92750181373712 14.586203318472299
Mo 9.035330531852406 12.312646903314386 13.192032682898308
Mo 9.765184681352475 16.66624464219632 13.873285228969303
Mo 10.214372569377765 11.88906560447638 11.079551510731585
Mo 9.13854212029804 13.859387600520602 15.364861266287216
