39
Energy = -356.35082177 eV
Mo 11.655312193937506 9.002816528370506 15.125130526547737
Mo 9.44585801716257 9.35350719529634 13.201839474515939
Mo 7.855912094618803 9.610917538238306 11.154037199241552
Mo 11.068127641015712 10.570074784662674 17.27333223055076
Mo 9.866192681958124 10.874851181834165 15.63724271987459
Mo 11.936543575409418 8.069069897681484 12.949350895433696
Mo 8.428028979204436 11.433767217226809 13.405777358963654
Mo 10.943010172735448 9.058200289644713 10.961052570633532
Mo 13.89465395235722 9.695514445413343 13.975126233956292
Mo 13.293913200363724 8.385903081356314 10.343404050743942
Mo 14.423534324877606 7.9989620646029085 12.400095365993318
Mo 7.227831219385429 10.50695254595793 8.93394405157966
Mo 12.669861191526389 11.688383688766283 15.510550209394813
Mo 11.531035051716644 10.920390463343287 13.164284309166442
Mo 9.821182538259206 11.600956820408253 11.164818013214548
Mo 9.475250233789101 10.023139045284982 8.908138328066759
Mo 7.074356865993706 11.7346219311478 11.330184319738112
Mo 11.40928418631491 13.163682635051492 16.468668987255118
Mo 10.53633683315121 13.12497892433403 14.127701025335952
Mo 12.043544583783248 9.485006717829135 8.104118220968259
Mo 11.183420452438444 10.687818556916348 6.525942812570098
Mo 12.566131094193771 11.067396926028906 10.259420504386712
Mo 15.104718960305282 10.200800904396852 11.330704588086075
Mo 13.88157798687113 10.276369105458679 6.403860793105505
Mo 8.93218131236892 13.978798966790656 11.843449511252452
Mo 8.476853030247646 12.60262590666339 9.137714007417955
Mo 13.991028728944459 11.87008856358747 12.71588511885501
Mo 10.944000011027786 12.15332808526685 8.539139550376944
Mo 13.020452801785101 13.981066889806687 14.059584401685255
Mo 11.929180001198036 13.34720651968049 11.579800192119928
Mo 13.55763006318222 11.935685347394067 7.586453953985204
Mo 14.758557517238376 10.039554982036288 8.95233821433329
Mo 10.909404015778538 15.35299072171252 12.90207606187651
Mo 10.086536864500308 14.472463732199618 10.071144289363875
Mo 14.593722733545633 12.703248939038005 10.187080679625426
Mo 12.939294686597117 13.997696816645112 9.214090226339582
Mo 14.320046014569387 14.805997873985428 11.716630668632405
Mo 13.203276516764234 16.169555471102942 13.410333945965593
Mo 12.55285822645895 15.905516231831761 10.790387809524228
