31
Energy = -281.0664385 eV
Mo 14.495425797360056 16.303136433887925 16.52987527017204
Mo 14.949567063993191 13.999727580061853 13.491123144288077
Mo 12.80779071831146 13.465014566702065 11.846788238395357
Mo 14.999015095452856 16.33346116634974 14.322915485076983
Mo 10.126965429190447 11.372692690527108 10.408071946835936
Mo 8.302861760017795 11.539597603481852 13.96627011409925
Mo 10.446847618850926 9.592787846810005 14.725505971795371
Mo 14.703723685061826 15.515640685326789 11.17290387524645
Mo 12.909852117287672 15.7995161395729 13.077840561657942
Mo 12.124866410515697 12.653258439935682 9.235773653270698
Mo 12.46443739503781 15.852374587512694 15.531343055915519
Mo 9.394278381324428 9.850359274404807 12.19374248898097
Mo 10.91604408125469 11.813251073754897 12.997647942811323
Mo 14.32049475368096 13.569473877229116 9.435167789786039
Mo 14.604210194841325 14.036590048211544 15.952651932201928
Mo 14.354976880445106 10.755018617461788 9.173662147138069
Mo 13.781073550184605 11.393602425182067 13.624064605466398
Mo 12.674366852924226 10.945192887973008 11.15760803419515
Mo 15.120210564645534 12.340894046430167 11.437618920080121
Mo 14.94267632548945 9.417389085063638 11.811822516829805
Mo 12.137773600601028 9.31537324517783 12.974758809518397
Mo 10.395207443136458 14.647200405637761 13.294949172212322
Mo 10.937960856573842 9.024391969457838 10.560666134296804
Mo 8.48644273437579 12.753489032324175 12.3594772564123
Mo 12.49288771056506 10.108655078651418 8.547663280167459
Mo 13.752249065933821 8.373924763529331 10.787309278142267
Mo 12.540631953234891 13.544906643125545 14.735020860123896
Mo 9.896554708068031 13.250066754572595 14.973856399915906
Mo 11.899104458192557 10.923308544624748 15.376253991523571
Mo 10.616679085823892 14.07321927010465 10.888376500207157
Mo 12.836203078241029 15.577641872278152 10.160173380851456
