34
Energy = -309.50562053 eV
Mo 14.425994605578794 11.557823594593366 12.533711222712258
Mo 13.736173566383044 12.659189104271253 9.958418277427397
Mo 13.825147740546461 8.81468365301438 12.469396949678961
Mo 12.653831268868883 10.391505099006816 13.818138377874268
Mo 13.38483956388392 14.111497764611194 7.53836682495425
Mo 12.550219659433935 6.710626721224598 12.499355280184
Mo 13.160481394603092 10.23642158467659 10.408472104581017
Mo 12.859466013790266 11.502102598615854 7.8562534291989845
Mo 12.828407254347985 7.721841933694335 9.79900594132971
Mo 11.72853106042172 7.6638518062018735 14.015722015837525
Mo 13.125194507680291 8.758686122947834 8.160891130922591
Mo 12.570946786965003 12.680930112290188 12.282730452963186
Mo 12.331059974849419 14.516123881402557 10.166324292332137
Mo 10.926765240193152 12.403591582215695 15.031913361785191
Mo 11.099389706332634 9.296385214183955 11.851313577296622
Mo 10.982448371980903 11.900769896661561 9.859551784305635
Mo 10.096898792703449 6.851368774914078 11.126496212933578
Mo 10.877289684598567 12.773804354086309 7.223753986630711
Mo 10.62466191870848 10.353297208558601 7.43734409782407
Mo 10.53813079075013 8.835240127039986 9.253726772360443
Mo 10.123487979503563 11.655403966634566 12.601589379655742
Mo 8.462344575208911 7.546151879648606 10.069625218622072
Mo 8.715553224341674 8.369817575747101 12.674474898274337
Mo 10.000446559064653 9.750227977972095 14.34358329702645
Mo 11.720408143133168 15.138820460623473 7.621808774359965
Mo 10.34565438018592 14.226266943554883 11.635752819791186
Mo 8.131180682186654 13.422053894558847 12.94338570002616
Mo 8.04331295323761 9.790662742703699 8.165811932902415
Mo 9.79359299879555 14.058189730014545 9.366701106513085
Mo 9.067934929731118 12.094339649376076 15.287096817528072
Mo 8.385740501060395 11.692495914582429 8.372900942509617
Mo 7.973572580955097 12.768660005217601 11.007902817197355
Mo 8.723628036913617 10.188276704428826 10.757080488492832
Mo 7.839538893933341 10.664481487451434 13.107451041524644
