30
Energy = -272.03408741 eV
Mo 7.019960796333044 8.766083793784718 9.096645456272825
Mo 8.451486121491223 7.628196895401832 6.846233094050045
Mo 8.549714569344541 9.495675534471333 6.841093836167421
Mo 7.604502706761735 6.2752236108604516 9.571068831311791
Mo 7.9567773152375425 8.271561469718462 11.642736326156177
Mo 7.888618682708291 11.016474361992781 9.224546161296633
Mo 10.71550598517162 13.984869420908156 8.754843784295836
Mo 9.029480042284165 12.857521338946428 10.910807766299879
Mo 9.43125033026895 8.42439833887467 9.373767688412137
Mo 11.246806713504048 8.86698720057911 7.627535414005956
Mo 10.500273913632565 6.179892544520611 8.28947091416651
Mo 10.489314563440974 11.232536863048272 8.468267805825638
Mo 7.012433268792416 11.044468349497238 11.164586818609697
Mo 9.066815323100542 5.788644243199822 10.73376091573596
Mo 10.506815032144353 14.957261172225778 11.633685953773494
Mo 8.622994004592051 10.574425765672029 13.244274453740951
Mo 12.366701945871968 14.583117468052638 9.454758401317298
Mo 11.7352708226305 6.791974828373829 9.632013738733136
Mo 9.841091357014207 10.39806199804641 11.235128561229269
Mo 11.684098164743535 12.337191029587247 10.87879891584093
Mo 12.691236419199697 11.793771942433938 8.584208504553374
Mo 12.136688894758132 9.50117400395418 9.647297719879878
Mo 10.158176541019817 7.900765166600338 11.94807336793597
Mo 10.0788440091317 12.614706079191077 13.093145326839684
Mo 12.208339476318704 14.56066650830162 12.496302518812652
Mo 12.326561306382635 9.659672303723411 12.332019790933103
Mo 10.924898699134216 9.828397643662548 13.906708515430722
Mo 14.388591304096694 13.075127788458703 10.959473482432498
Mo 14.331996949624385 11.225279605303967 10.939315329034384
Mo 12.62754661064139 12.000898635229756 13.117449209645269
