34
Energy = -308.79181291 eV
Mo 14.458786675403145 12.135919229356878 18.655065255349406
Mo 11.973732459630202 11.635753796464765 10.385138661216258
Mo 12.899349498803687 13.740597386325891 9.371787385135681
Mo 13.810063449868654 10.090880844770556 12.401043875862698
Mo 8.481931085147513 14.505600661728181 10.524026876320885
Mo 10.802644993608695 16.495483924118393 12.985221296817688
Mo 10.331641661919416 16.688936402410576 10.598911611757217
Mo 12.18457421102771 10.036439221162722 14.460527205708722
Mo 10.76453276997296 14.974614100730003 8.427529346268095
Mo 16.942354393037704 12.542940782803791 13.967084024345455
Mo 11.105973756214155 10.255754836602927 12.407832304789352
Mo 14.409770789126423 11.762192525503941 14.666093945996986
Mo 15.225535399436582 14.137497807841724 13.760753418027225
Mo 15.347417147356964 13.705327838226706 16.444101651060247
Mo 12.740770434966619 12.637880391717657 12.877913749269638
Mo 13.262539832310157 14.301058523805695 15.63519062001167
Mo 14.426445923890727 11.842206513624378 10.74573224581721
Mo 9.514906236181979 12.189399323421137 11.099377515048786
Mo 8.669692749701634 14.520041104492893 12.466001840761487
Mo 15.79863299130529 11.235089830984824 16.55220964007095
Mo 14.21905120290742 14.303455971313557 11.414505170927526
Mo 12.943375144760196 15.66109960958923 13.136709931201258
Mo 10.095551157362719 12.104687276058915 13.444807822963305
Mo 16.562243207670384 12.736173551122738 11.675067418596134
Mo 11.024150509503139 14.426381740780734 14.26620295044472
Mo 16.086610379953196 10.497402745995192 12.735297216546916
Mo 16.935786697332123 9.44583708644995 14.993823039862196
Mo 10.27493169624355 13.1441686618576 8.629136182506457
Mo 11.853041550190387 12.212278146296219 15.689916985574131
Mo 12.952016342818407 13.160127007854973 18.01494822761323
Mo 11.19767121849753 14.086290233408082 11.343125943017267
Mo 13.359251885118793 10.561838912253874 16.82246404929779
Mo 15.043375991955704 8.974903748808787 14.912356144162672
Mo 12.336432474525578 16.46349242227816 10.48322437168849
