33
Energy = -300.01727392 eV
Mo 16.67690630232483 11.84890665183076 11.995158975390014
Mo 15.599946756940973 9.999235907437175 14.379946351734974
Mo 15.781018026013701 12.147465567388549 10.116381183726189
Mo 14.874704890540512 10.009193562728631 11.941545115372941
Mo 15.39826041198527 13.965719638798314 12.311439519591582
Mo 15.966265846540937 13.084038507188021 14.807405996669637
Mo 13.781647618429549 13.671485353691043 10.611385449497064
Mo 13.821031242459885 11.463522400531057 15.494929637699325
Mo 13.15278113335421 11.109072300632706 10.280338217506676
Mo 11.881734316710132 13.0022627883668 9.2015921966185
Mo 13.987842963257503 12.012986292899647 13.044971948222814
Mo 13.92190318329357 8.79414535027222 14.441105890504174
Mo 11.636516652805522 10.371688809396355 8.04164410441871
Mo 14.42383461810729 14.23414272167383 15.019818921104097
Mo 12.486324634683488 9.570238034664735 12.22825706748721
Mo 12.667252325527333 14.729599370179178 12.776096234427635
Mo 11.395144544231325 12.423362385097303 12.070189225252154
Mo 11.915328510507518 10.570460261152549 14.486885746481507
Mo 10.35330279037919 10.538602330093633 10.337857900110553
Mo 11.73293124162355 13.176759550000563 14.805044505678737
Mo 11.593215247425572 15.5380480357715 14.811687592364658
Mo 10.224659697674456 11.743569539088496 7.611787436621931
Mo 8.915371765190288 9.2399924442433 8.355828578121399
Mo 10.038444863672131 10.0013005434577 12.95368288996509
Mo 8.208381780121412 9.243371684591912 11.253019666889614
Mo 11.082052663023932 14.798212263321638 10.882453768991338
Mo 10.13675903341629 16.03277398188023 12.808667064916136
Mo 9.475121475339973 12.208086399683847 13.950139511324153
Mo 9.268133588166227 14.639735711067548 14.489497096732714
Mo 9.349528892891003 12.706297122705848 9.98345063014266
Mo 7.82886255375309 11.166685247193957 11.723482841536855
Mo 7.757018124275236 10.633307951838932 8.810333070674078
Mo 8.89749770881378 13.81937842362135 12.116191445133374
