37
Energy = -338.6051402 eV
Mo 9.266391635617076 11.40716355066696 5.9608482000968435
Mo 9.298937780731515 7.340526071974773 5.547523077040754
Mo 10.741456602524261 6.30994231051835 5.257332420121094
Mo 7.407295780566575 9.468795922729273 6.7802366215938
Mo 6.933453207605388 11.632649986505758 6.246292894701952
Mo 12.353049135160905 8.79159009525919 6.992069584227429
Mo 9.22757592516534 4.720403026164139 7.266331690207615
Mo 11.541534557598217 11.684701288912871 7.716624496842973
Mo 6.1942174733026505 11.085314041466857 8.69951367600683
Mo 9.931801086785478 9.578143939679743 7.444563848437224
Mo 8.211076823740814 7.0266454602046835 8.326819498347799
Mo 10.887978677228277 7.01558529668872 7.921368081997356
Mo 8.052048293081256 14.375927907877776 9.862333212656795
Mo 10.539188713511354 13.44418612377467 7.112300750729446
Mo 13.552306662157067 6.629159369402226 8.706689113611507
Mo 8.70361184116723 12.118932692399028 8.379986048262552
Mo 11.137766140332829 4.532083646956793 7.658401502993186
Mo 7.848136667436026 9.473813913594324 9.318163747710049
Mo 10.105497634957747 10.764210483586924 10.017411799409375
Mo 5.548055229681993 8.420481066934599 9.472726550370194
Mo 12.31062757309601 9.157175693776791 9.206349083975377
Mo 12.437726107710425 6.368144114178526 10.138343839054984
Mo 7.518088471195074 7.083455161598437 11.00995684527472
Mo 8.55188113183399 14.231916107809528 11.646417233438923
Mo 12.298417300239379 11.933189039945459 10.392151695420582
Mo 10.046085675249408 8.102175333509448 10.250052985590642
Mo 10.846666975776627 13.35644574181153 9.972705571445923
Mo 7.540280631977973 11.887206189890401 10.816389914827576
Mo 8.525547465925689 9.587580597974211 12.002521921533354
Mo 9.398625288965516 5.69499018712045 9.855960308060157
Mo 11.307685894281837 9.503455430946957 12.453939322422858
Mo 10.072553812059462 11.957024327309266 12.382765104834824
Mo 5.876280646606044 9.289298816873947 11.250619479520154
Mo 10.234454906415701 9.61660411324088 14.077366733634127
Mo 7.94366957916261 7.837495825096511 13.731637700589285
Mo 9.461409753633008 6.959424940472681 12.70561971211065
Mo 8.097324953636386 11.562868219264045 13.368371769016896
