39
Energy = -357.94027524 eV
Mo 11.169675043655438 7.482797079304481 5.50310610216573
Mo 8.438260308189514 8.010240460669232 4.5024727609424975
Mo 9.224749084709083 9.835614716999691 4.969495418729163
Mo 6.609979624165908 9.401074267934604 5.9328316201506786
Mo 9.39893469456915 5.356197980005562 6.539019333501215
Mo 10.47583885598342 12.460059726155174 7.1057765475629635
Mo 11.114971144565375 9.62076150632051 7.2516075375868185
Mo 8.768985120616112 7.894832374611713 6.943860661166365
Mo 6.122949494363238 6.810582248429757 6.713293929142182
Mo 7.129262606695495 12.01263998391246 6.234005597664546
Mo 5.855373215220577 11.253416547365235 7.690769491860907
Mo 6.724539979191091 8.732965212409706 8.653455910251989
Mo 8.016141212959438 6.132004458175031 8.946567439264467
Mo 12.85341321801899 8.043156730396593 6.9339918859363
Mo 8.562619659662534 10.620279878233397 7.640709748180951
Mo 10.469663416478648 13.748283791945807 8.990675940183017
Mo 4.699658676662234 8.190249577319216 7.250251585931949
Mo 11.728704190834463 5.3952330955728725 6.445073177502111
Mo 10.98929359017828 6.806280555751401 8.437800354921697
Mo 12.367221902120693 11.542650304762205 8.012977458918362
Mo 9.304959710966125 8.775925058996442 9.423005719271734
Mo 5.380376094311625 6.584673879925183 9.586360317858887
Mo 10.397597382673124 11.288257792013694 9.72459906596112
Mo 9.761119061369097 4.528182556104679 8.666384800786556
Mo 7.358354316516024 10.839769232390854 10.313006200401498
Mo 4.870345307125043 9.200084214243994 10.647150444989132
Mo 11.949066196721919 9.020060322210758 9.763026948670362
Mo 8.16723994639599 13.063450400084502 8.844128847100482
Mo 12.220720207883376 6.695985230262332 10.633479357809279
Mo 7.37716140653368 7.966743204896703 11.326454739754642
Mo 9.775262682951908 6.678506147514663 10.939136573323331
Mo 6.784165652625482 5.466473673959678 10.929534082243928
Mo 8.614919331312972 12.712298836167498 11.05602188543813
Mo 11.77918240693277 10.505705812911659 11.687738996867916
Mo 9.349628289178304 9.806847760699199 11.834883450180355
Mo 4.92922822676507 7.538582399010204 11.999053752288479
Mo 6.376468673633033 10.063769718742007 12.342663865647602
Mo 11.656238696556576 8.196841555794737 12.505971811648257
Mo 9.233201716637188 7.723992053724157 13.085126984123919
