35
Energy = -319.57974499 eV
Mo 15.914444765858173 15.135225889242882 8.759295744862
Mo 15.704442321645237 11.699638669315016 12.793365803501272
Mo 8.945000660596532 13.687336154287015 9.691832724908961
Mo 13.607680396763017 15.029931765612957 10.658089963196778
Mo 12.135353239905758 13.394207778245107 14.872617033293777
Mo 12.571618020792336 9.442478632753497 11.373852604664846
Mo 11.777453066556635 13.708554980403418 9.442656904967524
Mo 12.8709689401011 15.923354121941351 12.579170486613544
Mo 11.996074143449746 16.29087870539854 15.028843694582994
Mo 13.87512767736671 15.369744317861212 15.231665723874212
Mo 11.685392669655156 14.817868362236167 17.311807875026773
Mo 11.717563470434012 13.449142030305568 12.188223151800505
Mo 10.878960833526744 11.674107337449007 10.071096393870139
Mo 8.87860650498759 13.38498158349917 11.560730630782912
Mo 14.12788759093289 13.024828494033475 8.473533392253776
Mo 14.626883906305451 9.538356986990415 11.510880388350914
Mo 14.937519035088917 12.574924977910802 15.530591603079282
Mo 15.163069001830435 9.321268742461202 14.292559839991936
Mo 13.519760431888221 12.008614442786707 10.869629212128938
Mo 10.952167122354838 10.643852055618835 15.208986952280055
Mo 15.805769320615385 13.170208468629577 10.746106383052073
Mo 9.771516917307624 12.869538715355395 14.289662161373242
Mo 14.295898267380306 13.812392944221509 13.024463206391939
Mo 13.495566394497951 10.70150440590913 8.80387005795766
Mo 10.774645152034765 11.157782399382416 12.484485428436404
Mo 15.755561793074428 11.21203530748905 9.46504408920978
Mo 10.665822911592821 15.491780904703482 10.73749974366543
Mo 10.32793409979923 15.125601617259942 13.316997854519066
Mo 16.736784861198043 13.664147129626432 8.018601349665945
Mo 13.361222396040395 10.443181737393584 15.895950611597192
Mo 10.051297564145296 14.615914366494644 16.37783306577098
Mo 13.254056958351132 11.184747391463626 13.486672979203531
Mo 13.360991938071617 8.508587660463734 14.052876849881258
Mo 11.06166712216577 11.922468261455279 16.817416896644552
Mo 13.859158819867604 12.949253923947701 17.041600410520243
