30
Energy = -272.22206957 eV
Mo 11.519592088990048 9.877173436109139 6.198044435329094
Mo 10.1245754913971 13.618356406420064 7.446386149180976
Mo 12.254136982781112 11.86121720920692 7.986811441700954
Mo 10.01077880896585 8.68133607126475 8.29471175750569
Mo 11.487665544867077 14.61679058081398 8.326726006595262
Mo 12.948716521534237 9.398316435257467 7.4069802769548865
Mo 9.676689425267698 10.814540515718797 7.822636387128897
Mo 13.982302696341089 11.238084977555625 9.655785639895683
Mo 8.030288943464482 13.102223859084965 9.48061447888627
Mo 9.063437713264454 14.705317363095434 9.924746258560948
Mo 11.612185850958763 9.923004917368859 9.824421739493346
Mo 10.698900265591561 12.51960310588346 10.051430656712466
Mo 8.702055696785585 10.555975806579545 10.08829679431822
Mo 13.39366649223291 13.43677627163655 10.012635305559069
Mo 13.459594602888206 8.451722635531867 10.138930877034456
Mo 9.374945998608522 8.491903296712923 10.840439427246277
Mo 7.583780453582906 10.331430995588951 12.576465724954975
Mo 8.861966875569905 12.778500923506648 12.010758239329798
Mo 10.882730432803323 14.244382526814617 12.125716140776074
Mo 11.650116511698528 7.930807657737674 12.046023114835208
Mo 12.638351605795808 12.388388603759239 11.905179921951598
Mo 10.614708053583508 10.58537530947198 12.383947802855173
Mo 13.323423185742225 9.774201706260396 12.035945314699806
Mo 9.527081300577834 8.645124238956685 13.443234002397507
Mo 10.72215075826171 12.736479572524804 13.880813575325373
Mo 8.321841008133283 11.139363174546004 14.167794782052342
Mo 12.688630726481726 11.037096239848001 14.426056607610953
Mo 13.113719622483586 8.314615266224905 14.37640498456615
Mo 11.465298334001211 7.353233237661189 14.696525588378593
Mo 10.951877098121262 10.133866749634715 15.11074565893964
