30
Energy = -272.99113665 eV
Mo 8.116933686959797 6.556585022986513 9.651245295114004
Mo 10.589581757757784 6.500981466792184 8.212619097865673
Mo 8.59507697046827 8.067255280639719 6.996019086594711
Mo 6.8571708132796925 8.977606169338012 8.56010107460474
Mo 9.281747527152861 6.848913690018322 11.099765553096159
Mo 7.583809340308298 9.06795536512091 11.015728033361816
Mo 11.58521751496405 8.06232123597381 7.392945584022097
Mo 9.515479751176388 9.023476195006168 9.255337974067437
Mo 8.04619387425617 10.856678436714883 7.780274458408407
Mo 11.791315527967031 7.803223294918977 10.035112649348589
Mo 11.880473520794528 7.954788095084319 12.616831458784098
Mo 9.826466440569282 9.809528086550925 6.438684591540683
Mo 9.716172856111209 9.548806726539752 12.25795424073533
Mo 6.331934675816892 11.311137521178864 9.872134590541103
Mo 13.676782587593902 8.490239094791367 11.528067039886043
Mo 9.046905363278233 11.396472127178937 10.33941899127103
Mo 11.745185455369535 10.374254290907269 11.040333320471625
Mo 7.615165400175643 13.082577153014212 12.058517956939653
Mo 11.669606273433336 10.628718980191888 13.943800939520166
Mo 13.483744396768833 10.384020757714786 13.359564609624872
Mo 7.415757684160047 11.247603632316737 12.70123216872868
Mo 7.14876076644944 13.081305462340746 9.38067741822209
Mo 11.167859037265817 10.923963524908975 8.395795075992364
Mo 9.750115836720713 13.075144738396729 8.40328604987783
Mo 13.629742741932725 9.969086252808411 9.081704438724728
Mo 14.436186607118755 11.218452939942576 10.394213434726476
Mo 10.168926161995497 12.316309953919335 12.38330991797533
Mo 10.265772761963836 13.961880582416061 10.280665486399148
Mo 12.550605616956743 12.58382950159421 11.973181800763154
Mo 12.40357117274163 12.663403463290997 9.532514567806265
