33
Energy = -299.77809912 eV
Mo 7.660313647885889 15.417735756413526 11.230486560402374
Mo 13.724415156624762 10.153618956449021 9.87415168387727
Mo 12.391358989874103 16.186922810197128 13.08738280421407
Mo 13.87092729320888 13.314486298394485 14.271470819834299
Mo 15.694816809859867 10.398197193186723 10.194820601930525
Mo 9.954372182696764 16.085113961218354 14.576577334312574
Mo 8.786216678321448 14.914855662185536 9.789165107536718
Mo 10.047908206854487 15.96791244367832 12.133876084185719
Mo 14.622930376976566 15.677825851311104 13.973206435014374
Mo 10.252459859227091 13.324538173848287 15.21842442877596
Mo 14.551814127648651 14.503786928336913 16.723321425714033
Mo 14.977216362988186 12.861828086944286 10.124767605694533
Mo 10.016258968048433 12.518837099307497 10.527481319910311
Mo 8.725251054027101 14.30075071073112 13.677701616007226
Mo 14.160499146322215 11.73743803825478 12.177233808261077
Mo 11.74772430929741 10.84430658350157 11.699148778456443
Mo 12.572615178489446 12.55685367973582 9.92096352429046
Mo 13.503501134653996 9.074663351373928 12.833877095831763
Mo 12.378475436056155 12.531754348418362 16.268547247252666
Mo 15.507023482546124 9.534486287162494 12.739184828568336
Mo 11.427512583465647 13.531165724886998 12.765536035320906
Mo 15.053740683094155 12.63518416689589 16.750222789984164
Mo 9.554744706689888 11.57849031085981 13.142535094891166
Mo 11.410270510634179 14.776521181366723 10.420351600619357
Mo 17.169697880694077 11.973591312143498 11.92835419035046
Mo 13.665565820114129 14.597641391233045 11.659948868497231
Mo 16.300407729913484 13.925107121830228 12.243453147175376
Mo 8.150912626635312 12.681835401774366 11.713235489784852
Mo 12.002172365198494 11.18305201355141 14.280664198906253
Mo 12.110997397334824 15.023309768368144 15.257335791655592
Mo 16.135155216032306 11.859116029767986 14.18022839443382
Mo 14.037281802987001 10.451459352313435 15.013388244992544
Mo 16.504015329190686 14.148047949020585 14.725196092310666
