38
Energy = -348.67001987 eV
Mo 13.373549259275856 7.167074223126254 10.688873977185292
Mo 12.81621369264672 7.9699316164671306 13.16391209820605
Mo 14.604164190699745 8.82404883567929 11.367943247093764
Mo 9.67920641507684 7.480897712150443 10.973767929909766
Mo 13.500108028376559 10.743145430186486 13.006183142021515
Mo 15.15021955578131 10.556618457689519 9.242661457439844
Mo 13.222486439584559 9.099169544509692 8.979665140539174
Mo 11.966493943833976 9.692188696323809 14.89429364533081
Mo 14.917271058662463 11.978193744843729 11.581268655322816
Mo 11.6121276917934 9.000793904722775 11.227000180321907
Mo 13.915527080540095 11.779252543918393 7.813552811035285
Mo 14.279540076099147 13.6007235506265 13.335272881888496
Mo 10.242944632982999 8.359823241432029 13.439804932223565
Mo 12.425515823215832 12.36016839083522 14.781556983509184
Mo 10.08974288414698 8.971387137411819 8.974321837541185
Mo 11.423150940703668 10.847985534284247 7.9200070687353525
Mo 9.91072051156683 9.03225681165006 15.883466997070029
Mo 13.93069819513969 13.40846227073005 9.489324828186032
Mo 12.714753932628462 11.19918235849483 10.371084649654863
Mo 8.699905626405995 9.598309579653483 11.487329331875703
Mo 10.749672118529832 11.014033363894521 12.886685820220718
Mo 11.564989187186129 13.26928075417169 8.921881504409448
Mo 12.180288012579478 13.318176422104647 11.976306118819837
Mo 8.443113541908621 10.216703094701533 14.203226565678735
Mo 9.084027640580619 11.333964257336271 7.725262309823787
Mo 12.182911566348544 14.787186452649028 14.352357807512194
Mo 9.965977099616254 11.550851075180038 10.26162373985949
Mo 7.9158880672301 9.881660451048862 9.05416976255596
Mo 9.987535272573174 11.458425339932079 15.452068871353173
Mo 14.21383125084084 15.512086739566442 11.52249083873258
Mo 14.044596974241992 16.43785663395326 13.245645025000968
Mo 10.076009336368388 13.537788266844306 13.725328622747355
Mo 8.372878884552355 12.220813933738336 12.560683494577354
Mo 11.716930615917512 15.23242332759824 10.292579142852917
Mo 11.529438735669114 16.04718641673118 12.524037944487683
Mo 8.815172520428899 13.802606362675586 8.84671040426455
Mo 9.56664708093329 14.038395907803089 11.300549036629144
Mo 7.5344544628927395 12.631133208147839 9.885412378047622
