32
Energy = -289.95209398 eV
Mo 9.651254095652478 11.890076733713522 15.402963528640726
Mo 11.852416147465307 13.122351761208376 15.590880475229213
Mo 8.46775250260168 11.701497967861874 13.151847834856945
Mo 15.51129790848036 15.069003684906965 12.627108361769343
Mo 11.468709212584322 14.365066499206584 12.121972367297156
Mo 13.434021664868355 10.838916353764013 11.815071675490783
Mo 11.79498065020798 10.8091093753663 8.300762508168855
Mo 11.8668788013491 9.096111129251472 13.0400657634114
Mo 10.432066572296668 8.371577877456627 14.422209503809144
Mo 13.817725804963722 15.9220206486577 12.284886349677317
Mo 9.420748215642082 9.615213788672932 12.319911314357162
Mo 11.045537883925194 11.789144471712177 13.073356013751475
Mo 16.247457240237647 11.349009187259034 10.727071425385528
Mo 9.137584089081471 13.395407299931675 11.500592840634368
Mo 13.90828436014712 11.076082103030457 9.265242150188177
Mo 11.649902622596933 9.763431063376132 10.263266511609231
Mo 15.327953672818127 13.089660776092833 8.573828954022625
Mo 12.451100418389894 15.176932314529582 9.676949294700322
Mo 8.919022569221095 9.478294121613406 16.408650669252502
Mo 11.358272501410488 15.40573859472367 14.52904691306019
Mo 15.409388860052502 12.263179472221456 13.095450487882214
Mo 11.531976447232479 10.31267008247504 15.48482380477207
Mo 9.518841358084158 11.27874626846899 10.51139521570196
Mo 12.918149324927201 13.59185250739138 8.232463643796576
Mo 14.069965642329032 13.27333971447243 11.060025425306348
Mo 16.893726868724446 13.201578957435553 10.715081154556488
Mo 13.288494667554854 13.509219112597778 13.738691473067643
Mo 7.8590486382260645 9.764332986444641 14.899541479188125
Mo 11.659422263410057 12.501919506251284 10.404432451360426
Mo 14.922035929616603 15.152261966301602 9.758910508596852
Mo 9.695980379817222 14.308761619957698 14.216864778128716
Mo 13.59758198727981 11.08222483680104 14.408487586579785
