35
Energy = -321.33300662 eV
Mo 10.732315032924667 8.355669758925846 6.125702296711248
Mo 12.70676246978764 10.558733027968286 6.48225083948473
Mo 13.282748968220359 8.777459200277681 7.650674709379945
Mo 9.90081633787189 10.093271990831356 6.1272363558086225
Mo 13.739032499221059 11.51933357844398 8.338758863991533
Mo 10.983701702476527 12.104624107280491 7.9084569950689785
Mo 11.357897525403267 6.661973177070824 8.413614152955192
Mo 9.026518437287917 8.314644602762746 8.169320767129943
Mo 11.11553884025555 9.607220674424752 8.761194832392466
Mo 12.38390115885515 7.035821015751042 9.907266418880878
Mo 8.57203959109535 10.72385372478198 8.48246034329187
Mo 11.790115970132877 11.590897150028042 10.495554504121042
Mo 14.290862228314474 12.846968990352519 10.466789410455771
Mo 12.51578573066246 13.80601533743425 9.353314289123148
Mo 9.724574805028182 7.873429325018902 10.559583701756441
Mo 13.784131482230592 9.755794927619553 10.032753707597697
Mo 9.52409469551807 12.895708347515322 9.604768445773065
Mo 11.913289769828038 9.119757864541805 11.55624740515417
Mo 10.817961356036804 14.072980944802353 11.41757163178597
Mo 7.053625178964578 8.828452307157946 10.066707892799831
Mo 13.615671065776704 11.057187810415797 12.596789639427605
Mo 12.92828076490597 13.622699453116864 12.27740502234222
Mo 10.872199554283053 11.64369170084056 12.972835741566723
Mo 6.825729950229989 11.865268204711882 10.243739362664135
Mo 9.256252483836152 10.471161457622037 10.938799029860398
Mo 7.481258530766615 8.432744040501403 11.900376733951532
Mo 9.963007599972565 8.871223741135529 13.319864993274825
Mo 8.607909274120095 12.962386096166371 12.133370388793606
Mo 12.529170449266037 9.821667389390583 14.044362361084737
Mo 10.36392807038937 14.06509989412773 14.113939523672531
Mo 6.709633006123422 11.233899371054006 12.07283387061903
Mo 12.684291773174147 12.54853233591018 14.939066383667605
Mo 8.793006425628871 12.898899898708981 14.593459537479399
Mo 8.67517961799315 10.212031983017884 13.94233978414423
Mo 11.221008090256671 11.467888025059658 15.62657220671822
