36
Energy = -326.77137294 eV
Mo 10.703225519116856 12.647112225280027 9.710513365639818
Mo 6.616668783316353 11.307401215908959 8.02927470206042
Mo 14.730258956720114 8.038188844193082 10.244910940705902
Mo 10.368343172351425 10.469610606364132 15.584256348367562
Mo 8.64619065067885 12.836204771649731 15.16019408115991
Mo 6.861435582030213 10.125143119872437 9.388703522114215
Mo 12.400350525811888 10.79955718718988 11.162095011940204
Mo 12.207428761354599 8.184194330838448 9.925969176770424
Mo 12.943183259852498 8.604069548931951 12.269174805698128
Mo 10.587152292690352 10.075175500033508 13.16177133498588
Mo 8.174089136233672 10.243408239927449 12.005169579156044
Mo 12.419164484309283 15.006847098214216 10.348688146529827
Mo 10.933787897395906 14.48229407382009 8.101775683954296
Mo 15.064754537924847 9.983253639593965 11.995993923569
Mo 13.235640819506203 13.435836360133154 15.330729274061976
Mo 9.056685045342734 13.130726196119232 7.523383149374141
Mo 11.85432200925853 10.31546059631517 8.528327981217942
Mo 12.786238518146204 11.888513699507925 16.27065604823595
Mo 14.594043599734402 12.068332513807707 10.988704203882012
Mo 10.241899854495417 7.949687638613687 11.56376004985075
Mo 10.310070387503623 14.867855112652274 10.769617348129088
Mo 13.4849990810935 11.3285579359775 13.529169539058795
Mo 12.52230848062152 9.103749128599706 15.054208216865225
Mo 13.43634922499985 11.413648085438284 6.776431516402728
Mo 11.254316810703594 7.797285223696676 14.203724645392965
Mo 14.360419793810765 9.886074054533767 9.24873866255227
Mo 8.232140729421266 12.280051005055606 10.206066641108515
Mo 13.068130891643644 12.74831501153976 8.973941977905277
Mo 14.539018249372182 13.482462020461416 12.945354548056427
Mo 9.342431055942178 12.438992890918545 12.309330318734352
Mo 8.048092664358856 11.03848398771943 14.472315788217971
Mo 11.67776291420369 12.322045113613392 6.602837729166963
Mo 12.20839779699184 13.409506210451529 12.152433855370711
Mo 9.858284553139056 9.836682209646101 10.30862452711653
Mo 10.93554373765473 12.499853189987485 14.348959011004375
Mo 9.351368728906907 11.00991992003052 7.858692852280956
