37
Energy = -338.38918862 eV
Mo 13.100273061708231 13.262013087069457 6.6936139448220455
Mo 13.591786031164556 12.25643037157639 9.001652238113325
Mo 14.777157598811254 10.052003398852081 9.509068713723106
Mo 13.243181483967247 10.401845022718037 7.1007257048801256
Mo 13.546281836791067 8.543938156364208 7.912271888238567
Mo 14.701257330006092 9.245318189000322 11.681114501805954
Mo 15.181602038737488 12.293266032096586 11.280626767654296
Mo 12.722140509745024 8.317472118739724 10.45992950211446
Mo 15.063204910205528 11.590121471179284 13.095371163501296
Mo 12.511433373032506 7.419891209804117 13.04780694161624
Mo 12.303173054520654 14.539167827317312 7.917264870373439
Mo 10.73101424087371 10.21893457920616 6.0733810053370885
Mo 12.204663190825539 13.628067099442253 10.562866276043614
Mo 10.964257818790452 12.227245784902129 8.075488985620128
Mo 13.057290641428386 9.95082295527577 13.740615274155408
Mo 11.286219121629394 9.936520767757234 9.023817989059825
Mo 12.72803391001542 10.887334813573554 11.302505432606724
Mo 12.737998727155208 12.981356163476566 12.959890788594222
Mo 12.610976331056253 11.812332319665591 15.709403959154887
Mo 11.71642472051558 10.248607518898094 16.203921288158163
Mo 10.70489810514226 9.11825005673007 11.684743332984507
Mo 10.983649447212015 8.271899292788907 14.087238355081977
Mo 10.775799211573482 11.23700309208004 13.666989166848392
Mo 11.03851025768577 13.942376581941902 14.319303007159244
Mo 10.657415733799688 14.660868898954053 12.130020891595896
Mo 9.67282851163197 14.420088281301691 9.395079810222834
Mo 9.20705964210477 10.135402333481737 7.026889664628227
Mo 10.156600333725336 11.946677100211476 10.958564901544458
Mo 8.905744820201367 9.60957137368768 9.975197512591775
Mo 8.739839042130919 9.992457063318701 12.890833251686177
Mo 8.86299424777687 10.079627288825645 15.607664666107594
Mo 9.071808354337254 11.94971696741383 15.793870204979534
Mo 8.985200827781007 12.917148326962378 13.12028152945968
Mo 8.533772565501748 11.828487987525973 9.151314973422252
Mo 8.261210390339814 14.151725212879688 10.654859649508671
Mo 7.077458106727154 11.617507717581773 11.722180883088761
Mo 6.775200115626526 11.496863181677481 13.651990607795783
