37
Energy = -338.34458213 eV
Mo 9.339913549889143 14.8318407513634 14.714537940376045
Mo 11.003482856292075 15.368555693540667 9.45568815629251
Mo 10.199147529216841 14.743098626675321 12.059011564601333
Mo 8.683843918833343 13.336084106711477 13.83103382683665
Mo 9.610175026691936 13.2038710059449 8.200568876552728
Mo 11.651791451380973 13.277689872566816 14.74054568074376
Mo 12.44318371208231 14.678383479235636 13.627312315012936
Mo 8.947065393572407 13.29128521776761 10.60755603146072
Mo 12.902268598525252 13.954605629679175 11.015490687894369
Mo 12.089081303693128 12.580605984912486 9.129459019296227
Mo 11.20956747781819 12.432732929393206 12.123624896992489
Mo 8.461918539361912 11.0793144392862 12.12783643597268
Mo 7.873529585917143 10.486107222372377 14.876938962095176
Mo 8.595113016436748 11.597308628856693 7.0298146545305205
Mo 7.897315572457471 11.321517549871999 9.31200053667466
Mo 10.351831237112746 10.897930651861195 9.980739134614986
Mo 11.09094681672196 10.82931425724211 7.1702629315997815
Mo 10.241041430275596 10.906308728073114 14.351458231509524
Mo 14.89461988539172 12.389984550306888 10.163628112278422
Mo 8.293270103565797 9.202001306930892 10.740475292180026
Mo 14.194127808807314 12.622627629660085 13.039613339679306
Mo 9.593930599544102 9.327416569621803 8.02983330521746
Mo 8.225655365461483 8.99999304542219 13.692848835353894
Mo 14.075205475811863 11.499568906078736 8.243829263614725
Mo 10.733173060790989 9.385177695222112 12.383034424109882
Mo 15.258535783575278 9.615922106620879 9.849624336664421
Mo 12.692869898494084 10.784060245415295 13.8603474141891
Mo 9.377311734498276 6.930659498469862 11.829712413700797
Mo 13.092294957246752 10.690957887008361 11.007636249037612
Mo 15.199948371488821 10.813805910700367 12.498917161339856
Mo 10.774318880587728 8.161912515286229 9.93623818541707
Mo 12.484467718743918 9.553135212637548 8.663421663786233
Mo 13.328860148268156 8.619927094223131 12.955823100551852
Mo 11.191489740567834 6.664452659261547 12.341273602638246
Mo 15.571561105904367 8.358975976183869 11.439652183613521
Mo 13.186666327410219 7.868767636052269 10.76828172700615
Mo 11.885887796688838 16.339510558670383 10.847341285692291
