39
Energy = -357.85541652 eV
Mo 12.816401846937483 13.175103966244798 14.336770955622677
Mo 11.19564646519582 12.913949501706862 16.55099907073955
Mo 13.402203748052363 10.984872361764305 15.54865113811956
Mo 14.631052783197417 10.807049737282295 13.83118539847733
Mo 13.972988980900041 13.22627384330446 12.113421799323092
Mo 14.41664150577568 10.901992198318188 10.931601465943512
Mo 11.134724483186421 13.808596039716072 12.566961052597598
Mo 10.02174147548937 13.353473172172421 15.198567936418407
Mo 14.951643322500113 13.4741873034257 9.634345058815315
Mo 8.708232837311764 11.720878410944213 13.004083655849852
Mo 12.450485062374366 8.877010353997774 14.453645715312113
Mo 10.732740024850782 10.678732121500397 14.940070107126731
Mo 12.631201406921416 14.840885385447404 10.95838009711197
Mo 13.725300772985989 8.639712038238548 9.470049079988698
Mo 13.62856747238319 8.711838250636816 12.386500330642317
Mo 14.803640165843147 13.320976344451564 7.657091745524888
Mo 12.16127821310033 11.164335940081463 12.91344663199594
Mo 10.325087588860972 16.228892984340714 11.51414436394167
Mo 9.395134044918438 15.73079775504761 13.237790675454155
Mo 9.87903508260031 9.45641529358407 13.021086379244686
Mo 11.304720505071476 7.295062062078212 12.730226566619029
Mo 12.4066087621816 12.218539549000116 10.009962414588648
Mo 8.48369325856134 14.031690534395855 11.73900917969479
Mo 12.33451825580601 14.22693700159871 8.32765532601421
Mo 12.741410298589544 6.846905821491563 10.386777466184778
Mo 14.37471283996602 10.97310818177269 8.512909697957616
Mo 11.564887538851258 9.379774309439478 10.920457527929202
Mo 9.976364011542476 11.662166082814148 11.03593779805842
Mo 10.110809907022508 14.109725570653064 9.85773448718134
Mo 12.266873807493337 12.315084035683816 7.092174935577646
Mo 6.475882275261424 12.508367551135532 11.053082680470256
Mo 7.592760596870128 10.220273085768241 11.3312214407974
Mo 11.868128866010089 10.004109497491866 8.405061743680047
Mo 9.127186337428297 7.906124152005179 11.089248751474596
Mo 10.307644199010214 6.023476925680121 11.03628341749628
Mo 10.24245706002111 12.15624621263546 8.225086048041524
Mo 10.980711124103397 7.664928222417988 8.99509259826335
Mo 9.119474065446523 9.923899165156174 9.433854910842523
Mo 7.656723068856779 12.452614775203202 9.46102454342687
