42
Energy = -388.45486728 eV
Mo 6.618564729472696 7.036528847009028 11.922930128315118
Mo 6.524682401621033 8.914886731219196 12.57463071699478
Mo 8.65868919665446 7.516256743528278 13.909635610462557
Mo 6.404910034505898 9.09987886434322 9.984650777791408
Mo 8.35608509824169 6.918421872925879 9.25411415334027
Mo 9.406556148196426 5.914011382994207 11.48986810894073
Mo 5.818748180875685 11.668688284549791 10.563483302353083
Mo 8.015346117897057 12.848205014617664 13.055204236801254
Mo 8.93305025375514 8.256305033024272 11.15490636850369
Mo 8.15549433736925 9.322369433524852 8.370800987383298
Mo 9.110120722538797 10.277790148941515 13.382326712408421
Mo 10.75889236196923 6.045744221732829 8.8689705646257
Mo 10.518418312948926 7.751962300697336 13.59140234171183
Mo 9.595985468792705 7.437829923428267 6.601813017522912
Mo 9.566254447617082 11.477570198429014 9.124089493619055
Mo 10.844188927994955 8.573845022061963 9.026550617219945
Mo 8.126330423214487 10.788201688773874 11.116042370773242
Mo 8.210973453381897 13.499085315232822 10.481962081706625
Mo 11.544290234446 7.017578940333672 11.093794973115417
Mo 6.751367653272653 11.755644845798544 8.748945530738442
Mo 10.602503858134892 12.351775419676548 11.641518437597208
Mo 9.681891578713886 12.911898112563435 14.126322530310178
Mo 11.697711603631936 10.934810201883476 13.980669054759561
Mo 13.018664031316122 8.819307398262254 12.63249717714577
Mo 12.98889718802608 6.7362357984350405 8.660415394320985
Mo 11.453198684003782 7.3782211980037005 6.347039444249701
Mo 8.764330211471615 11.402164496441493 6.612376607894483
Mo 8.791950215891603 13.826853708069061 8.065828540800803
Mo 10.747072410298044 14.022130349930698 9.336127608094493
Mo 11.04785648019854 9.780163738470264 11.508846943855511
Mo 12.14332541432301 11.289296842576428 9.24218231779341
Mo 10.483271920175625 10.105809289338863 6.7984818627730395
Mo 9.877284818214317 14.682019923273439 11.672001839798758
Mo 13.452180335084632 8.775521456122831 10.264519595688304
Mo 12.479839631402909 12.82057723496175 13.554880796322182
Mo 11.251703836018953 12.797272211427213 6.896233189889061
Mo 13.453905907657942 11.221316368584521 11.681034021620523
Mo 13.144425298287508 9.167083474462952 7.8086335611134565
Mo 13.393913394072237 13.39155153496683 8.671262815616235
Mo 14.557661316086394 10.99348404341649 9.51427156775444
Mo 12.854418960704422 13.596884115915463 10.837060711296367
Mo 12.789352750323237 11.553467640747712 6.555932564345883
