49
Energy = -454.96555956 eV
Mo 14.69799800173266 14.319977805260413 8.917121382816477
Mo 16.128403410322186 12.11070769174475 10.747733817385384
Mo 14.041442305784983 13.88555455631843 11.532811347887673
Mo 14.93155548735129 11.705624837014893 13.479589417102098
Mo 13.603102643878904 13.899155151728609 14.41925634327379
Mo 13.69894689919666 11.626487766443654 16.09723551755662
Mo 11.86262659652791 13.902348779108909 15.462946546268808
Mo 11.662032844478578 13.040694580100904 10.067257973544624
Mo 11.757842563629097 11.603342816630946 17.017943951554127
Mo 15.661708701459636 9.743443269888566 12.097421207185405
Mo 16.297501637995307 10.604225242193658 9.558061673941157
Mo 13.900804328178307 11.95632141275783 9.151224230241654
Mo 11.56422770667219 13.873257056499178 12.689103028714465
Mo 13.19567996301694 11.34234845753578 11.788830074487025
Mo 13.87384178028495 9.46820898707763 14.148415832051764
Mo 10.164918257472287 15.326258642964198 10.328011405063997
Mo 9.519237921412333 13.465472319368228 14.24007383029881
Mo 11.920837928712798 11.468833908256887 14.1809248782463
Mo 11.9060081420666 9.44180780434122 15.928977687655012
Mo 9.478080851955152 15.483075928871857 12.864300962403664
Mo 12.521868688564426 9.279005999201411 7.9448133315842435
Mo 12.826652926792704 14.352634575064036 8.053115880551825
Mo 12.858044986811443 15.421306580780994 10.77239047106755
Mo 9.617157046980644 11.238999224345237 15.24858361668721
Mo 11.910072330219833 11.78681021610578 7.500299137349919
Mo 14.414926415594966 7.755323963279942 12.360956376149074
Mo 12.103351234195339 7.584953133824038 14.34434061125866
Mo 10.006658858854067 13.976592649351515 8.07198448733819
Mo 10.073296728002676 9.201084779487324 14.04480057060777
Mo 13.962960372206503 9.366450734418683 10.16426675021684
Mo 11.995491912678112 9.006652271410443 12.087602796015211
Mo 7.779119956259012 11.037280718745874 13.330197654175828
Mo 10.145592331147549 11.566504600744466 12.184498381242722
Mo 11.100697689389783 10.515814296541462 9.768264931781557
Mo 8.261713419147522 13.698723978068065 12.010810521736408
Mo 9.08361282864609 12.468927282618427 9.723473670947358
Mo 10.544773237471578 9.247165233945891 7.073016534554172
Mo 8.178626819971951 15.547651704152726 9.936141604961074
Mo 9.560140209172365 11.548147983537003 7.321965118063227
Mo 12.461314984919593 6.111051141418416 12.421033614709408
Mo 7.232270925972848 13.770148446081762 8.031095704349838
Mo 12.716815029638445 7.090127122996099 10.140343719705282
Mo 10.357897446526902 6.897705888449473 12.067754508103544
Mo 9.167336060750307 9.164469281323202 11.660747089121346
Mo 10.652585075209203 8.044202832803624 9.658393834949877
Mo 7.308237892241207 11.08294896191886 11.345345162500703
Mo 6.387859179389886 13.416480829230318 9.743522042845127
Mo 8.440697142287783 9.60859395402404 9.09987962621844
Mo 7.114184709473914 10.965751781186716 8.442862173277117
