40
Energy = -369.16015283 eV
Mo 9.478065269136893 11.704376714938695 14.469865406029113
Mo 7.580281672221541 11.013261366451509 14.134975479756704
Mo 8.027815399658543 13.546017750147085 12.67477889170229
Mo 11.722719702640571 9.852435398780111 14.841492060647198
Mo 12.479521877246848 11.560626271264839 14.438693210804223
Mo 9.446454335084152 9.170444543482455 13.536271623165991
Mo 10.54621697176826 13.202333130487881 12.426371939503772
Mo 6.740737848450401 11.906384307835085 11.675995529307105
Mo 9.049524332886264 11.07915437248289 11.779941089662259
Mo 11.133921786994621 7.077314738126134 13.210793245953376
Mo 7.3255620257934 8.779782688910023 12.134496409971183
Mo 13.679430106965414 9.36258003435055 12.853082130913528
Mo 10.34402838138321 15.021100791800023 10.440961746383241
Mo 12.289480843553319 14.78761739127272 10.65432588736167
Mo 11.674019701297773 10.3311521511273 12.066229631395581
Mo 8.394926021219424 13.192506512785013 10.233249296495543
Mo 13.04466381455289 12.447271351867403 11.911426445698314
Mo 9.306629600060552 6.542028425303247 12.822832743982259
Mo 11.045298143894026 12.326840273631245 10.034245877099346
Mo 9.860160536332385 8.543490734435652 10.812871246206566
Mo 7.789415663683492 6.912896253318566 10.347828244937334
Mo 7.214331141846704 9.668925457387544 10.041735190676164
Mo 9.31958862905052 10.653756026710722 8.94599766982968
Mo 12.034455381048907 13.902638515417177 8.115077184413932
Mo 7.133295528920445 11.812262386259157 8.022016483681153
Mo 9.6738437862414 13.253577485037594 7.8580686168274765
Mo 13.59686154682749 12.274574000649146 9.43337211374763
Mo 14.199414294897178 10.124452934197318 10.604893849106311
Mo 7.347702321913308 10.117862228592678 7.03966591793226
Mo 12.56117704732045 7.815301758528549 11.06886630119144
Mo 10.575087993243 6.219928829499679 10.438134038916566
Mo 8.61899526531047 7.90548620304575 8.567580925353242
Mo 11.859334113388638 11.570178747550926 7.30760722858978
Mo 11.900284783791356 9.847276633205805 9.29646007261632
Mo 9.434259081661093 11.413140779222642 6.263068153070912
Mo 10.414244722838838 9.279142307278244 6.993605715630409
Mo 14.29532446412785 10.406152089864282 7.630268510682093
Mo 13.915322845147081 8.07269065088899 9.081281298198725
Mo 11.346463503935178 7.4081003624902015 8.513826953124434
Mo 13.078889226656695 9.082673504277734 6.6898813267588055
