44
Energy = -406.13206156 eV
Mo 9.8520904972573 7.6905875036494 4.5945936463168975
Mo 8.615351290220387 11.819381644959657 5.673797076362581
Mo 10.653179071303455 6.139808202753914 6.304310643818033
Mo 8.052300021369245 6.600463882279581 4.869716150718898
Mo 7.906778020787181 9.480428005609026 4.73361853875811
Mo 12.559281222011979 8.180504454971814 6.4887795196866005
Mo 10.247412484544977 9.932183022504551 6.504923186019492
Mo 6.027734037231135 12.200270870880646 5.915637656954362
Mo 9.424979619919133 12.185423442333363 8.153213394889166
Mo 13.234613330486859 6.609840092545357 7.394735289609212
Mo 8.475316230537741 7.839863324188561 7.093472092558159
Mo 6.148518647773776 8.681267579694358 5.8732655369384865
Mo 6.741554152075594 13.052860070553054 7.605989406532136
Mo 11.628490364633656 11.668346334962948 6.8572768594271585
Mo 6.392634181775305 5.568470572492423 9.742638017031044
Mo 6.297198767011023 6.5804212458333575 7.422135137152617
Mo 8.591797157472465 5.218973530113925 7.567313875149556
Mo 7.409411621766144 10.40577639341004 7.269226806002345
Mo 14.155754039961284 8.652117276622086 9.003378492659367
Mo 4.84579148448604 10.786997564436799 8.281314701693418
Mo 10.962585528677703 4.944230979425202 9.036991756462738
Mo 10.758527846495483 7.422914179985437 8.476414315434026
Mo 6.332034476823999 8.4394330516712 9.102589135389461
Mo 11.907948352862508 9.944943933891862 8.808965537167843
Mo 9.122052343676385 9.544897483468961 9.019370821887653
Mo 8.72115159665757 4.136039676814261 9.64519348111765
Mo 7.203156920904753 11.369489292179843 9.880264831706327
Mo 11.73459673863473 12.385574614043621 9.49950504046208
Mo 4.797276726493985 12.220077934109668 9.675094341361087
Mo 8.62835729644698 6.806464719279382 9.936759579552133
Mo 12.935605005861913 7.4596073265169 10.145708343951735
Mo 8.73063021773236 13.275646078109169 10.251922315094719
Mo 8.057381246393069 5.229816647852328 12.231628761936134
Mo 10.672489751003075 5.889718036257466 11.072671273530585
Mo 5.281024736898051 9.993196137787184 11.19439820463687
Mo 6.140555655899221 7.220245213320383 11.364505565276609
Mo 10.05331882037059 11.31857519090662 10.770965051716296
Mo 7.953316534736296 9.114775448995807 11.326187330964578
Mo 10.688913909833209 8.692739456778726 11.219691920190876
Mo 12.707978824269459 10.072766298174637 11.058657142104286
Mo 7.543223952375534 11.471402356933655 12.407291862852013
Mo 8.579331676393572 6.920449014511224 12.904915159942526
Mo 6.264032502780635 9.675716709401641 13.194492772504262
Mo 9.593283257523963 9.786255367159862 13.055439588847609
