41
Energy = -378.36169623 eV
Mo 14.734852051261221 10.108358540810265 13.821273542363766
Mo 14.535259329255457 12.155011492033408 11.898779413683231
Mo 14.388736602991354 8.408862864902504 9.314621609577724
Mo 14.429112012612835 9.210672701027688 11.046785653904447
Mo 13.774288249035601 11.645395992774562 14.544184591076823
Mo 12.486732401083556 9.194281072286213 15.168808202242648
Mo 12.763737691601193 8.012980689708446 13.638512058315538
Mo 14.105218863065156 11.315250218604602 9.388806754199782
Mo 12.072906027917368 7.689154607014441 11.00975164876235
Mo 12.253052770410388 10.533616483250897 12.465661553459771
Mo 13.884323719790576 14.08924702939902 11.142464279223773
Mo 13.083771090559727 9.903510097592894 7.257657408683321
Mo 12.255244845373506 13.449878737248982 13.05600970535014
Mo 12.067217520226027 12.491666094788055 10.430556957312302
Mo 11.586639486492643 7.295451784948272 8.513631875971107
Mo 10.157316784735043 6.1970331631761955 9.625021067672797
Mo 11.932226764618791 9.85938765356623 9.557403560005136
Mo 10.807535400434471 11.382077269019387 14.260179407272036
Mo 9.880137895698203 9.497510260537476 11.389581020970788
Mo 10.196255709033611 6.943173058147088 12.110673803719344
Mo 10.166044152997232 9.004125556807558 13.865652113317175
Mo 11.174532583820165 14.983308713047364 11.6575988807929
Mo 9.783182666964208 12.360398127852337 11.849749517220713
Mo 8.148988840508895 7.954287855199869 10.640677871655948
Mo 12.407771518833133 12.24011786182725 7.768281164923402
Mo 9.705189978248256 13.959709048151032 13.891128380291347
Mo 7.743131209707176 8.098004375337208 13.030441738200874
Mo 9.90640583277294 11.622177084201091 8.947075906189305
Mo 7.772379203778873 10.760180682954134 10.362836758249497
Mo 9.531533625643016 8.775285749868058 8.697678018052839
Mo 12.087329063150886 14.589509369969745 8.813152449288774
Mo 10.705149012642702 10.02933792076141 6.983781625111585
Mo 8.31694994412912 10.822096295595626 13.307984839564234
Mo 9.499156655015831 14.157627419847834 9.772558177900596
Mo 7.39510205116967 12.888723538185257 11.343215096610955
Mo 8.87478847038128 15.099981277372612 12.389790337319322
Mo 6.453842500652638 9.753937989513174 12.276067442083605
Mo 10.44482850090495 13.95432397068891 7.5068210170520935
Mo 7.640872224225575 12.96793691876594 8.836054083468529
Mo 7.777538965041811 10.350003352052132 7.478679247583889
Mo 8.662550685125476 11.838239983075066 6.532244123265528
