43
Energy = -395.23340535 eV
Mo 13.965944283856649 14.229647871863424 14.77164479925051
Mo 13.783683631750572 11.098825005607843 13.545377031971958
Mo 12.515516895297878 15.550116822907546 14.225286076487421
Mo 13.623354530382798 13.737648392496343 12.340625119528264
Mo 12.03258576199848 12.724721359135431 14.572956868561965
Mo 13.980740254740562 11.36910291051283 10.724920235321969
Mo 15.095980838851341 9.560642340106847 12.320076989273952
Mo 13.967839747753382 8.805821336227428 9.595498810977453
Mo 11.454157815222544 9.971651662625922 14.050620464694374
Mo 13.335239187105929 8.156736693558363 13.337955460676335
Mo 15.048866751955895 7.2531925039503635 11.214509377906543
Mo 9.469465802374136 11.655028311681487 14.284449993274709
Mo 10.195154397006723 14.131916808716163 13.498145209032284
Mo 12.989493801851488 6.755682517274744 11.27330016149542
Mo 11.619649148578585 15.111040727901845 11.7971171582419
Mo 10.970612286944116 7.718767822180981 14.639532831037386
Mo 12.337455470227999 9.617003178536857 11.566064343163674
Mo 13.347015795120177 13.690226355126406 9.861159701749159
Mo 7.15527771891157 10.746739300063096 14.798677968412843
Mo 14.007795957855626 11.127603354063707 8.195988402933624
Mo 11.514514587434904 12.329153687674355 12.052364314755101
Mo 11.60123543162183 11.176124400835626 9.392193623354325
Mo 10.55032029501299 7.796036266264444 12.303066996569868
Mo 10.865144606315377 13.838351746243935 9.707999425462607
Mo 9.364360596199544 10.246679783036388 11.685858961604731
Mo 7.816011049558718 7.629631462107533 11.948490108523332
Mo 12.20146315707576 9.39022204660576 7.5626981390469465
Mo 9.034043051020513 13.526721327019683 11.373620021186634
Mo 12.539518085691638 12.940241974355798 7.642361275135859
Mo 11.371172513040381 8.309060162637268 9.59306354238193
Mo 8.790470582376743 9.124406210209562 13.972113818373058
Mo 12.928579274882052 11.113914339934293 5.525211156016256
Mo 9.341926225975737 9.43232507806487 8.380895483618524
Mo 7.614743817992941 12.452736780258633 12.946718206926258
Mo 8.330985763238742 14.265579857951725 8.575291131825239
Mo 8.724412628651166 7.504148688200851 10.217409160346403
Mo 6.740226312652632 10.122563772926098 12.51101278102821
Mo 7.140493478936357 9.837178101130307 10.05833313532008
Mo 6.809592421816943 12.026706160458472 10.398754559770312
Mo 9.610000226945994 13.744574584045207 7.32545596523343
Mo 10.430629912611709 10.961756533974963 6.9072136464220035
Mo 11.611954758835985 12.45853712118203 5.154004045427841
Mo 9.013593803285023 11.717471326919883 9.263669748834598
