41
Energy = -378.28567341 eV
Mo 9.109369365434326 10.94001240671728 6.534225543368807
Mo 6.840457925811071 12.180915251500052 8.878000730380617
Mo 11.503643639074673 12.436501893329917 6.379574436111069
Mo 9.953424123159381 8.781567293008122 6.981545859224723
Mo 11.963624431900243 9.747878311760427 6.4141566582345355
Mo 9.115320531291914 13.072426326792327 8.04856321162211
Mo 8.245095072754404 10.350761902146573 8.701268699428315
Mo 7.836082013040131 15.060073807278664 9.25905763665299
Mo 9.803536849506498 15.487004683684399 9.476046167654719
Mo 6.979590535729872 10.55002602535368 11.015574409116832
Mo 11.049908806344755 10.88500735074164 8.668966783363933
Mo 6.669768339701159 13.401042025985662 11.43760116515817
Mo 13.20684866646799 12.371917234596683 7.3108443450726925
Mo 10.083885183868896 8.134356061533845 9.472870704774744
Mo 8.009774169123798 7.826107587908346 11.445777846085319
Mo 12.226874239670291 7.63773326239978 8.225611951200548
Mo 9.46322447176034 10.14886637582736 11.18576507794064
Mo 11.527070456912973 13.411129522841316 9.123832885481729
Mo 8.273947391909 14.756011237713414 11.880833667020312
Mo 13.581085490281692 9.636172931428183 8.198111302093396
Mo 9.115530220647479 12.723808533997033 10.444209553486255
Mo 13.782499882602766 11.6457028733672 9.889516930077045
Mo 10.709448124602828 8.028464516989205 12.24936713297162
Mo 7.832061926387817 11.80250100658562 12.798220648274867
Mo 10.311202401745447 5.653822712687328 10.946222706189769
Mo 12.268688639524637 9.34542191652735 10.48063529267846
Mo 10.988164706533402 14.453281079106251 11.69629642697008
Mo 9.112959616685659 6.301802477945118 13.756959198886475
Mo 13.178420915202093 13.645205093834553 11.235974937298517
Mo 11.543402212823658 11.766593687812613 11.499310199332976
Mo 12.500353761920374 6.639975217750824 10.41408378863537
Mo 8.025650779944117 8.861273526904359 13.221566092356436
Mo 14.89335639515598 8.649726799369637 10.534081273485162
Mo 10.174000159978155 10.493023949075935 13.725594040117187
Mo 11.477121201641834 5.6829817896772274 12.725651147509867
Mo 10.093941263645865 7.633864197568408 14.796414707695615
Mo 14.114045487225448 10.840808274254046 12.041832810339288
Mo 10.206175314630258 13.165126360225218 13.697359910094718
Mo 13.979896739578468 7.855321465701614 12.109506071549603
Mo 12.16969945105314 12.729564641503988 13.883347355267812
Mo 12.348478001065807 9.817554091019055 13.392106411152188
