47
Energy = -435.05610763 eV
Mo 14.481165407261152 15.257917093209253 13.559982615731817
Mo 13.67170685173154 12.988371967096842 15.222272306550181
Mo 11.702585088749391 14.994737382564784 13.809949110108688
Mo 15.176257693066823 12.75663762857263 13.131011941370096
Mo 12.04119325677283 10.862904821312883 16.422519279328675
Mo 14.736433974614986 11.252324492409034 15.485709092047916
Mo 11.050365703378995 12.611556489954511 14.428287420970822
Mo 15.016107752097065 15.195512614822576 11.569157918012058
Mo 12.623847952263043 15.827657492960137 11.492544045524731
Mo 9.049070514540452 13.788183163409013 13.274035331532925
Mo 12.888134406079603 13.36409348049794 12.040092205109612
Mo 12.80280219134745 10.950531133174954 13.570859729570058
Mo 10.046943915289823 15.543826555176155 12.20789165365105
Mo 10.418746524527322 12.525547396456766 11.505507095263537
Mo 13.081133409292578 9.206824546221418 15.488398700608558
Mo 15.093086389053584 10.40612518057511 12.549275238066954
Mo 10.380426484478333 9.728676253958177 15.081370595364204
Mo 14.827676446597915 12.327055333729891 10.612993264261188
Mo 8.236805199334444 11.4685001824408 14.952116767426743
Mo 13.712465611919832 14.19914402048595 9.272517420612152
Mo 13.979558403037617 8.31170501497538 12.534006895386996
Mo 11.198454547266035 14.231503454544095 9.955922656556794
Mo 8.47392753161483 14.15452916628642 10.344674767855976
Mo 7.647885844531957 11.807050411835244 12.35023384810673
Mo 12.598804107124723 10.561103588858174 10.989211583200555
Mo 7.654069943364505 9.665236949608202 14.490050870177692
Mo 13.578979138681413 11.509285379628349 8.520083556530395
Mo 9.78636521725578 10.474462560285334 12.77314535792094
Mo 12.313109640751142 13.378455240951318 7.621371823588311
Mo 14.529817037576239 9.527290108025971 9.954150720015926
Mo 9.2909646987174 13.848098359787379 8.215634493885332
Mo 11.697943538179228 8.511663991056883 13.072628844358846
Mo 10.807425953770995 11.493932573256748 8.755667942133341
Mo 8.385160965389389 11.746271574276422 9.997168406739727
Mo 9.099181483307541 7.988642089200253 12.71533650275122
Mo 10.183075173373437 9.34414258171145 10.39321234384078
Mo 7.646116684742283 9.272751892387456 11.24804960000314
Mo 12.572417097632368 10.581943288268851 6.4023767005262275
Mo 10.20188942607544 12.008329223972359 6.171331500546712
Mo 12.239581065156697 9.181584426046227 8.280621118873064
Mo 12.688152992090457 7.781110901938705 10.50868577193366
Mo 8.198576158499671 11.832367325975387 7.285198992626579
Mo 10.672410176642929 6.754076547577867 11.25949077785417
Mo 8.378234441155819 9.563109260370798 8.4853385360228
Mo 8.126197336515757 7.410428128528373 9.951884207423179
Mo 10.175288766983781 9.737264809419871 6.760823784024497
Mo 10.308665509681001 7.536741573713092 8.756414317519882
