42
Energy = -387.48139468 eV
Mo 14.523311299633042 8.27142988389962 7.184158515795246
Mo 11.795100397236226 8.863772424104544 7.117738142335403
Mo 9.960247542102573 9.289329098169727 7.273712240750271
Mo 6.590495943954551 9.758381787455125 7.556099930931058
Mo 11.610284924681109 11.4838995372632 7.938618397542095
Mo 14.254261723935782 10.968379092963165 7.300150081443267
Mo 8.576429131543208 11.49663827783539 8.489044312702278
Mo 15.821975716035485 8.853472486987828 8.626642638674808
Mo 13.583252185865275 7.0020599815202065 9.270320807091563
Mo 6.051782487618888 11.953775362409111 9.034237481910598
Mo 10.944263184762836 7.96389289939001 9.529248355886152
Mo 8.320595734580069 9.026909846149325 9.57563445585849
Mo 5.564678487896268 9.07522431821814 8.988744946290709
Mo 13.35016752379018 9.628086136171612 9.411178929684436
Mo 10.265807398264057 13.112642143503026 9.640445743623335
Mo 13.142057879649228 12.301247164087105 9.695268181957305
Mo 10.768087673579837 10.445486540764662 10.038265113073845
Mo 8.03510392277741 11.4709135040909 10.948753201604921
Mo 7.467675989791353 13.960768312714247 9.48299637152187
Mo 15.532749554119178 11.500537652527292 8.95762671326177
Mo 14.648296267891434 7.699214835913859 10.993661684995228
Mo 12.20799435384483 8.261148861221612 11.591597491466622
Mo 5.277982112880228 10.960017574950703 11.014873459004777
Mo 11.798846479307173 13.70306988682689 11.312194899042298
Mo 14.605282046140212 13.050296706183035 11.969458845720105
Mo 9.455478558614983 9.048588842216187 11.734550828470525
Mo 8.965925409138046 14.058833130425283 11.754935178849246
Mo 6.537456463427966 13.56638695073362 11.38517092066156
Mo 15.17965083716073 10.356011682076213 11.231965059569637
Mo 6.704518205807987 9.242838283824522 11.584656666862374
Mo 12.719254879574713 10.94683940606305 11.971763455228398
Mo 10.30515210651828 11.887178557029365 12.424055881900195
Mo 6.599083192409211 11.53216204165589 13.47835662451401
Mo 14.05341939917578 9.059918842183418 13.273098574983786
Mo 11.061213804821062 9.572541661814636 13.757913959683602
Mo 8.094152855311004 10.458642682119185 13.79096397156386
Mo 8.653146217251923 13.412679056401915 14.305459566145132
Mo 10.422093278910918 14.431318938551131 13.95417409896143
Mo 12.530268794402708 12.881443849174817 13.77740689446436
Mo 15.087576142290462 11.776916554235777 13.47199816401825
Mo 10.487011632118863 11.757675391907329 14.931601716898964
Mo 12.986565377523688 10.448126930606042 14.76995461139537
