47
Energy = -437.28966378 eV
Mo 10.11292923523089 11.514218690519115 6.673249857704428
Mo 12.564901287263398 11.916840403915435 6.780727531617846
Mo 12.36078021873825 9.793776538331402 6.033440210308335
Mo 12.89207865170598 14.90733474612584 9.819411929828831
Mo 9.923611093201242 9.18158109138062 7.059040400976281
Mo 7.496820266415069 10.539092674551304 7.029044163129096
Mo 14.320246144788225 9.705500186198071 7.536983778832723
Mo 8.59496753245638 13.545245888854735 7.926840068050544
Mo 10.883167869524776 13.3425860984767 8.512902795102212
Mo 11.01392290025141 15.345535941788242 10.3515713523931
Mo 13.493563988970152 12.293507257051221 9.44212815642566
Mo 9.263596411029203 11.09082345039908 9.137332325936676
Mo 11.883185605161914 10.357692015226865 8.86605391151805
Mo 12.862859405324983 13.777336583636291 12.091876174494711
Mo 9.776860585542897 8.291963882362264 9.60483937889904
Mo 14.915706209115092 12.655085257193047 11.462970752022157
Mo 12.20594271017276 7.911843737926541 7.859401988688429
Mo 7.330301876085199 9.09495004769288 8.315712298415008
Mo 8.604140334510664 13.475325242847727 10.353536744775813
Mo 6.912033079939695 11.813475667769488 9.429530380819042
Mo 11.051600150707747 12.448598143119009 10.856913550083672
Mo 12.648876610942565 8.337282953506575 10.56090616280499
Mo 14.559919315783901 9.946395718449342 10.019764658755122
Mo 14.360947059650927 7.609767283218831 8.636387286809333
Mo 10.040978515548149 6.1970309089360756 8.180249828587204
Mo 15.797766535964417 10.067897117052302 12.351126661773979
Mo 10.15592512168355 14.327170084155803 12.774395703545983
Mo 14.351634263093498 12.147228818730012 14.015218380214108
Mo 13.075451850570165 10.894633274624061 11.870250219836965
Mo 8.105260578461714 14.605653039646887 12.810025802722754
Mo 7.969688905395298 7.351476846872222 11.136007461110765
Mo 6.589674140456845 12.262426225883472 11.993605941598522
Mo 7.684343022100527 9.804167989099632 10.969445439315914
Mo 11.412231053194855 6.000542504899059 9.555765873067516
Mo 10.473428977518903 9.90558348915194 11.596648942004675
Mo 11.517860217284488 12.067637201086502 13.710507164442033
Mo 10.283095955722867 7.085783043195024 11.897809246377447
Mo 14.584091397184142 8.560453454040191 12.56311207962935
Mo 8.854997428357393 11.775814365459789 12.632560624492603
Mo 13.389499001032615 10.483785263543782 14.566914553237082
Mo 7.023806324664387 12.838745563194463 14.503603445275656
Mo 11.86390877431348 8.572499273059888 13.299195143872312
Mo 9.167872170681964 12.914481854258554 14.950919586000909
Mo 6.6089112934209275 9.950985989317632 13.299989346224974
Mo 8.751589691045883 8.5689327779351 13.200246262579444
Mo 10.376253147165468 10.070634345852158 14.52715840616835
Mo 7.827574158925474 10.55063913782002 15.095980770527731
