46
Energy = -427.49544662 eV
Mo 11.171238305642614 7.149486321976895 14.756456929953721
Mo 13.306146786363827 7.071909543535772 14.541259561797018
Mo 11.623232722121012 9.806795601301879 16.199508795390635
Mo 11.567955686099703 6.654308765642129 12.230141894708787
Mo 8.941474513024511 8.13304022430825 13.066214597974799
Mo 9.118147842437468 9.42934814979306 14.560339982242722
Mo 13.28502241917748 10.344396665689601 15.52254395943911
Mo 11.796739927645174 9.149982676416833 13.500174186079015
Mo 13.903247220374345 6.713693791938766 12.067012751391086
Mo 14.330093218582375 9.112773370807005 13.167161393469517
Mo 10.904743751938542 11.604969061154184 14.278077741218553
Mo 11.860276581640989 6.785165221360009 9.75684855290963
Mo 10.094156580172935 8.372185095393636 10.49697089263569
Mo 7.748798684348004 9.501238261162984 10.516895699670538
Mo 7.226323682752425 10.634042688194167 12.80506727533542
Mo 10.040355125157554 10.51414910188152 12.06083365862196
Mo 12.87004996714321 8.894696915199516 11.06289643264601
Mo 8.290472999706227 12.141548054754523 13.7149794639788
Mo 12.916950063967436 11.609467102163551 12.74324769045368
Mo 15.680687997444446 8.469305852590649 10.78028613885613
Mo 14.565704249604021 7.4845398050520435 9.453328529645354
Mo 9.102461859795627 7.877033762683266 8.275232873876226
Mo 6.017613576212878 11.144076116589185 9.787204504391791
Mo 6.411875332948558 13.402802793916063 11.855480031776366
Mo 10.560633120691715 13.175706786246069 11.973035445636079
Mo 11.836037674092413 8.926749694411328 8.388826209528846
Mo 14.14753190052809 10.083214793108974 8.913253091920161
Mo 8.339356302057231 12.162297924113576 10.805923442078509
Mo 7.111191652122372 10.211656750254257 7.99486698739104
Mo 11.81078567755446 11.1572082105154 10.203275633594295
Mo 14.55961903885889 11.10354200675468 11.191714779933083
Mo 9.858123670799982 9.281085986234498 6.81292004701417
Mo 9.515616892398622 10.660715556615168 8.88935332627124
Mo 8.079814968239264 14.560165832326609 12.3386608702082
Mo 10.577280525408243 13.307637473666855 9.212213820510451
Mo 12.835799807321418 13.570203434385888 11.027975311927026
Mo 7.547670140265265 12.559834640359147 8.392422235708784
Mo 8.449423898287854 14.671356675611435 9.878980557125843
Mo 10.686002084923732 15.613998823813489 10.79198079967378
Mo 11.879758747630127 11.430496681620765 7.431605894419572
Mo 13.73382133417729 12.452113400871756 8.71307600708797
Mo 9.410546754879007 12.383880216273447 6.561638099579493
Mo 9.323189974147152 14.38749718395178 7.009393980337699
Mo 10.702260429717143 16.103423181570463 8.787462508869542
Mo 11.89282487609054 13.774306309161787 6.948277552141701
Mo 12.856942917495276 14.852652144099947 8.836827694315597
