42
Energy = -387.56350474 eV
Mo 10.497534616332432 10.460469459979157 5.067995058801852
Mo 8.587157837680191 11.062126524962471 5.572936429723897
Mo 6.588729760653434 6.785432358341191 4.83540564272032
Mo 8.831776332920805 8.424216763452854 5.577147806072954
Mo 6.2017635019433515 8.768856087967611 5.502723714647549
Mo 10.680068016031646 12.420432080629865 6.950780842250933
Mo 11.644015224567255 7.956764158475623 6.27888892066353
Mo 12.834465556815672 9.453372777020622 6.715724536233725
Mo 9.244180956328103 6.132492261271156 6.347401405621909
Mo 10.351889525437336 10.144405793266513 7.694671643560969
Mo 5.388023492661249 10.775952451567978 7.5995150367682855
Mo 4.822075296733702 6.257359121653106 6.542041032700934
Mo 7.576821997830343 9.64741375535646 7.747058650472213
Mo 6.224127483084878 4.63316299447129 7.5165019602141765
Mo 7.8709179431941845 12.244233642412118 8.205953242283861
Mo 7.186044925327917 7.04939318746681 7.396342465795242
Mo 9.705797210873424 7.503811874919327 8.24355620588342
Mo 4.934077421952692 8.341905177458814 8.133018990416723
Mo 11.604090931087251 5.607887702270467 8.218100787299443
Mo 12.27274799649382 8.332324971195892 9.100053700860753
Mo 12.70781838565514 11.254069427125545 8.713691458686077
Mo 5.643765265247665 5.7750419013739265 9.252900595555714
Mo 10.2446312154574 12.654961683288533 9.162417052556517
Mo 8.503147383388933 5.489716381980817 9.513556612546049
Mo 8.481428054931715 10.341412188289889 10.202616475161506
Mo 11.388272675295678 5.921331255108 10.112642874626564
Mo 9.734501679789135 7.873253764294396 10.908044709223079
Mo 7.633899627785032 12.821863742510702 10.23420119473327
Mo 11.025693001027637 10.273720396065551 10.408728884796005
Mo 5.828415352079372 10.452952653557167 9.891253994123039
Mo 13.701952614604163 9.84611651063811 10.260943035861624
Mo 12.06283739067511 12.676558680242808 11.15200996510715
Mo 7.117568390705494 7.902082760337974 9.99375703454287
Mo 4.857127517676786 8.324283446453261 10.59501085755869
Mo 12.062102956893215 8.258280605704078 12.102984165583631
Mo 7.987048512429879 6.0392971541448075 11.533739115722542
Mo 10.01335656717639 12.467508482654761 11.809776918241718
Mo 9.966309280603616 7.597846043231616 13.214047514235506
Mo 7.421950912168907 11.108548806364263 12.585930018235834
Mo 9.88341565843073 10.01562479474516 12.940734984018574
Mo 12.273723305876576 10.628648766997864 12.587627821872639
Mo 7.275814864567377 9.135954051166893 12.438653284435114
