43
Energy = -397.48950095 eV
Mo 12.687907307153905 13.073986506558171 15.62067317231515
Mo 15.031174578203347 12.221177305640905 10.526856730505068
Mo 15.139142841853731 10.334788875086314 12.075887674829314
Mo 14.20130877535091 13.00925675111862 13.016379390441434
Mo 14.006539600190196 10.695267332399398 14.253113147736792
Mo 14.908639183537304 7.717414253025665 12.400246032898586
Mo 13.38675296621304 7.949683951163974 14.949004063569955
Mo 11.181749072287662 12.613810742506523 16.60974652759606
Mo 11.85612769263832 10.296250450529048 15.249501441745755
Mo 12.377981049969234 14.471775344833922 12.919736705451253
Mo 13.527218001881096 14.211886643731988 10.493933078010715
Mo 14.341428599483272 11.157318448198717 8.305169103117588
Mo 14.183085285102472 13.701894542267318 8.160534009653214
Mo 10.178184222586045 13.927549077877813 14.39991804321087
Mo 14.401587764141805 9.30183997894163 10.068207516033686
Mo 12.638802144093162 11.351001349006193 10.678322615915308
Mo 11.764477147276917 11.968009940812394 13.03619036825545
Mo 12.62364388511626 9.170920875990408 12.570879958024783
Mo 12.523377585467237 6.606937212744641 13.81512081490955
Mo 10.618761694592836 8.449122400930467 14.002322879313864
Mo 13.525448252889136 6.785180655074952 11.260207964492746
Mo 10.407117664354391 7.411407002887001 11.66717936562929
Mo 10.148512677889755 9.97665917863191 11.663591875950056
Mo 9.65801513124413 11.238363567921725 14.386697297466764
Mo 11.654033335660948 16.427736449019317 10.753918610461419
Mo 12.084235257715399 12.94106754328508 8.321828419248591
Mo 12.03189176243867 15.753478356281116 8.944017493849588
Mo 10.953342762253508 13.709071067731347 10.750544907987452
Mo 9.533772715369135 14.929217669357183 12.590285399450082
Mo 11.973142808822741 8.388856679611516 10.014252496632253
Mo 12.015828068767057 10.368290360456957 8.42756676645678
Mo 8.980441013941187 12.48261137866634 12.346887946134672
Mo 9.756278955215924 11.684833029323404 9.486147649690734
Mo 9.628671969535537 11.166020070889036 7.130488851968398
Mo 7.728282751412527 10.760150211700825 10.51616776606692
Mo 8.410137901119146 9.480230606594736 13.154861046159846
Mo 9.284775941856049 15.727386705874652 9.790716379605373
Mo 9.634721087465186 14.241734677628457 8.293203653903783
Mo 7.744883828637675 13.613893595527218 10.342231829606547
Mo 8.101855140480428 8.185375391320157 10.844057575188405
Mo 9.528316273381268 8.90189411480228 9.18114603138796
Mo 7.808255354072129 10.261645702332633 7.999418283850134
Mo 7.317341264741046 12.876016144009554 8.480146310357018
