44
Energy = -406.18454925 eV
Mo 9.01422165127966 13.699294474199698 13.751151655858626
Mo 10.274380670224964 15.358641208623697 10.2693753250731
Mo 5.927814229860098 10.546434952478535 10.492514942268794
Mo 8.144296591413502 14.008447340006827 11.570334526115474
Mo 9.44097452567156 14.141839241317168 8.971141452973594
Mo 8.599350561750246 10.927641301757255 12.61827335405327
Mo 10.900249120171821 15.056827784308057 13.090084445119313
Mo 12.955973042448385 14.6042348853768 11.174107001891963
Mo 6.764990815508307 12.384008021480472 12.409289318960315
Mo 11.521066238027002 13.877523607461736 15.060193919322854
Mo 8.328474965760783 11.630217166544336 10.066831841656922
Mo 6.483369371132328 9.917979273797327 8.747183975242846
Mo 10.871543072129013 11.94539756552839 8.695618969108459
Mo 12.332447651271345 14.173693831732908 8.682731310228446
Mo 10.610845265395852 11.654823667324285 13.891611615203582
Mo 9.853310044058636 9.43626213353755 8.72487261065063
Mo 10.528645868545873 12.951705237171021 11.456950808233223
Mo 14.246983461757038 14.09149813093569 15.131097795861416
Mo 8.033449627893043 8.936878741327284 10.665852709880596
Mo 9.06185064573699 8.265528242546065 12.719373364713036
Mo 8.64998483563141 11.526805628711264 7.700620258732835
Mo 12.806886203981245 12.966951989431086 13.13566138169776
Mo 13.64754818224005 15.5149887533288 13.923323278137529
Mo 7.980747020235648 7.530802039292396 7.9927193402255305
Mo 10.80356679578625 10.050199924646728 11.056988078738668
Mo 8.159697463345129 8.760948669652059 6.659967723682488
Mo 12.87316836920714 11.818590061193273 10.439653044442707
Mo 13.485704903853428 12.593637386194938 7.911935807373187
Mo 14.851938411564467 13.442260910132381 10.049404062691913
Mo 12.712876920846334 10.938263293377721 15.214534328516509
Mo 10.16327598712694 7.227033242263543 10.204571819910385
Mo 10.77058797625081 9.147585551469927 13.959566305531505
Mo 15.377735608989061 13.787143251856673 12.455738169261913
Mo 12.362580269529944 9.924958382501973 8.35410278780579
Mo 15.24475022967908 11.872521520017779 13.682426050522212
Mo 11.761032858214634 7.8127218373641 11.975353665483892
Mo 15.36271735021233 11.227777118673774 11.182960338465756
Mo 13.38425515507436 8.163570883413293 14.369093098602777
Mo 12.06453832934923 7.477542264737961 9.176888044556687
Mo 14.732275603239588 10.39236836551168 8.917985537881696
Mo 13.0895897582551 10.29970045824133 12.848289472473102
Mo 13.62593533717161 8.959625266037436 10.585983337806324
Mo 15.22227837899473 9.100309539765426 12.58930096322668
Mo 14.719072434604364 9.601798658149013 15.171323965234842
