47
Energy = -435.9807231 eV
Mo 13.003013511953005 7.380089949053376 14.181384475847594
Mo 14.148729436007507 8.90986357547967 12.148946307865959
Mo 12.079278477698582 9.087427953131513 16.03819457165374
Mo 10.504602926174847 8.099906252629824 14.955839918543033
Mo 8.496285749769768 7.752013470829545 12.898472929690655
Mo 11.659567115075749 7.54268635062293 12.441026554062297
Mo 13.457409412001816 7.490266427392713 10.176787485365562
Mo 12.538245410297378 10.050685244757412 13.676237449208406
Mo 9.54660839152586 8.766929281926643 10.2544600379141
Mo 10.266038654535665 10.76218523336264 15.15289691475115
Mo 15.827974519912088 10.64139966345414 11.205288630937302
Mo 11.418366366156086 6.970555647438654 9.737465914612121
Mo 7.881480141765939 9.128336228340608 14.233101928344167
Mo 10.076388046880174 9.80786768251285 12.730716148233357
Mo 12.82166599413484 12.086313245891775 14.978848267861954
Mo 14.176992487119543 10.246171431220787 9.522839024242254
Mo 9.652109029155831 8.286204156494684 7.366108131859407
Mo 11.84566521428697 9.767573796785818 10.796812390644092
Mo 7.434152425936655 10.082443445322381 11.704209174901331
Mo 12.115034052371714 8.824037670607018 8.208406276339128
Mo 10.523213789158833 13.170141079242477 15.195117839900785
Mo 13.867706213673957 11.687598630611648 12.128283901205593
Mo 7.657617852198921 10.086913950680522 9.165228642102422
Mo 15.26084248944464 13.356794731831316 13.653183706040183
Mo 10.284858830519875 10.755435345438585 8.26244309066757
Mo 16.117627767899776 13.374426052928975 11.953505646975232
Mo 12.933692851124109 11.184643802458375 7.495189118511178
Mo 14.688804740293214 12.765346272726042 9.415864610138838
Mo 12.219045209134213 12.259600197734871 9.763385315012966
Mo 8.646494299129726 11.924962104051122 13.473964738518184
Mo 9.502743603463436 11.602880349290839 10.678766574893501
Mo 8.035498159889306 10.51888035242734 6.440188685859474
Mo 11.184977729263206 12.586315246044178 12.43830987857385
Mo 10.600510209904666 9.320889843619199 5.968052022357133
Mo 13.617726108748986 14.261105122418625 11.39730887969894
Mo 12.452361154397916 14.204057507774058 13.816255620348029
Mo 10.873566629642365 13.29022566867874 7.559749664042906
Mo 9.878657257866204 15.706946146167455 14.228443650820576
Mo 8.290987875683795 14.491484360666195 14.328475254283227
Mo 13.426746444636542 13.598911053969843 7.555387626121926
Mo 7.1937661919363896 12.383927776042386 11.35189920265443
Mo 10.140473613313508 14.056971877409795 9.620542539211813
Mo 9.290055507246226 11.847877059666576 5.853467579447865
Mo 9.01001287227615 14.215052123816145 11.930999990925091
Mo 8.272953580949581 12.373405044956943 8.581557136958407
Mo 11.120355662833974 15.309613204260245 11.974520764810887
Mo 12.512210219458439 14.965303572030923 9.474024238644406
