43
Energy = -398.2119072 eV
Mo 13.250261586604033 14.817111576881022 12.458559051610614
Mo 12.125777512761735 13.393599183582326 14.641611772351327
Mo 13.825680778691014 11.993937858048378 12.68509862638323
Mo 14.819648073177166 13.048613930162732 10.919551317502256
Mo 14.936199822915023 10.09472230439557 10.935581287442037
Mo 14.053562662990464 9.090160043413226 13.439292220740077
Mo 11.138037252903507 15.258072765909734 12.508545569213984
Mo 12.688199497532446 14.434817779523199 10.053996852692618
Mo 11.697442091453867 10.729749159145543 13.937954347762732
Mo 15.27261876746918 11.626357118591558 8.442681542476606
Mo 14.268799167209988 13.120937730624911 7.911418793236216
Mo 11.473378426197415 12.750899204880055 11.919437355662565
Mo 10.227014553108162 13.193800588230943 14.378385876061673
Mo 12.879155733659424 11.753968762946094 9.937544319725404
Mo 13.786827039605987 7.731358135387344 11.967024528509478
Mo 12.131018408994185 9.853055258172525 11.580858448016148
Mo 11.516245115840407 8.019718154161199 13.539817799530939
Mo 13.917934461120945 9.146087122388888 9.401900926452182
Mo 8.759312681861099 13.631253837128344 12.063859509656824
Mo 10.358201198644434 14.418351876537843 9.98040278738744
Mo 11.331748768560995 12.729333178943047 8.039371085674004
Mo 12.73536478163229 10.746766654326224 7.404451216405679
Mo 9.866418554150615 11.808914614779578 10.036826991689251
Mo 9.679362426251044 9.172886747426004 14.328894977294828
Mo 11.156929426580268 9.700561068171858 8.89137918667594
Mo 9.414312240010778 10.952758624345307 12.504076167694167
Mo 11.660060918386607 7.3729846040260565 10.129481325546104
Mo 10.687324651815707 5.972681397324675 12.199998884565394
Mo 8.806710404414481 13.048682376802388 7.608239100921072
Mo 7.811818137193682 13.747088025261862 10.000139549235492
Mo 9.795801638334819 8.544640788852325 11.562906025292866
Mo 9.032969383657537 6.664431532171407 13.172623358335755
Mo 9.27006770965741 10.986535223380734 7.367809408312496
Mo 7.224732506822573 11.623795934648474 10.962381576229316
Mo 9.38772985662675 6.846939113122007 9.473981324543612
Mo 8.348125590739569 9.481486364676512 9.541490168434091
Mo 7.035346604076097 9.128493555152774 12.086589939230542
Mo 9.75170957580962 8.129292230195441 7.610201245957239
Mo 6.607415653857237 11.36154946998547 8.524131015977957
Mo 7.1229844609970545 7.471680179626966 11.131069391713327
Mo 7.142158709066078 9.013853089321174 6.966784666560914
Mo 5.72429725102127 9.710351345933535 9.426485834077527
Mo 6.962047717422783 7.502401342314697 8.118571343138678
