49
Energy = -456.18139775 eV
Mo 10.533212431068579 8.079684813904775 6.622770092271267
Mo 9.496625545371566 9.716483927639066 6.56177836793049
Mo 9.693300533111152 6.680817211622106 8.905591931974982
Mo 8.289685473926994 8.249908087400351 8.61621502881422
Mo 8.225826113654493 11.03443136521805 8.819157851192921
Mo 13.249424697435726 9.297727628224225 7.242386047655332
Mo 6.509494570281019 8.478592801102243 10.74653161137311
Mo 12.163560010791477 10.820095596959835 6.5843625109370905
Mo 12.197097961477484 7.426662233882158 9.057204587737852
Mo 10.817213726380613 9.465329627197969 8.986152438627593
Mo 10.298409277053699 12.295835167010033 7.998819521897907
Mo 8.112706985366822 7.211674424999086 11.271049161611748
Mo 10.993173752426141 7.451777506391497 11.318732697872921
Mo 9.092697041713677 9.574388166727323 11.049291108258393
Mo 8.061487123631167 13.432414431761941 9.499194898300305
Mo 7.115988238245266 11.101365544708361 10.945672520660874
Mo 10.000850254973562 14.468030958347896 8.810071445972865
Mo 13.636576627288076 9.248127674563802 9.985899946043073
Mo 7.4335667255301425 9.27668859904074 13.140115921108563
Mo 14.616225883559016 11.526012861776177 8.037712368277576
Mo 12.786037547300005 13.348914046312535 7.824163449111061
Mo 11.77247229844422 9.856707370975707 11.838045421813533
Mo 13.291442760487724 7.442495309246452 11.867618404050999
Mo 12.463458809965447 11.436248272310634 9.475809776333357
Mo 10.073992196433123 12.14226970035926 10.730234110312812
Mo 9.782679620084751 8.432126684959487 13.534792562465645
Mo 16.78225621007859 13.115368516458851 8.929532711528411
Mo 15.170947000736742 11.445064939019185 10.514671916294693
Mo 14.198780329940538 13.691672222030657 9.720763767981628
Mo 9.810275662031172 11.031207230548631 13.396160152554168
Mo 7.086128647519207 11.537019837177354 13.708349494889498
Mo 8.118592996572824 13.119692514808753 12.343912475083071
Mo 9.473967191813482 15.290245378036472 11.426096356916656
Mo 8.716184259547921 10.066591791028484 15.66389772602478
Mo 11.865124855996156 14.230195118980742 10.66640914374646
Mo 10.622976293661711 9.62373443162396 15.764583597024181
Mo 12.362068365666069 8.389821374763912 13.838164443023674
Mo 12.83694156465739 12.20416561819499 12.042662074963502
Mo 14.497123040464572 9.914523890730726 12.769565961176214
Mo 12.55400589498128 11.065762803887617 14.328991759834631
Mo 10.829482605326962 13.521020714854163 13.250316691384215
Mo 16.84990802262778 13.429576469131659 10.77510272866198
Mo 8.85909566810761 13.077868993214402 15.207790308175046
Mo 10.62532927750236 12.580700985170957 15.793343426906755
Mo 14.270254275659724 14.27755707136718 12.372344780779963
Mo 15.210014835329567 11.80919404987179 13.17607662120691
Mo 9.051054684945795 15.457618995429058 13.34456410978875
Mo 12.141911080817799 15.569652872575892 12.858860488505725
Mo 13.093569205564071 13.783780807676182 14.357687596667947
