47
Energy = -436.28271524 eV
Mo 13.210876519882143 12.049193672939376 6.845147993764115
Mo 12.206014233267421 13.87791504360987 8.170867043724096
Mo 10.0220573024445 12.943722235776708 7.101106723319998
Mo 14.4720189829532 10.774339106631542 9.003848690930221
Mo 9.397019399792796 10.261087785741415 7.92550066830857
Mo 12.363658532027936 8.77399879050471 7.617288460491187
Mo 9.551440206444425 14.675469880723812 7.984762994435481
Mo 8.505143178121944 14.72388444075289 10.708843622786201
Mo 11.765587536491724 11.13070323932312 8.788075237206828
Mo 13.137616826518896 12.812451712981385 10.42534062267706
Mo 11.343769767772896 15.229998048592105 10.527222065720403
Mo 6.82826782392431 12.527737053602507 10.824644659169987
Mo 7.681153436312062 12.539216468298132 8.919533190141046
Mo 12.214231627475854 7.007324692040662 8.44702692973395
Mo 7.476073829071677 9.961447419979638 9.367521512974694
Mo 10.497882332475358 15.265514101046167 12.690315710759995
Mo 10.20723614815304 12.96588668402991 9.98748113745451
Mo 11.335663559036503 12.938026898487092 12.42933205156371
Mo 13.303653378776175 15.02526915980689 12.125366596445025
Mo 14.48112079220623 15.198022953025523 9.823518760219216
Mo 9.72547689067179 7.625872367715763 7.16507833502432
Mo 7.384958840478575 10.069049772801302 12.42224080000139
Mo 8.07086191787918 7.680460074088061 8.13611108318065
Mo 14.736650653315658 13.041831978464042 8.020029378215973
Mo 10.276899698653294 8.701939347604508 9.765932950563702
Mo 8.664944239979928 13.392196583940459 12.488277496834543
Mo 9.044725089055337 10.919997864022399 11.018352595392022
Mo 12.214591016354165 14.260943575546724 14.809025161256804
Mo 11.747662547435063 10.572277292927993 11.483449704454397
Mo 15.624759215222651 13.917412762008874 10.777353595848476
Mo 7.778967302714854 7.621351124597336 13.717250585133566
Mo 9.808194030441717 11.058509424823917 13.710050908111516
Mo 8.328372539056422 9.22868277953272 14.802102402617317
Mo 8.127376326156643 7.980360974689827 11.012619248619734
Mo 14.150566209152224 13.11241703100576 13.120083923649057
Mo 10.579288070509893 13.400092518588277 15.074289598674277
Mo 12.592220403184852 11.358112619567466 14.198030882343103
Mo 14.579767663635032 11.18948930673829 11.494470331101052
Mo 9.877812015805652 6.0282695568905265 9.893118322342008
Mo 13.325688812731025 9.020689468725568 10.052010632537804
Mo 10.18457329099061 8.689822018327447 12.669830873032906
Mo 11.415072865186215 9.379796618805491 14.903334410542314
Mo 10.248607766150792 6.932914240200256 14.910237597166578
Mo 9.67235636450361 6.086112036877249 11.977398841540708
Mo 13.015770656724941 9.084591616984012 12.905949741952599
Mo 11.925222300456596 7.239479121671506 11.251321175144277
Mo 11.886996395673762 6.6944733386363175 13.960070012179756
