49
Energy = -455.30878088 eV
Mo 11.3442338026388 11.778517269487685 5.508734858273708
Mo 7.697909972065978 9.740959079723298 4.762483657664937
Mo 10.452686117141752 8.262543701208235 5.51202558954856
Mo 7.312628241372411 8.49586881615172 7.06142285425267
Mo 7.9512516089903 6.617450525174014 6.083268606301781
Mo 8.496216043675577 12.76784552803858 6.171887651271112
Mo 11.93701073655215 9.850620175297777 7.532806147982571
Mo 6.632792963981444 11.05638497750368 5.891820969553962
Mo 12.41763737838588 7.721575550518199 6.458997377835683
Mo 11.34009903482838 13.614000994769336 6.164163110761324
Mo 9.356724010152496 10.235837626288717 6.561059400120709
Mo 7.553170790649889 8.192942011763646 9.725825171484475
Mo 9.93226980334141 7.686772195288434 7.785889948760647
Mo 8.063432435687464 6.013615748981343 8.278605070102968
Mo 6.335282156865568 13.474032537895617 7.602940559955891
Mo 13.723394616617256 9.770876529254801 9.470230720659007
Mo 10.685969847112766 4.945610717801629 8.686286520945405
Mo 8.086655502840125 14.198190241824333 8.393360867760702
Mo 7.490899588765641 11.121702757509624 8.555111554608697
Mo 13.14287648636133 12.208087964210122 7.932586778402811
Mo 12.338812309719094 7.4481836149992 9.014832571825961
Mo 11.625294671798494 13.942822999691222 9.19241993513994
Mo 10.124291261263489 12.247122160927244 8.029218884257368
Mo 9.61548214015703 9.815230665560126 9.540218562129677
Mo 11.654605023009239 11.320352007298947 10.02414504353028
Mo 12.318644841898358 6.01679493251648 11.266739163590184
Mo 14.189410130827785 12.082892277912155 9.88005525765796
Mo 5.329678243207982 9.905391642490695 9.856048844472857
Mo 9.881935997422492 6.86598575252205 10.397217240946357
Mo 9.210035476858076 12.720216328395699 10.460354304140893
Mo 6.445375213371723 12.504875728807601 10.106214998618547
Mo 6.15514764224951 8.211660411851392 12.177506579880577
Mo 9.630329256823387 4.196888733313582 10.052460168902764
Mo 7.623018322955783 10.625362306649212 11.411160327488737
Mo 13.733547804679915 7.6636769789573895 11.614847277315615
Mo 7.241025116900358 6.217136949466627 11.256609517089919
Mo 8.927546430624941 8.513741265146422 12.144109675236281
Mo 11.557065997350776 8.810866557984278 11.036821626198703
Mo 11.413140154586479 13.359741438079347 11.419320720250912
Mo 13.228665020603847 10.774568811012458 12.310316830149013
Mo 4.997455386399246 10.731370255458513 11.663146765371108
Mo 11.132601952819806 7.154147080283739 13.100663563004845
Mo 9.21758483868954 5.754566298692111 12.59351337513288
Mo 8.487430183558372 12.469936933836504 12.754988409296745
Mo 7.49945254017033 7.415604843087079 13.921362020559588
Mo 10.29592489013746 10.830860531794757 12.547709203062206
Mo 12.657259134636233 9.535635422395773 13.591778725218408
Mo 7.85486006278799 10.003898774421554 14.121202357002689
Mo 9.8403802579961 9.286174789288241 14.554652077811964
