40
Energy = -368.17852082 eV
Mo 8.44724008817499 7.702168914795638 12.626232941024423
Mo 10.250616723895138 10.800322354383715 14.465115539615056
Mo 11.586869558807814 8.560464663803335 13.345502299580554
Mo 7.64953599158559 6.6281494940750605 11.211150816060819
Mo 7.966129238526859 12.007577531383765 12.46385656118009
Mo 13.106646496610553 10.111141756028454 15.334865812441407
Mo 10.629705055609652 7.23947877098777 11.120885364539632
Mo 9.314547608504071 6.635715269788134 8.387511832933086
Mo 6.742680729534423 9.438367986610634 11.066605754392047
Mo 9.761510125319656 10.104853908718763 12.077062097339281
Mo 6.455377623907328 8.091138433669673 9.029166809522462
Mo 10.326799513255958 12.685944939390161 13.348510197965174
Mo 13.290831330235966 8.039351936408694 11.816534442590116
Mo 5.690972615529555 12.259187335712221 10.740587866114415
Mo 12.787757640633926 12.683109719305214 14.330726484562568
Mo 14.28016020705366 9.219686458856717 14.208075471286374
Mo 14.83582256029898 12.135423989337374 13.4633400136006
Mo 8.924840727381277 8.683297968471015 9.997494796549255
Mo 12.474209727699217 10.842348979326795 12.65323450717719
Mo 10.841154700227452 7.740600402242052 8.160697793426126
Mo 8.14812925731368 11.242608496387344 9.760327465213969
Mo 11.733753532768349 9.300753512403151 10.401678115372478
Mo 8.3383795738904 13.610379219086353 11.00784770734668
Mo 6.112819063249939 10.330410666000994 8.548740771493517
Mo 8.146749801491957 9.130462864107269 7.569767718964145
Mo 14.705276817300476 10.259120600392585 11.471703388860574
Mo 6.170306215767123 13.09586466728636 9.127064442858169
Mo 10.497583531076964 12.244278092788878 10.746404321878234
Mo 12.948089264159862 13.61570382691546 11.893589260094538
Mo 14.150875754239138 9.288273814417735 9.257322037956072
Mo 12.908040176154952 11.74394491934926 10.010454074872195
Mo 11.686269247235659 14.474949654243334 9.77797843885657
Mo 15.05216442232859 12.900039083621632 11.235048389965362
Mo 8.614451311631418 11.93221888262456 7.0557331847978375
Mo 9.139021374628124 13.376350494468404 8.242455111610111
Mo 12.691402054644758 10.329576541185624 7.312301026455061
Mo 10.321439782569945 10.619249395883053 8.45827418710511
Mo 14.623647481812132 11.204588898410899 8.14017326883999
Mo 13.679776645376466 14.12383530383965 9.144605747528809
Mo 11.860021332242118 12.596119968168768 7.862929036569288
