48
Energy = -446.33007601 eV
Mo 16.26476036046541 13.230302078817298 13.401262110096035
Mo 15.92208851310369 13.107089730809072 10.447319499595341
Mo 15.629252016800125 10.553286113658796 9.525118189610298
Mo 15.822932429202536 10.977238088030651 11.893065836654463
Mo 13.942592534555809 14.73839156638824 13.860180110380057
Mo 15.102593446008088 15.166489640494213 11.593977192600565
Mo 15.088349147377635 12.046063146807493 14.417476477651462
Mo 15.010903568240575 8.39660611526021 11.435915271358501
Mo 14.576072574164419 8.12002849315415 9.503988244058363
Mo 13.84316838722231 12.762797584398486 11.945025512937901
Mo 13.931310137256489 12.625295517151688 8.948554041574003
Mo 13.874716777403027 10.297001480727548 7.382049798910587
Mo 13.50573683807283 10.054480884664162 13.190994034283696
Mo 12.400293681715633 12.785534550185083 14.265241453617575
Mo 13.492707852351334 14.892641965714649 10.025933115433824
Mo 13.308260719982034 10.536824977607406 10.519401838120247
Mo 12.243433811180267 15.054905399843907 12.314130248955646
Mo 10.843881557262995 8.763669464233523 13.546879960854655
Mo 12.216512444227194 8.34027324221623 11.232752079107149
Mo 11.348261337893396 11.115663292434808 12.584919846709793
Mo 12.020313823924399 10.344471902232828 15.25731785070172
Mo 11.981486514621352 8.644117588352328 8.72487272887293
Mo 11.462853091088986 12.956734095819495 10.608722700236731
Mo 11.51690537060992 11.197350691212367 8.446942947597835
Mo 12.988252104803927 11.872400043198576 6.434206786896821
Mo 9.051813159484862 8.992661557478746 15.222496853777562
Mo 10.316194825717496 10.030643027383519 10.475529418860846
Mo 9.806791609477942 7.3894569090163165 10.19148278472974
Mo 10.29436421567826 13.792690628524687 13.285641471934548
Mo 11.280997433443412 9.463742375710282 6.265509320522308
Mo 8.824294266623642 7.011033858819811 12.994793373186159
Mo 9.297240498685133 12.533043727750075 8.78007250397462
Mo 9.844397229473529 11.280663567327524 14.668155940811081
Mo 9.7786639535402 14.864689044286546 10.66729228559192
Mo 8.972778428994841 12.347403223397372 11.58733800150973
Mo 8.56562516271654 9.83668863953512 12.596512869301446
Mo 11.428417624797222 13.876259135940716 8.388451554933027
Mo 9.189833362847242 9.579429894853295 8.275281611787248
Mo 10.137459420614666 11.115142399284515 6.264663850125286
Mo 7.610529075753641 14.468831346172996 12.833267543074985
Mo 7.040921108645369 7.601214993082981 13.327991446960079
Mo 7.985239204466051 8.145506310416048 10.484181710463405
Mo 7.17422392937478 10.12490813525004 14.467458926849842
Mo 7.691084957630979 10.814103793549696 9.844522560510939
Mo 7.718867607591477 13.200090095071554 14.1976804188428
Mo 7.751889979463752 13.937488861014364 10.031929635734729
Mo 6.3762601823923415 11.64249050968359 12.167108375120772
Mo 5.898675667941803 9.788596987324992 11.672358136455255
