43
Energy = -395.2660099 eV
Mo 15.48710609488086 13.478269734510025 8.148732393885096
Mo 15.961554176397502 11.253992221681232 9.668881690520553
Mo 14.455601975602837 8.46762181172814 11.16504682567976
Mo 14.329167875056285 9.550516985396527 9.083799802065506
Mo 15.491798192263222 13.631611034927253 10.441570112114531
Mo 13.611139688588562 12.204537214192344 8.748227340457916
Mo 14.258418484359565 11.212343120508946 11.354154898578125
Mo 12.217339418295843 6.53624931109885 12.32383674102392
Mo 12.834942281001037 9.3583090319019 12.87917688466109
Mo 13.62132568188419 10.859752166701414 6.5297268629156076
Mo 12.201714904189544 8.239573868586927 10.183454128613876
Mo 15.102176104895703 13.342900065599704 13.078525542127625
Mo 12.057393606146055 12.002686506633852 6.492078656866661
Mo 13.395545240183251 14.854188619459832 9.497787444229724
Mo 11.724063534030572 9.752379084781406 8.075508623249947
Mo 12.684845571462937 13.494796332035644 11.548101341132732
Mo 13.085979571617466 11.706902080420043 13.81634935178308
Mo 10.926646403637701 8.065017720415863 14.575643362445415
Mo 11.770110876941073 10.963180328823873 10.37584663385074
Mo 10.592203794897978 6.306834441252479 11.473021004850093
Mo 14.315159988625625 15.779505262587685 11.524575513777876
Mo 14.694455750430505 15.388762505429797 14.009937578142528
Mo 11.245878287557032 13.341276757137315 8.892936952567956
Mo 9.911004378275786 11.179691278890084 8.532169970700476
Mo 11.236418919586296 9.725112069200472 15.302809335941966
Mo 12.84124214692582 14.128620298790148 14.414775659330145
Mo 10.700048355829413 11.65964018769406 13.026313116866302
Mo 9.339070846887045 8.515842244614118 9.437495375417024
Mo 10.535499835161978 8.970704726436658 11.871960647110168
Mo 11.176078618486992 15.655216897916702 10.83646923992296
Mo 10.932639874250496 12.600521760204781 15.397212713027121
Mo 8.04486989556098 8.318274150144294 10.787787585258826
Mo 9.892766582088827 13.282844896784809 10.657232775649387
Mo 8.817777085154685 10.876806923115744 10.946150452774393
Mo 12.294322606558541 16.13453047983485 12.717958343791716
Mo 8.79703126513065 11.540349439744713 15.160824781098473
Mo 10.299831211584612 15.185772966413424 15.483793789273207
Mo 10.291352611505209 14.321847091442663 13.04921902725004
Mo 8.796886903821953 9.712284100330933 13.52090988115946
Mo 8.287360161868094 12.642736704184557 12.930995316383163
Mo 8.60939058752437 14.290049367619968 15.242077467768
Mo 6.388833529763018 11.033028389881581 14.088252101185645
Mo 6.460395668424665 10.35546948053546 12.332683930615076
