41
Energy = -378.23977384 eV
Mo 15.485054072215755 9.207244494832805 12.144150042460963
Mo 13.536006123030482 10.663765521820253 13.581391877096523
Mo 16.022350272842935 12.05860689133407 12.599064361902597
Mo 14.159007888244522 12.99186131534628 15.075887432691482
Mo 11.774469894187742 11.468259241779297 15.336323136098937
Mo 13.995669234315214 7.243588128771255 10.565007257520898
Mo 12.395932735922353 8.968588578491628 11.526945545148097
Mo 10.908391451738293 9.29744041832307 13.849558686380025
Mo 15.795966588905534 12.980462184300698 10.945744637442965
Mo 15.888414705297725 9.673422364037533 10.346420703204721
Mo 12.464853560891422 7.049687830044983 9.321825830287082
Mo 12.581589819062996 14.17558609832968 15.187074209440762
Mo 9.720830063322316 10.07025777417192 15.548748670649935
Mo 13.77142786041172 11.2454524671904 11.185630461890977
Mo 10.63065157904025 7.248726906991553 11.711521567121514
Mo 11.396671750706581 11.722199267079853 12.544853793275314
Mo 13.663880554773309 13.446331380081322 12.69028724303212
Mo 8.91169362401129 8.066383221906165 12.97307262366604
Mo 13.42995129614197 9.508493206851638 9.006969892975864
Mo 10.094450984263064 12.938238346146605 14.763858606059774
Mo 8.838937961690554 11.319708288459985 13.35680339385649
Mo 14.096337624145283 11.911829385000756 8.728727831058462
Mo 11.402306844880803 11.191368999060009 9.574142822555098
Mo 9.671315693271621 9.876952797975177 11.34574779113971
Mo 8.2959542803072 7.643683220100777 10.136862696139294
Mo 11.206421812753948 14.197338248045662 12.768999517683506
Mo 7.059118176382318 8.774431656650297 11.120461330453628
Mo 10.601386890040304 8.840517039456728 9.187741439664281
Mo 8.443485547590653 13.851931935040684 12.829769147313069
Mo 12.260758567640957 10.453139985068777 6.986160570139778
Mo 12.232207723069651 13.495256991666992 10.28985987676905
Mo 9.433421773180658 12.782261072826282 10.835664516772765
Mo 7.014600631973131 11.660759377347974 11.379987560587164
Mo 12.576622172443306 12.754286367240638 7.226617714473545
Mo 10.034301640937647 11.382358692072025 7.540826725926417
Mo 8.2635351352934 10.514551390226012 9.290557394943619
Mo 10.134646464804748 15.558985394242745 10.65034264299292
Mo 6.778276788354012 13.771314734685948 11.018029663017979
Mo 10.476966266857513 13.684929284743024 8.486268219575635
Mo 7.835635558660154 12.821826985637149 8.855878464992081
Mo 8.65922122707007 15.372729544514309 9.486316603781324
