45
Energy = -415.76592107 eV
Mo 12.438794747931464 11.573681788798014 5.946648253110611
Mo 12.016312996299662 13.404962901456306 6.514143688205971
Mo 10.2913672805452 12.028392545286497 7.650470687952556
Mo 11.65165190126327 9.667431447713819 7.955714239897894
Mo 13.158375581705544 11.547227599623755 8.431028551166246
Mo 11.609905711419998 13.828585241156894 9.255721308550372
Mo 16.73518727128277 13.47657939075269 11.187535132461305
Mo 14.015830968524867 13.439894115460932 10.193324204422261
Mo 11.118147468477607 11.331303286749554 10.066937195469894
Mo 9.152100448211305 14.046015233742308 8.362554992469152
Mo 12.55241804763076 15.904037310332086 10.343623464931625
Mo 15.92358933499492 14.402849049451143 13.757364781185583
Mo 16.28631665691829 11.842275952373866 10.406359162908553
Mo 13.823363415017743 10.48686057050111 10.907540313629175
Mo 15.994007315653109 9.916652903881316 12.517361739926574
Mo 8.836677817746764 12.647796636395617 9.953881162700323
Mo 9.780413714718494 14.82586215728857 11.09943787297539
Mo 13.510480132264002 8.88610923115164 9.080332973232663
Mo 11.620947428779223 15.914911939003924 12.487713050649186
Mo 14.48223095313037 12.456873171034443 12.66244635511874
Mo 14.472128906715598 15.258810313753182 11.757063378266553
Mo 9.313242490028474 9.983603651566886 11.823919616904078
Mo 11.548596378786863 8.845800866920285 10.517803369664685
Mo 15.485861385704268 14.511023510522781 16.15421075788808
Mo 12.068497955025245 13.566578340407661 11.99391964923437
Mo 13.489770400135045 14.635213899107896 14.229762107200859
Mo 9.825926196544259 12.504680227971283 12.697475575657219
Mo 14.874809786343148 12.390106846380997 15.404470623701608
Mo 11.922509693492529 10.671314822804682 12.676295032946646
Mo 16.78324080636004 11.546549523755235 13.52151088561463
Mo 12.87580359639917 16.177986231238624 16.23353852398287
Mo 8.859101636915106 14.771935775732466 13.1992623405327
Mo 14.203195965088126 10.20927714077536 14.254332617912471
Mo 13.410422767184297 8.378517598779423 12.632301270866135
Mo 10.845841697781117 14.64976550065461 14.658233885564831
Mo 9.438714928667363 9.897644618851537 13.775053027399462
Mo 11.31129276859235 8.056285653298676 13.001736077437654
Mo 12.839633831424996 11.116942787616757 16.748765377507006
Mo 12.013987793818272 12.308122487853895 14.72813490560876
Mo 13.10868638784467 13.923395714024494 16.922718257140957
Mo 9.054039009207898 12.381742468204363 15.260771673087712
Mo 12.153695967282406 9.436367569157856 15.285518135052216
Mo 10.929216652826629 15.656114153379113 17.04283739245557
Mo 10.749479428941042 13.266348265039642 17.06658970174491
Mo 10.040557900536175 10.843943084208325 16.25001020982422
