43
Energy = -395.55565652 eV
Mo 12.916237773576745 7.7951331038316445 8.03304859022202
Mo 10.972499428834665 6.674001021614941 9.876977601878917
Mo 14.477633595794012 8.857997150125321 9.019646037383476
Mo 10.873150827992758 9.157737942383077 9.38110089262977
Mo 8.866473382270703 5.968354144448279 10.779009998401834
Mo 13.110300746883386 8.213288908055723 10.84812681671655
Mo 8.471333032720459 7.888261775124493 9.981178238126788
Mo 10.576956090503483 7.91661773568512 11.974194853572282
Mo 14.697837929740707 9.82220486434293 12.057132837368588
Mo 15.74410596484479 11.248614920233905 10.496188311073011
Mo 12.365748953346614 10.265938872110887 7.658185676886045
Mo 12.667968232779092 8.607778594704595 13.86070987836789
Mo 10.156575266052037 11.346724618114616 7.291135313921417
Mo 8.418286357904753 10.215447946509439 8.732228787520198
Mo 11.787949183145694 10.222447879308213 11.779054446957149
Mo 10.643506222708018 11.904017988268386 9.627123695351674
Mo 8.27844679328275 8.13972587536039 12.486012092079182
Mo 16.076546556943455 11.980860539795867 13.262089245594614
Mo 13.255671692328717 11.162426627023487 9.77566678804669
Mo 13.918367128712541 9.998227767198763 14.513530779702107
Mo 12.10164488706929 13.247056755633816 7.988015247352872
Mo 9.808183732276753 9.889226137387618 13.632766294576445
Mo 13.460935648738277 12.177371306479115 12.443633883434146
Mo 8.853283311578377 10.630549378290672 11.174788534210728
Mo 17.019520943681265 13.05005099282824 11.835484249979123
Mo 10.811063083457567 14.631367103983585 8.814455847977475
Mo 14.63432571113739 13.567461394950666 10.170810877353704
Mo 6.910957403332416 10.537817943132127 13.10609018782658
Mo 11.649814582067709 11.341502836743512 14.4648361732025
Mo 8.345643911871806 12.976390880281636 8.205154256448797
Mo 6.8415264365687385 11.802690433244232 9.46439187432577
Mo 13.579466687940288 12.992893058599568 14.716373692722819
Mo 10.615960504647502 12.66765371893453 12.409764117015932
Mo 14.936844051055644 14.409469133485388 12.272499533025654
Mo 12.294063176436278 14.024096202954041 10.773420518584329
Mo 8.821138981350193 13.50567133747623 10.507320092692744
Mo 8.609441269970384 11.83760097840149 14.430063223168423
Mo 6.85709445388021 12.312892406755395 12.200591845497051
Mo 10.798641846874235 13.702531215353439 14.905403642860591
Mo 12.46481996828085 14.712632948390041 13.337612672093286
Mo 10.327755480606061 15.61643820685702 11.772294076626734
Mo 8.7427181047007 14.009566415287704 13.25196543365389
Mo 10.279253353275836 16.062331603030643 13.817665733310411
