45
Energy = -417.48500489 eV
Mo 14.725348488101385 7.6031623025687605 13.269663075735851
Mo 13.156457101864278 8.177631090396284 11.151869749754868
Mo 13.380989750921465 6.3012542348660565 13.282312492121026
Mo 12.364928628026249 7.535198413486613 15.89017747218821
Mo 10.902227977833181 7.519265726123197 9.523341262350556
Mo 14.257323911894938 10.4453724191136 13.048868695070745
Mo 10.858079810450635 6.7198488273723465 14.561413716931408
Mo 13.16619605192517 10.641904294827874 15.611799098990083
Mo 12.682355036855984 9.258779698052207 8.920608606190372
Mo 12.77985604211041 10.930148458791335 10.977802545076283
Mo 10.947670689077531 7.01947646458331 11.673469885445877
Mo 8.997572327882168 11.188803811157761 15.188919911525392
Mo 11.178699515750395 14.078800008507285 13.906741660200135
Mo 8.417208147681691 10.97539608835022 12.531419573746794
Mo 8.226106883037977 8.867000176431734 11.599852649924225
Mo 9.58922914834564 8.754495989663964 13.765285587342571
Mo 8.924305682514177 9.228295749041006 8.704568738640885
Mo 13.033855919211904 13.143594475180679 12.286679226021844
Mo 8.460222472962208 11.697258795145457 7.450318697980133
Mo 10.856570660422648 9.230876170127214 15.882744596492818
Mo 9.143082261112172 13.430398089942605 13.611806968100378
Mo 10.530923557468702 9.628568479550125 11.164485035541786
Mo 10.53411532855179 12.610825319270962 11.530927756026154
Mo 10.304765689738902 9.2594229257369 7.20985288583886
Mo 7.761755162699847 14.234075145053218 7.977589387008199
Mo 8.365642525522217 11.491655511702403 10.146088309396264
Mo 10.182440278341916 11.735161797025702 6.165188522547162
Mo 9.352897473070316 14.254580799145218 6.706375661292714
Mo 7.952104617132297 13.663033291255772 10.780084547488602
Mo 12.208800995137828 8.882922081981217 13.431122164234967
Mo 11.270586884858307 11.259383834953692 13.592414263604253
Mo 12.887450052940958 10.840085121034056 6.885486239842677
Mo 10.74194090000884 12.133207836296751 15.928791638483512
Mo 10.897291668031972 11.341164531095309 8.863972992600345
Mo 10.024839877887109 13.796713016936671 9.322971896153387
Mo 9.701485996670026 16.43335861514315 8.858101821163283
Mo 15.366421067012412 9.97247328583017 10.715098476370144
Mo 9.712659214118649 15.471183690916426 11.675902705011318
Mo 12.067728386643152 13.0898176700498 7.452597419612948
Mo 11.322884197506367 15.859689678311438 8.09431087018264
Mo 13.571599435499554 12.414191697969107 14.794642709059666
Mo 15.339890834095817 11.976765599698753 11.105434583668245
Mo 14.194456742478918 11.54494608234436 8.598778480719323
Mo 12.874372671375516 13.394105023423267 9.753581724012811
Mo 11.591717455580646 15.400738251418883 11.121676439544492
