48
Energy = -444.85977762 eV
Mo 16.564527818384153 10.74212587163607 8.89948689026969
Mo 14.467887848199714 11.99214329716271 9.17046786145033
Mo 15.843494402564547 11.271362710677648 11.469290665846977
Mo 14.872054510758298 9.494223932570698 8.273941213436505
Mo 12.862268705025434 13.867318465824923 9.058574227562302
Mo 16.29349114156773 8.97466005869837 10.75512888077471
Mo 13.504271774355711 12.914546645805968 11.578359704452657
Mo 12.307131844056915 11.418277265708783 7.622833368917778
Mo 11.599951728725058 16.31565729098404 9.080625721795299
Mo 13.706067690121186 10.016133496000657 10.88455372356513
Mo 15.087598308614877 8.602112045754863 12.923370402739566
Mo 14.310413299312001 7.723187317235188 10.151427459068213
Mo 10.283744831724373 12.555893813094205 8.022445163438643
Mo 12.499029788186624 15.268038816861555 11.971726265617958
Mo 10.686532488322703 15.298154204543124 7.632341225351568
Mo 12.190599957533175 9.005532952167714 8.752408690538031
Mo 11.77777610175499 11.534422202868578 10.079398834050954
Mo 12.639103418815019 7.868147004326163 12.263874871383223
Mo 14.376764581832727 10.786521147960741 13.505731286992749
Mo 8.835834201152636 16.11123237858603 9.41289985790798
Mo 9.95103600318772 15.833988929893085 12.063249845705894
Mo 9.852763289907276 10.081687084122015 8.38297652994407
Mo 11.987618166617482 15.38963951321532 14.162150435851382
Mo 10.667079160610053 14.180001740163293 10.261153271055914
Mo 13.16869649767017 13.197454773029733 13.95489733947718
Mo 9.295422804623124 11.78925058466992 10.693892567734975
Mo 7.507230838770878 11.323075408713454 8.60210703011122
Mo 10.68602697133005 13.167822872778842 12.842248899378792
Mo 10.648513883356877 9.113440478482882 11.008878672188432
Mo 8.25482751199562 14.13681840198213 9.006529664270237
Mo 9.702939012550369 7.528951349233441 9.288720592449428
Mo 9.187526814395339 14.684486415962368 14.281673644988038
Mo 8.165343672299281 14.29439383009402 11.547116549715652
Mo 12.585199596191046 11.193231368886341 15.74913994237448
Mo 11.82780060931098 6.802509618112035 9.787968908011823
Mo 11.78472830815774 10.71721224192792 12.860673461775196
Mo 11.012332547951242 13.25758696706278 15.522926996225392
Mo 10.093664138426966 6.454264707368832 11.941003447767594
Mo 8.683151382745628 10.206348599963063 12.568908048604142
Mo 12.72792031454118 9.24219286287161 14.781966308013578
Mo 11.743171846806497 6.859850974678284 14.285732952493438
Mo 7.752676760472203 9.641387802794089 9.958083255419723
Mo 6.964977887348072 12.10344522934678 11.020901762993892
Mo 8.301266006239935 7.504538648979732 11.534582050619427
Mo 8.093923072191501 12.46904511638908 13.561773039243736
Mo 10.09912754443241 11.02693938257459 14.754120624954913
Mo 8.643254249179508 12.920826271044767 15.89193872610271
Mo 10.177267627958683 8.313505310526828 13.647537752345528
