49
Energy = -455.36383894 eV
Mo 11.203539321340212 13.885187080566713 15.959010869644374
Mo 11.919451907656597 11.664372370261944 15.788886990521503
Mo 14.384745153138091 11.666906912317742 15.75387683972954
Mo 9.393860113331131 12.731169104461365 15.245371615379305
Mo 16.784662292455366 11.487924678451442 14.780641674892404
Mo 13.469235557269787 13.574277574795058 14.320612453900178
Mo 16.156357652954682 13.302933156828015 14.139773802503136
Mo 11.517186010366474 15.584791629659334 13.626861912056167
Mo 12.584867167905703 9.023840970476583 15.319590833584886
Mo 10.29859964082317 10.373116703991672 14.04275423511377
Mo 7.793367324619799 10.682913155652292 14.065503251010611
Mo 7.1389926126845955 14.101244071892935 12.443320396868266
Mo 9.156848792096266 14.709569897294573 13.810270509353717
Mo 15.03000548709759 9.568755713746063 14.371865498057756
Mo 8.86272297982804 12.196093182256941 12.225352597766705
Mo 13.191906027111136 10.958435445760687 13.391527328692476
Mo 9.11430233092942 8.4247898162511 12.929795884212592
Mo 12.002928899082054 8.4561114528831 12.691449476650535
Mo 15.831173269053464 11.120977744925263 12.284632426766331
Mo 6.871127685747886 8.996654447947325 12.903734234398076
Mo 14.564788481345493 13.126411298463651 12.070882307967146
Mo 9.701175321046914 14.87612790194896 11.357036607665105
Mo 11.218170605033126 12.90410231775194 13.23350162778468
Mo 13.368094164160343 7.351378976736292 14.409402854237696
Mo 14.400205233145176 8.764646438663199 12.116660739147504
Mo 15.869858216160463 11.947823634635975 9.709245329123727
Mo 13.322454567427942 11.095031634998998 10.76054014955173
Mo 12.536048220476308 14.904715744021765 11.90534350660103
Mo 8.495753004920202 9.510615871232071 10.671137031007959
Mo 9.911221173192452 16.491570973541513 9.298886084190578
Mo 7.570904035504354 13.96177272379181 10.368833615078994
Mo 13.551625771528487 13.478053285549757 9.615460273174664
Mo 11.152393648063162 12.950431567689984 10.34056476468849
Mo 6.87396003357904 11.191197566984597 11.453163189898744
Mo 10.812297326945748 10.441595634881633 11.477674742197227
Mo 10.484683564693553 8.019253765501448 10.290262787129372
Mo 15.372206815137298 9.931252902326829 9.624251825984851
Mo 12.835636735673853 8.477168172235015 9.936136277504556
Mo 11.597343796456679 15.738349708350006 9.207187431734846
Mo 11.25013705603098 10.516803863076502 8.894239888737433
Mo 9.026130425636488 9.167837796292678 7.971967526740995
Mo 9.590681271631125 13.833518663384657 8.527790465487776
Mo 8.7986965379786 11.673078513802832 9.38088721584095
Mo 11.88473402840625 12.963976910802089 7.735270345663376
Mo 10.785405086167602 8.030892356665401 7.766253341036584
Mo 13.677439931099125 11.2929914692416 8.029091682480141
Mo 9.891026278192212 11.64358145807249 6.6921464397272485
Mo 13.184178078369236 8.88535321896073 7.6137543714157205
Mo 11.406850338370285 10.512586564153088 6.204666969362125
