48
Energy = -446.50814624 eV
Mo 13.356001470347373 14.774152725264884 8.40596372160107
Mo 13.364240841953798 13.405970621447997 6.120302918541527
Mo 14.189027035557991 12.177347276040488 7.409705237199977
Mo 13.991784570258925 13.01360916939665 9.914426284629341
Mo 11.168053843264037 15.333164478681361 6.6528412444115235
Mo 14.259985158848716 14.396709844006692 12.079300171606189
Mo 15.46368680438221 12.777169392429386 12.389558378841416
Mo 11.737898602772741 14.192169540906932 10.665752579307744
Mo 14.760365482200752 10.322236841705529 10.850140893470261
Mo 10.601732732670696 15.678076202128308 8.450792228563277
Mo 10.703923037417324 12.397400458570718 5.706320302065608
Mo 11.549112656851687 13.040061090265747 8.193743122313775
Mo 11.866131938700686 10.80279851156751 6.478545555332337
Mo 13.738653419090847 12.489820716785554 14.181827467149999
Mo 12.38576740660514 10.683325545701818 9.207002158852186
Mo 11.799022143027358 13.94297554790396 13.458137401152573
Mo 12.702590200084414 11.938721692797733 11.963756668214625
Mo 9.025265751264012 13.513174860217752 7.190133496125619
Mo 14.458250942456521 9.829744731340483 12.763126853641708
Mo 9.403330521435716 14.314867288661068 12.335359107110147
Mo 13.393924424059222 7.8608626041882195 9.509077243736446
Mo 14.006443457589961 7.413510341399453 11.246738824656118
Mo 10.367327884440614 11.979581539246603 10.5032446180138
Mo 11.287536325434461 12.561497922137207 15.518435436862424
Mo 12.1624767665229 10.316519543419233 14.187377959504554
Mo 11.007815996770402 8.641233355807447 8.247351645611337
Mo 9.689777291972733 10.976840536132139 7.871949137144374
Mo 12.034398575955416 9.418811100781022 11.481559700730928
Mo 8.935621254169074 13.727428305592648 9.503572291197637
Mo 10.26448635378811 11.606343047822891 13.075440167162691
Mo 11.204136585646689 7.114226093355235 10.950316066926794
Mo 9.36951723175397 13.127236498796297 15.032566830826772
Mo 12.241907931344354 7.529557998100343 13.645289747756541
Mo 9.697185690385682 9.435209386103551 10.279947901048851
Mo 8.189264526034293 8.974194229883837 7.8885684309309205
Mo 7.918146623022065 13.105303486583123 12.183753117327777
Mo 11.318358672786948 7.911990825888897 15.333362929994161
Mo 9.5806523930531 10.204234066970974 15.518437387493874
Mo 9.837691353241594 8.891890137617287 13.07013887794679
Mo 7.693328808684479 11.494985313402845 9.443949100010666
Mo 9.416695596044967 6.978322302877697 8.889543203371177
Mo 7.861879083516207 10.540186836140647 11.686088503081528
Mo 9.661036763476377 6.40474173404541 13.54719957066831
Mo 7.966263724567462 10.70807587045223 14.352034328816906
Mo 8.603192699686923 7.0906859472358565 11.255029818720253
Mo 7.188865489162109 8.753976751449418 9.970254925026104
Mo 8.419659968251189 7.606789723032325 15.041222538035754
Mo 7.311092699387628 8.08647183062301 13.17492373047643
