43
Energy = -397.13404941 eV
Mo 11.536977443884005 14.37312416768974 8.358067579516577
Mo 12.752542158252464 12.131273047381192 8.209408917835846
Mo 14.400331841469768 13.897645287501836 8.349512988296825
Mo 9.814442037877715 12.233216607219266 7.590113190650576
Mo 15.131376881801977 11.100689316414442 8.81847223299176
Mo 16.242324322962112 12.921313313256451 9.398373924478053
Mo 8.880444860091583 13.883104259055225 7.571743233282569
Mo 9.982222723354905 14.800333967920064 10.117058804354366
Mo 11.038317036930598 9.973763942560907 8.696395493786056
Mo 13.12667376593929 10.304422868446403 10.192857138910453
Mo 12.631536528114378 14.946829369546727 10.572677698586538
Mo 13.9878870955153 12.871649866584171 10.76941760286425
Mo 11.005933433227131 12.330079333223843 10.234731906973927
Mo 15.277584319698326 15.390173913130013 10.787240468467033
Mo 9.040864601482905 10.300261135197122 9.887635129370192
Mo 15.517157421129852 10.473748660118055 11.464089854275887
Mo 12.52279967462512 7.85530477666418 9.941325832485678
Mo 15.023860726571666 8.523918180460514 11.066012116429368
Mo 8.285620876608865 12.861040376979915 9.932622840420855
Mo 16.227023904966675 14.152570585949837 11.908193760714044
Mo 8.273834136599982 14.37874538322477 12.219038546848727
Mo 14.522919746747323 12.566164495926824 13.365096460128933
Mo 13.404431007360694 14.576502250968474 12.935035342891615
Mo 9.844467945632543 7.707482352195485 10.211084053748415
Mo 12.210889777629394 11.953714640598646 12.562785677940429
Mo 10.710045975462132 14.092806420634023 12.60682486557131
Mo 13.434706762304915 9.72287343833447 13.05488027476976
Mo 11.106891901755619 5.988688568829114 10.837582275906039
Mo 6.118801811627674 12.972370012124108 11.218767808201465
Mo 9.31834632536767 11.844143028814793 12.279416070618536
Mo 11.102775734984078 9.54914172735726 11.604169287683323
Mo 6.78628924117745 11.133367604273635 11.662645322793608
Mo 12.793696371552919 7.454200510371957 12.349971228043666
Mo 12.141900217533388 12.987396503548258 15.096298789352021
Mo 13.111327874790497 11.285651961418424 15.353269721860839
Mo 8.678567754590043 9.1894087222924 12.553303939891428
Mo 9.330842913231775 13.009007860535716 14.689689569702127
Mo 10.269992381929166 7.226287347818054 12.820640640492904
Mo 7.284629871081542 12.827767189232047 13.747413041395959
Mo 10.665643697308187 10.67287059423793 14.275066023762333
Mo 11.77479309121085 8.268565528711033 15.007501831112357
Mo 8.233753937835232 10.363499657091339 14.531864128382765
Mo 9.930343943278212 8.188833999413044 15.320509055958592
