49
Energy = -454.7592554 eV
Mo 15.730218474826662 8.91748334632374 9.498225976333135
Mo 12.347808837322075 7.041893882904357 6.178602406006225
Mo 7.383297024201996 11.8189687535072 6.516797987668646
Mo 12.79055710138573 10.432122827932172 11.564206980970724
Mo 11.827087862166831 11.59166421831094 6.334323099646096
Mo 6.701717981586913 6.975832769792514 11.341793581490487
Mo 9.266929238069958 13.307020990343059 13.246060439303616
Mo 7.588127505847175 10.990140020880892 9.226111250416004
Mo 14.634861094900378 8.77880785802172 11.970999602340274
Mo 9.514514223724724 8.45115202762945 13.705460313331171
Mo 8.514755791343262 8.32447360421719 9.47480001143702
Mo 7.651869122946095 11.021107255190005 14.021137688407938
Mo 14.66920493137128 10.565249020363188 9.591609183481598
Mo 12.03535573944122 7.869190134612205 12.81512360282367
Mo 7.045352047501586 6.686471284393062 8.12700241877076
Mo 8.00459256338218 9.54961310421896 11.697169217535142
Mo 11.148107587754582 5.197463677034716 7.881793418747368
Mo 5.823777056168284 8.931331950911492 9.746924499850826
Mo 11.87039265755849 12.97146621889692 11.975379823506332
Mo 5.6621409952290795 10.538063365107364 11.463971401062944
Mo 11.175178606124176 8.862899802068913 5.958987966186016
Mo 7.428495738620689 13.675083343101337 9.055841664199212
Mo 9.136061796870436 5.85842981568878 9.466481861192307
Mo 6.868657210254985 9.06945004862888 7.27603149073954
Mo 12.484777150080973 12.686547564512226 10.005837341732684
Mo 9.05998668629334 7.2943372969941045 6.827538801850054
Mo 13.232446128636884 8.053689337182028 10.143769372710313
Mo 9.198796672701162 6.913804161326883 11.913965301895868
Mo 10.733647977171236 8.869862547918789 11.02178194765311
Mo 12.058200563254323 10.293386739030371 8.700202680265026
Mo 11.448947935587125 6.002641923202245 10.618786667489832
Mo 5.520015961678454 12.791650808769221 10.264981681411477
Mo 10.16120047257323 11.7481349311983 5.4166132956726125
Mo 13.055321357412701 5.699058358244971 8.735129650950558
Mo 9.57679903840187 10.098827994094162 7.666550519059797
Mo 10.136069380982324 11.354083550539102 10.36123006755551
Mo 10.148022928097788 10.909515221727 12.872386135490292
Mo 13.637826488094843 6.395413499345564 11.966534819921197
Mo 7.934827917326221 12.276094305370018 11.49621392998449
Mo 5.87730308204288 10.944031328790652 5.6612586780805945
Mo 8.479902321645877 9.387420778563941 5.510541389829993
Mo 9.833277110250148 12.589543394818248 8.141840444740623
Mo 11.034208398108337 7.739319235212831 8.516120928048398
Mo 9.945211774415224 14.019699347859117 10.464206945881607
Mo 13.601876981722112 8.55080775877122 7.6679647994042615
Mo 7.848064749962373 14.751672697267836 11.121131750436954
Mo 6.846021339918483 7.9442082951501 13.192275222957125
Mo 5.2871758980200045 11.280598977705745 8.516208747800235
Mo 6.882298241477932 12.821558370779927 13.90338073818512
