48
Energy = -444.5817348 eV
Mo 13.27826076506265 10.941047018720436 14.849716503326269
Mo 13.056048399007791 8.214921587528863 14.416598889991427
Mo 10.876855782818243 9.652017589953248 14.741421928198587
Mo 12.807729119836297 7.107402477586079 12.517529560970221
Mo 11.442279793469588 11.872693732275506 15.90639833463512
Mo 10.387087552632272 7.320609542545617 13.650214301567791
Mo 8.52977450616425 8.246447903702812 14.38902644081698
Mo 13.168151784429767 13.28689995842374 14.10249543948787
Mo 14.588403809501072 9.39024530971306 12.721125793876396
Mo 10.898918847139358 12.267774650872113 13.545041618910219
Mo 8.527766334625776 11.153997691462303 14.949968568420086
Mo 15.103711922158002 12.072123961900065 12.559873233927657
Mo 12.414204299059406 10.222213015924279 12.320481701560317
Mo 8.793410305815259 13.043686422841049 15.021692078100312
Mo 15.274271341358105 14.076512925343948 12.474318695260612
Mo 9.750238290495414 9.869896665494728 12.483102787227894
Mo 11.020216109595149 8.19569219992302 11.033149387295229
Mo 11.013184641157777 14.932646766853718 14.07330719001599
Mo 8.549237668006246 7.290181334569216 11.816039157604056
Mo 12.832895956017236 13.02312111078692 11.424930383725458
Mo 13.686008015888644 8.517121917302648 10.52157268649008
Mo 12.730321151589767 15.519368537035145 12.853604865353276
Mo 9.112682063131933 14.166390841087031 12.373344907066041
Mo 8.837059297534408 10.175173220314594 10.15215147351202
Mo 15.212145673821587 13.23447602621643 9.838062177909565
Mo 7.873715339245809 11.928471004072659 12.413412934735947
Mo 10.402823696442583 12.390685620771604 10.98994718839081
Mo 14.257381258530819 10.91917673578307 10.111367805816865
Mo 7.2809529613819155 9.22648096799031 12.216588325459414
Mo 10.963578512676913 15.277685486122756 11.238652163354091
Mo 14.118893462999582 8.776920613288498 8.161926857839354
Mo 9.063580092025402 7.189192910176729 9.26164682173435
Mo 9.444012991222667 14.624227623666389 9.289458463220006
Mo 11.622199096819685 8.234996433654 8.41787015958598
Mo 11.721411288289167 14.036043484035352 9.096833063855938
Mo 7.718662873051026 12.726354081606383 10.29028550655523
Mo 11.836949307639443 10.61432269581844 9.023499139159398
Mo 13.973085727732624 15.013222499408553 10.201936358361838
Mo 13.8503084179037 13.705254464101076 7.518304242091278
Mo 6.065803380319666 10.650137196050997 10.11967380841409
Mo 9.67954393141214 12.306121187854158 8.465436680743489
Mo 14.293991771341263 11.015716381553332 7.6625918075991715
Mo 7.282155007407698 8.144639515604654 9.431028233190244
Mo 9.433572024740405 9.393464100281271 7.677515415992561
Mo 12.086118062661244 9.791902944055865 6.471024916640035
Mo 12.289997513156626 12.727730089363869 6.9079079999093285
Mo 6.954290151903448 10.814361403170134 8.371948087771253
Mo 10.221603207853482 11.025723660265816 6.251469421402986
