44
Energy = -406.60620687 eV
Mo 13.49210641038675 8.803699738889003 9.539595359071084
Mo 11.013658250913865 12.90521056641812 8.18323553251011
Mo 6.311104449023756 11.617462359209922 9.513553480511154
Mo 12.43909176576183 15.638683308762968 11.71039515197883
Mo 13.701325554903839 11.097479523179922 14.268505715522869
Mo 8.84327843520533 8.767519995182534 9.867428114727629
Mo 6.552369759685616 9.375289450401354 11.37458569562116
Mo 9.55826441704955 15.263135464866249 10.82244578804844
Mo 11.045479719885767 8.015731882230243 8.22631923932041
Mo 11.193090614623447 15.031166811788221 9.145972359521352
Mo 8.909064975404693 13.616374695271038 12.856782796528387
Mo 13.413334249802368 8.745565350395955 7.4484681333131375
Mo 11.21650888276605 10.159780967070079 15.397792055733433
Mo 11.0488259190335 13.096014752831673 11.279517953632334
Mo 9.206541548189431 8.927514035520058 12.479686749998685
Mo 8.890140830377616 11.009410717771857 8.409200092386522
Mo 7.037543721194628 13.761746079980847 11.390633465875963
Mo 11.073234410365657 12.520489268511477 14.133030802010142
Mo 15.984362186792195 9.392298295580058 11.343669448866146
Mo 13.217227985611483 13.504738766158125 9.85302685958576
Mo 15.689946896478068 11.935015131891952 12.510271810776326
Mo 11.282122085123026 10.684774212193831 12.519972148290481
Mo 8.653156372628292 11.331271014961425 11.303418057116549
Mo 13.698761639198134 11.342848305301303 11.170664287361397
Mo 11.133560095556488 15.32642116650235 13.110605788626009
Mo 11.207346089256053 8.218859593634418 10.815505668866086
Mo 8.93502464970201 13.27792757541838 9.557226416782887
Mo 6.522297424611661 12.062349095311944 12.560275591998247
Mo 13.846513473839934 9.293960071379335 15.009516303802824
Mo 13.224787866067603 13.41669704075359 12.857151444180287
Mo 11.108467052014284 10.484500641341617 9.902094796432356
Mo 13.291319284690697 8.851533348171593 12.371493234378878
Mo 15.098359456724765 13.92615293509933 11.463479957724005
Mo 11.088058056767627 10.258748393354564 7.213150608046195
Mo 13.202098184339208 11.335973750312249 8.340567318309498
Mo 8.912847916506697 11.293265006122963 14.132183893955878
Mo 8.833307026533774 8.595805228412154 7.5439370894800994
Mo 6.4078565482074685 10.070261970151934 8.518759130399696
Mo 15.56080425284836 10.37356545670163 8.607729417181632
Mo 15.8121476886755 12.025048806130414 9.571577346695323
Mo 11.45004912274106 8.247493394180973 13.747049181978667
Mo 15.998197238277081 9.197035775439852 13.16928262740926
Mo 6.936173197852228 9.492054902191684 13.348099841275364
Mo 9.23856068839524 9.155466674864268 15.161838189299129
