42
Energy = -387.59817124 eV
Mo 13.434695678633815 7.7329016449747865 10.462601374410468
Mo 14.17456753978337 8.136378482272058 8.238072941373172
Mo 12.092441135507798 7.39401133024442 12.88670493537784
Mo 13.729419619165322 9.62994708647466 12.85615738082462
Mo 14.264657874605977 9.987788004455854 10.655340109007058
Mo 11.794657443022325 6.6049481495843745 8.657146162783087
Mo 13.2590724860967 11.179643257005477 15.22656052358129
Mo 10.118024587220932 6.963432005012982 11.12971802188697
Mo 13.807560732094172 12.066655942128994 12.513543583857507
Mo 11.273840704748467 8.872788593095954 14.243985985834504
Mo 14.350915247536841 10.897345808395523 7.977401837912148
Mo 12.0019409414481 7.613033160247326 6.805729058633481
Mo 11.335215512431574 9.405780995054874 11.273947771447531
Mo 12.20966463287456 9.539363406577618 8.764119263972093
Mo 12.325839193581787 12.03235516373777 10.320046906890276
Mo 9.14381725157848 7.926691114900762 13.209292195020788
Mo 11.538975998175845 11.267569907977514 13.064939420427704
Mo 13.309909909210742 10.334489523025272 6.389229163108572
Mo 9.85835516060585 8.147984644494608 8.69137180089361
Mo 12.828877171810065 13.02759384578371 14.743740088343941
Mo 10.364711644556937 11.468851885979168 15.619659267495212
Mo 8.895004524213041 10.281301059679889 13.689619156471878
Mo 10.332565305928332 9.71747972201262 6.908874325235398
Mo 9.792667065095689 12.903160980751878 14.478680892879995
Mo 9.402244878086613 11.922200443508174 11.655731276875605
Mo 12.271076471820717 14.507901482201357 9.47050506665574
Mo 8.669807625933203 9.414325548281793 10.971954270118957
Mo 11.839442409501432 12.253125092408512 7.678236315281857
Mo 11.350125748622222 13.88355318691759 12.199659458014732
Mo 7.958050840115384 7.231257179828201 10.246982801032047
Mo 7.395641739246389 9.525247620541395 8.315997799629114
Mo 6.637395190341696 8.889040366767295 12.667845178991643
Mo 9.897251446097417 10.995006101058799 8.98106845812936
Mo 10.029015473161364 13.706094865179619 9.594874432927247
Mo 6.676364412530662 10.843340069579531 12.362712605913973
Mo 11.266054846525352 14.328583168624306 7.186099283969962
Mo 10.853874958129856 15.698348590329703 11.405422196060929
Mo 8.506387315029965 14.345436516897065 11.293135166043667
Mo 6.160780634436744 9.438817413880797 9.733248991049946
Mo 9.026573835752167 12.958021805333614 7.567045121649486
Mo 7.515182400310429 11.990533140788042 9.81472414671124
Mo 7.2895978860788855 14.095907226668006 9.150514884812173
