42
Energy = -387.5282652 eV
Mo 10.3788769850375 12.997582866876543 7.036765961752127
Mo 9.896299931075486 10.618299913376445 7.560582805868786
Mo 9.00215048438775 13.286975464733144 8.545236122392284
Mo 12.755241475682444 11.08776525814065 6.809735389007242
Mo 11.940713582153398 14.129460400216557 8.848321176407989
Mo 9.280132535080394 8.63300001784569 8.6413959976335
Mo 8.460083031454538 10.843665357292931 9.85613076114624
Mo 8.069160075491467 12.730579719063698 11.61797597767115
Mo 13.415943300034296 12.795494979204275 6.856067281539442
Mo 11.871300160736702 9.261219284380049 8.874762550434694
Mo 11.81354157264416 15.962111734026395 10.642190507520375
Mo 11.07848164582684 11.635868433896478 9.534918434692536
Mo 6.523416384553825 11.249749501310152 11.928338053751231
Mo 7.349322287273762 8.773500613894711 10.911207995486514
Mo 13.6440166555888 11.53384850869271 9.372446074172597
Mo 8.351410627801076 6.914828147581554 10.235587629441985
Mo 10.360435543031219 11.674994279146224 12.184780371925708
Mo 12.484837476078543 13.36604899160347 11.444176834750342
Mo 10.204328311707572 9.102969517283517 10.929220722591857
Mo 10.086692169042047 14.479333769386642 10.785542851598265
Mo 10.879386700036672 6.700916969313989 10.539945508463303
Mo 8.671315942449292 15.348155250352557 12.866047616968437
Mo 8.451264704558662 12.316573412292875 14.296096441618081
Mo 14.17123778518354 13.969437687011093 9.651600886081669
Mo 10.621146133833449 13.897114369299507 13.636353009982328
Mo 8.4531994470517 10.115925569600947 12.954323180167659
Mo 14.78580833765328 9.444177624529464 10.112348824027752
Mo 12.608296801257449 15.128896990562037 13.09846139017954
Mo 9.32734172016257 7.481749742468267 12.680768669018
Mo 14.932912588383532 11.939400880090888 11.638151246843373
Mo 12.712204833171366 10.468256633683431 11.777962533961553
Mo 10.254993620185695 16.54299172961127 12.686437151646455
Mo 12.804575277512857 7.983784473895995 11.20138587077227
Mo 15.016819904557149 13.497685471280533 13.60683081457177
Mo 12.818041082055394 12.264992897336004 13.886852536116475
Mo 10.341863781927191 11.339367257549872 14.790095655601283
Mo 11.106676987831317 8.9692521232855 13.46522528463228
Mo 15.053659625826516 9.61212940535018 12.39432501547995
Mo 11.599100140781 6.153194711013497 13.008997134358097
Mo 15.462130782904547 11.59788290626033 14.331798233606559
Mo 13.285227392551807 10.13109813857745 14.485080119887193
Mo 13.137768615103234 7.43384454776957 13.62033219351032
