42
Energy = -388.31595561 eV
Mo 10.769585475896509 9.689333248247747 5.623302006711054
Mo 12.964832799071935 11.046392646658642 6.7817900993720945
Mo 13.214116112785234 8.874225841983165 7.050841666734368
Mo 10.71013663438095 12.930143887833312 7.136176046220906
Mo 9.14915989085804 11.225808740345323 6.15650809507859
Mo 8.83942696189688 13.600455626906573 7.8547829627841255
Mo 8.69972272356121 8.640982428000683 6.970618034208061
Mo 10.822880520624565 7.791545763343369 7.761268895346195
Mo 10.921552827590459 10.406456005935329 8.028144058947694
Mo 14.693956935898454 7.284105722818719 8.896299669650688
Mo 7.252003035658087 12.872207064844833 10.05318913465899
Mo 13.033311132298726 6.304573576880674 8.69353929041933
Mo 8.342798204649325 6.6822890579101335 8.896263405804634
Mo 12.74834735279394 11.79000900740623 9.448556574468872
Mo 11.181993030410982 14.434604874359621 9.449324668889647
Mo 8.027899028769276 10.752745644571668 8.50227962625094
Mo 6.872269148520607 8.303637756519613 8.893328003331277
Mo 9.847924110317088 12.151895528100898 9.806853357690915
Mo 9.263538084011431 14.413822745999228 10.869138464872432
Mo 12.445292685926255 8.790077028987865 9.84337354006386
Mo 9.46469494270358 9.035721731808056 9.798553360939707
Mo 10.564033094520548 6.492055893033114 10.173825500235434
Mo 8.081047773189637 7.717115586252268 11.438283816568863
Mo 14.694937272237548 8.432109831054039 11.553715749865123
Mo 8.142526854427933 10.5808706704673 11.695493821721008
Mo 14.395425379237247 10.002753166985867 9.139001653019271
Mo 5.858397650189619 8.97335778119583 11.241623278397965
Mo 7.299945995594104 13.282240745086364 12.492614466322381
Mo 11.182924709785373 10.639827383812692 11.342215779341927
Mo 5.770790238061371 10.71135779916554 9.978055286093152
Mo 13.3532672044017 6.8328088018649025 11.400280087324317
Mo 10.721416356003585 7.812336922638846 12.025545346332386
Mo 9.89135003098207 12.64731381291985 12.594907115415937
Mo 5.7438071310346235 11.759545432095482 12.3819000575321
Mo 11.950454121260629 13.578539831536572 11.35747219561314
Mo 8.746621917167726 8.703714402516834 13.720231496279292
Mo 13.805253643666418 11.415132163858393 11.866786360416157
Mo 6.4512738253803334 9.773151913770148 13.832553868691361
Mo 7.834481710760371 11.343025722957666 14.341200079011877
Mo 10.224278139098496 10.294921320954156 13.929094432362904
Mo 12.683248191375803 9.233240618260284 12.75248414476961
Mo 12.540276592919376 11.954745740029129 13.429783972159564
