46
Energy = -426.34922073 eV
Mo 15.336294928685746 14.112715740474291 10.558764472830692
Mo 15.618531682141377 14.675333105284887 13.202432820657556
Mo 14.900102498314364 12.26901672375283 11.885876566810301
Mo 14.004934584107982 11.614011754792877 9.45613631713946
Mo 14.033348483253969 15.916805603693726 9.210675256121753
Mo 13.448773363902653 13.82121934198266 8.168305417760692
Mo 12.293699825041184 11.727600482157277 7.205507503300953
Mo 13.169219081887555 9.618493945636269 8.085941772238703
Mo 13.931826312961213 9.54847291515687 10.972305050298498
Mo 11.084605556100154 9.900377640493437 6.252314995333662
Mo 15.094502521052481 9.983068598824927 13.36865373084764
Mo 12.745119178066746 13.634458072023465 10.73744041448245
Mo 14.883680620171239 13.023515293089766 14.289614279986205
Mo 13.749078636505988 15.835213526864475 11.781039032397375
Mo 11.785150657716928 15.951067009375713 9.53816776164041
Mo 11.414866760277887 11.11891274616206 9.860140247229486
Mo 11.714920691175083 5.949779356874219 11.353975961318666
Mo 10.922848962810335 13.532177804275824 8.821006811612069
Mo 13.199712904953554 7.956220477607514 12.843984769750554
Mo 12.534452396214911 11.139197259421445 12.41314545215269
Mo 14.316686960724788 8.524848727691149 14.794358389300161
Mo 9.74400838000251 11.057892087303145 7.6363430823178655
Mo 12.872634611050502 7.575942217878888 9.766982480287565
Mo 10.874537042766526 8.653908222700956 8.429172956482288
Mo 11.211506306383432 8.7821097439878 11.233016893023985
Mo 13.220100906007126 10.89842571453921 15.071858804394966
Mo 9.210976274438378 15.107433635990974 10.259417356688221
Mo 12.878154861767232 14.028652427143193 13.328770088333343
Mo 10.301937270209354 13.160127099283745 11.819860232903034
Mo 10.073344202344687 6.577719787841436 10.271724498170375
Mo 11.619665247011275 9.351967049883093 14.386822877091364
Mo 9.045795611358665 9.659303578620959 9.968770095604077
Mo 11.119192749761037 15.658807288216346 11.962316011960109
Mo 8.812559794789122 12.357531284276437 9.652749841924894
Mo 11.249134917752777 12.330991677288589 14.467426840440154
Mo 9.77148677751545 10.470002093215564 12.691921236746524
Mo 7.529904367721803 13.86674949043507 11.155183816367671
Mo 10.26949881995162 7.370431426820005 13.036544557431817
Mo 8.413169377987618 8.263143551450362 11.897949225171562
Mo 9.614176075383263 11.015514591128493 15.43686859458352
Mo 8.662644510757675 15.351068215159714 13.095859632358739
Mo 10.155703002208414 14.82615956822455 14.326968232890007
Mo 7.673883480632466 11.269983761492984 11.750379859257839
Mo 8.633949685351991 8.77508439972939 14.740079831193254
Mo 8.557230557639373 12.639588983526068 13.77606849616026
Mo 7.244885392415768 10.041392807502802 13.979594264281198
