44
Energy = -405.72527102 eV
Mo 6.40919276741212 11.486515080049768 12.792689013368495
Mo 6.9541251692017925 11.576286243630019 9.980309882830603
Mo 7.909908534457349 10.420771485582618 13.826642881386448
Mo 8.239018166926309 12.941619702222615 13.804612939413662
Mo 8.290361075116936 10.011400605822024 11.316684278356846
Mo 9.138040278740839 11.677657854350766 16.37113244705356
Mo 8.453107355977805 13.067824548383676 11.23230340272476
Mo 7.837978211169683 9.987768146116057 8.466234648514721
Mo 8.320375142036463 13.18123166100142 8.240280002876782
Mo 10.226705029166395 8.625332096151363 12.27172458819926
Mo 10.05436729061147 11.47359000655516 12.394259579869747
Mo 10.205283961882307 14.50598684073084 12.42267003709953
Mo 9.9622129702668 8.702716125329275 9.58466265772285
Mo 10.81972756315384 10.243069402098003 14.763377524302816
Mo 10.756442979495237 13.031369508304799 14.523655765244468
Mo 9.581554091581255 14.45671823990396 9.309949253448044
Mo 9.996816365620495 11.507245483469658 9.432408250107404
Mo 11.957254118699073 7.146294634816427 10.880686356292866
Mo 9.559733972010976 8.801041490980518 6.921417239896398
Mo 10.837126554334283 11.849926318320618 17.116476284322395
Mo 9.403697885664238 10.908973751692656 6.75827595786082
Mo 11.96032924699778 10.134665864383235 10.860634168853762
Mo 12.950602546319946 13.549017112268192 15.41366773943209
Mo 11.615481837194505 16.117626956206625 10.786118643693245
Mo 11.625793201209941 7.146036732952478 8.678575506673475
Mo 11.346429488268544 13.10240604367677 7.897968930493358
Mo 14.549570444301875 10.998411162772266 10.919953520827946
Mo 12.325094695798697 9.047667537198095 13.353768215765143
Mo 12.977245251071237 11.158700188272443 15.493551764851766
Mo 12.698300474130697 14.751841971453628 13.098727736708181
Mo 14.122656130226495 8.503718967684813 11.557149106191245
Mo 12.845762552569978 14.658339812338832 9.287543061230949
Mo 12.749377724370547 11.769834616257814 12.999488005125793
Mo 11.64209234392561 13.23263604961838 10.828220908626317
Mo 11.63471013918531 10.014806625316515 7.8877930568544405
Mo 13.710122597900767 16.084624443578264 11.517848680337222
Mo 14.892621885553128 13.064189326318143 13.91262394536965
Mo 16.81523744490786 9.339670360305155 11.513770898689536
Mo 13.441057225852028 8.770257391421927 9.158973775313655
Mo 14.84759917067291 10.350445913030219 13.523246602609941
Mo 16.20144700145167 8.821160245234823 9.853447717527807
Mo 14.36084882372993 13.458117343223535 11.331006656156267
Mo 13.006203971373319 11.81378308019499 8.837189058022213
Mo 16.31366076462762 12.029203922959494 12.394349550631551
