49
Energy = -456.10505469 eV
Mo 14.860089842510043 11.961465840019228 14.1942583696581
Mo 13.860025440966147 13.287017414822516 12.279857810441243
Mo 15.200454895034687 10.596632740025413 11.852821615526011
Mo 15.91446054607487 12.129446414867239 9.677035127693921
Mo 14.082143122275456 9.272625737946324 14.075209440344592
Mo 13.236871375000801 12.7525898248361 15.094569030833641
Mo 12.542006052095385 9.71928011549281 15.420261206488988
Mo 12.402146555077477 11.149516260279015 12.935112515570186
Mo 15.079672743082984 9.245183980256272 9.887531262505853
Mo 11.735820781515402 13.932056568120105 13.30839960136203
Mo 13.192375944104281 8.703379851743096 11.632781487853093
Mo 13.752088647371043 14.293088207893504 9.694213937379264
Mo 15.238155074625212 11.052908104188905 8.109587226885486
Mo 13.44535997252756 11.476649312603891 10.291327377739702
Mo 11.36666111382523 8.70146677251855 13.599121346470906
Mo 10.643618339683986 11.598285843717846 14.805637697739648
Mo 11.17480100780795 9.990209175279652 10.784494767392623
Mo 12.883419277965023 9.372056863326339 8.595179474201535
Mo 13.337390168053942 13.148385792305977 8.111430684913719
Mo 11.409930323701493 13.075347141355195 10.603108965468389
Mo 11.895133118860688 15.689007488449631 11.317405144320498
Mo 9.980056258434262 15.393215849314728 11.607756991412009
Mo 9.163892504402064 9.78441965453947 15.192692913292465
Mo 9.285255887800275 13.665527920806976 14.375119029838627
Mo 11.145358420882285 11.58810700396983 8.258369914639681
Mo 10.694785316123319 14.451992921122626 8.707744582004695
Mo 9.570882221136465 12.54161648770112 12.274577668812436
Mo 12.221136833395212 7.319827939994151 9.623064211850998
Mo 7.882963943189347 11.568986750586754 14.322508431119338
Mo 10.157412305818651 8.750797623232234 8.614687616258312
Mo 10.30916834850785 7.518922676778348 11.341554845143822
Mo 8.203603464311463 7.746444759296425 13.343587768207502
Mo 6.8415373289125485 9.020315684223494 13.107427123901164
Mo 11.921948463617573 7.642521556383091 6.70185177805677
Mo 9.372441395242873 10.052266617537915 12.574692097450827
Mo 7.25003279251741 13.765745108649101 12.244226690545158
Mo 8.588374538461526 13.826877351666019 9.997682066989816
Mo 9.041226424895074 11.24732968166703 9.804072118006477
Mo 10.63398128174878 9.999332411442493 6.271474943607496
Mo 9.242747982601648 12.917933003677568 7.530925914466326
Mo 9.250345724396645 6.345633483985977 9.688472406577086
Mo 10.573664830086695 6.338576392745123 7.351621410085337
Mo 6.991305116380061 11.682956799957026 11.548758205299093
Mo 8.080326694016442 8.796556430070659 10.555148253946443
Mo 6.540017157681541 12.271662408492812 9.008807962092328
Mo 9.18943224559366 8.318918194458062 6.179569831620517
Mo 7.726237827430963 7.7794900479713665 8.44737855695876
Mo 6.328889803338619 10.243796273597107 9.078734070335761
Mo 8.3355664425263 10.55238087767852 7.463872555194288
