42
Energy = -387.99265097 eV
Mo 11.538321259549246 14.245522256140855 8.259348538631897
Mo 12.360427094793906 11.518076528043718 6.719470077992047
Mo 14.177870833584715 13.540117451916462 8.566433712079155
Mo 8.042827489260167 12.756818289978442 8.391924116682958
Mo 10.52302727992025 11.872184148992776 6.901273109041772
Mo 8.163713785310135 9.617567638171034 7.7634991620273635
Mo 12.173676191775508 14.494222875918743 10.693132540634663
Mo 9.625188885759476 13.887762578566184 9.80607310958052
Mo 14.69020785596782 11.568092757034488 8.42047347536744
Mo 14.538342899205263 14.45188584058589 11.058379055901034
Mo 13.190434750755085 9.396796385616343 9.285132426120406
Mo 7.1789871646563 12.438141068235973 10.65563908428545
Mo 16.509269896857905 12.63140862645351 10.410894507043595
Mo 11.892971677155622 12.048900389336563 9.333455414810746
Mo 7.068677420099179 9.824882181392143 9.277552419953517
Mo 13.803841448626713 12.030695326354863 10.974659736952242
Mo 11.204611714643166 9.473028030891214 8.358953716530994
Mo 8.650123210088035 13.59137611136025 12.241320973861713
Mo 9.490717963573553 11.209910364695107 9.561242768747958
Mo 9.443943806949337 8.544456832018616 10.109933427237396
Mo 16.276374197822246 10.848357715212993 10.962764059871544
Mo 10.877664861251155 12.450829958873124 12.02453943798116
Mo 8.716525180087848 10.688409882105656 11.885282380681208
Mo 15.439714002637189 12.563157968384113 13.339842835588428
Mo 11.462052090580537 9.950473579237949 11.286695107629399
Mo 14.196569289865353 9.238507670181935 11.752586569112706
Mo 11.71157862381079 7.534108743981724 10.926950845833874
Mo 12.93056362066554 13.92433000632042 13.12521373411726
Mo 10.705163887315752 14.52715065061948 13.755617684354316
Mo 5.934382671962753 10.399740864050749 12.147420094030721
Mo 6.620972004502416 11.564778975965284 13.493377020526223
Mo 12.996600756159209 11.174477487787934 13.250873829248292
Mo 7.74610898458371 8.202068131540232 11.908645366381746
Mo 10.200993008690457 7.805838394543234 12.680188983291368
Mo 15.131173661382238 9.944301720885 13.805552988245886
Mo 9.19900618963283 12.139073646524189 14.33108177229222
Mo 14.378378410047647 12.600601644173056 15.046614078658928
Mo 8.187688125378505 9.224950026180572 13.965176600912283
Mo 12.761497091997157 8.36866093423851 13.642773380219225
Mo 11.342947057091394 12.644305270671673 15.05483374667859
Mo 10.552134616613225 10.06555528078486 13.974287875453708
Mo 13.045486526041358 9.686949155277635 15.336988197398759
