41
Energy = -375.98277343 eV
Mo 16.130008920446954 9.808685815143365 9.584791080820692
Mo 15.085147676196184 11.967446112584899 11.147860157067718
Mo 15.211902119717628 11.697064130495672 14.164349604456152
Mo 14.922209305829105 8.604167076823733 13.621633087766696
Mo 16.021015589480132 9.433619834095012 12.401119001779914
Mo 14.738407056199945 10.453138655567471 8.616084100398306
Mo 12.255809343857416 11.549769561082075 7.6560878130011005
Mo 13.92111269240678 14.388933187324344 9.993660058397866
Mo 12.176806424402491 14.7913809762072 11.048884748094617
Mo 12.783845052040917 11.944074136905538 10.271062022295117
Mo 13.660113972457328 9.086386493001914 10.878618550787307
Mo 11.702839924379552 13.805327086696007 8.551340405166899
Mo 12.951447713858158 9.69442487423216 15.25303648805771
Mo 13.338317690197393 10.746425178855485 12.663348649778083
Mo 13.185990460974356 12.180767162765553 14.966880259250074
Mo 11.883583431630516 9.480273862454668 9.051005106359032
Mo 14.11686157850614 13.553157266444883 12.707211914037435
Mo 12.121862667891515 8.37046465595471 12.911411944372576
Mo 10.818325828681399 10.459482959541468 11.360880993897997
Mo 9.977042503975648 11.224544820421581 8.648262942953393
Mo 10.363276290930914 13.024384555484742 6.191503077367322
Mo 8.848096514175008 12.134024568747765 13.171538130954488
Mo 10.41961464582011 9.770478227840643 16.788174480667138
Mo 11.466095156289272 11.264318635776624 17.0742680696168
Mo 9.581017051979256 15.849196846526706 9.866751882806893
Mo 7.373136318613823 12.086395965813956 9.067226362387403
Mo 10.049114315838121 6.544578909128633 13.324835257671358
Mo 11.609611539008416 12.8140271758214 12.804779181092867
Mo 10.537152889282874 14.992245144813056 6.644869996720921
Mo 8.989649665800995 8.946768548009912 9.63712836902856
Mo 9.947211590696995 12.958882621157617 10.479176675899405
Mo 10.579526795198538 7.425641844839013 14.841290805721913
Mo 10.798225797625188 7.898655915301251 10.773638180761147
Mo 8.155004842262448 10.766635009639637 10.907714812770012
Mo 9.561731319534498 14.311449793511208 12.681626134365956
Mo 10.066364796178553 12.688625717369122 15.002910784504742
Mo 8.873059365225522 13.805460185051471 8.155057565612285
Mo 10.816071005065817 10.41713161177048 14.237633114258914
Mo 7.647017866495424 13.701975294543834 10.752663496131165
Mo 7.844444687094816 16.089165748136754 9.276241397360762
Mo 9.241462684136831 9.039958924502248 12.59297838594407
