46
Energy = -425.78305166 eV
Mo 9.903515047045774 11.323467678408564 13.812716483601376
Mo 10.995084505155042 13.023517546722731 11.907473586651188
Mo 12.38285834273648 15.508723073508094 11.369459860810757
Mo 13.882392640930588 10.766318027983322 15.281576269468689
Mo 9.987140844694922 10.262328131129339 11.250914438775832
Mo 14.962599683558274 15.289406325762261 10.2952154347649
Mo 7.797604282964148 13.597656430520358 10.28167293830229
Mo 10.013312668207465 10.912871086804408 7.517233807900088
Mo 12.552291760582118 10.872135722769563 12.536977780030762
Mo 7.591832511531549 8.851679251687523 11.677864141674041
Mo 11.781153510000768 9.438467040312764 14.779025202524565
Mo 11.720332656843857 7.854848279903745 8.823746129871594
Mo 11.7531853608782 14.538000275577348 9.177814877978909
Mo 12.199007720983332 7.352404823579373 13.580964938854105
Mo 14.014077665029198 13.963049330410232 8.070230678180964
Mo 16.297879431153483 12.770090392257389 11.207504897793344
Mo 13.227656191604327 12.881950657129247 10.308746050020986
Mo 10.157771193373812 12.518790743629145 9.460984007879127
Mo 9.790415172115539 8.510501353814405 13.202517666821652
Mo 11.901923435946195 10.467560493659741 9.455535923083282
Mo 14.743976378134663 11.607941087505976 13.233226423206023
Mo 12.25899649779707 12.601549317255268 14.503637406126781
Mo 12.184920872060458 12.577115696254848 7.288492694546362
Mo 13.794919287906882 16.43973058705387 9.25128385898936
Mo 13.964789317918767 11.28323762101902 8.043827229679955
Mo 13.710592365747342 13.899650880067712 12.520203878766855
Mo 10.959319856678153 11.2953248104733 16.512707576734766
Mo 10.309378800489135 7.386890769335922 10.81749871304749
Mo 10.013057371442697 13.715563672055184 15.203308667450303
Mo 8.937678370481771 11.832605690506357 16.635136778055394
Mo 8.070498778039934 11.163752042105735 9.404548118478209
Mo 9.46929014255627 9.035948017227462 9.00955684247398
Mo 16.132178386953527 12.546782789766427 9.408049824577887
Mo 12.261676082024156 9.543154055787157 6.808024463493276
Mo 7.0118192429664346 9.183558170975662 13.487155496308938
Mo 9.510717330215241 14.925027522375505 10.852678624400868
Mo 14.256361966568074 8.78738240209813 9.282688477773005
Mo 14.611673242277808 10.312094667484596 10.594581693313831
Mo 12.384430802107081 8.414010874732273 11.343630824242505
Mo 7.62252152512269 11.807462744782994 14.414116385045228
Mo 10.570146145914498 8.519192085857073 6.526679779752514
Mo 8.686741629671857 13.800960724703682 12.883584227096978
Mo 9.070675487374611 9.471794346359497 15.289288818352002
Mo 14.054259480979658 9.01351463456076 13.384490184496919
Mo 11.066192906125503 14.933460253958255 13.625376786768873
Mo 7.7281603331162465 11.495535096133493 11.975058337838863
