45
Energy = -415.80545995 eV
Mo 11.547047039239624 14.31895088630271 9.87683294881562
Mo 14.461022122847359 14.948522040457101 9.943355915791713
Mo 13.547165366168642 12.599361760599981 8.725604783831523
Mo 9.412113093225507 15.926191481634653 11.434292636157231
Mo 11.90494313100897 15.771658887864344 12.036066815254532
Mo 9.123360969023322 14.392864712947711 8.995354281360877
Mo 11.287020656416999 12.526154616136473 8.059325239805077
Mo 8.938575678726536 12.807401719305268 7.264751999681024
Mo 15.594569850569851 13.606519493632275 10.48106784254457
Mo 14.543083719744489 10.820119124320954 10.094326940596687
Mo 9.292468819661703 15.433842594598358 13.534744393189968
Mo 12.020167269678266 11.850564403667828 10.850152099120775
Mo 12.32131194884059 9.935681373992006 8.766758368870999
Mo 13.339143263875473 13.743734609145784 12.133252520483728
Mo 10.498425743844265 13.452821352042585 12.315694773069582
Mo 7.918394565681034 13.937966800491001 11.37671630369829
Mo 9.45156444554007 10.408645100082868 8.037571112940029
Mo 9.43406182551623 12.153262733277504 10.046657489655633
Mo 6.727308507090272 12.561644859819438 9.164852549651805
Mo 11.726671038368629 14.513204927044436 14.263842047727
Mo 6.655663996704863 11.527969532202935 7.53860458870918
Mo 17.095164806024396 10.457775066565583 11.214698898054152
Mo 11.088007716630422 8.24132550594485 8.128838861850598
Mo 16.713153473335964 9.057528111725775 10.04056047916434
Mo 14.774415901197113 11.507972828310042 12.431165649153737
Mo 13.926073813441981 13.17475497576696 14.449969717263695
Mo 7.554012551146139 9.992709465143038 9.47322521114073
Mo 13.794080709871048 8.151356646942485 10.052564866458466
Mo 7.6652833813744 11.023724763870977 11.750468452177698
Mo 10.032113952464677 9.509393183231952 10.420367878921416
Mo 9.962239106429664 10.880186019052202 12.737450288367336
Mo 12.226943178195533 11.661972492834174 13.959195546470566
Mo 12.608144067017573 9.552207039015007 11.871599836565437
Mo 8.118507032072753 12.952700970341585 13.674428924212501
Mo 11.457618292229226 7.4561755752264 10.460123518407476
Mo 9.988736651726935 12.63051707468074 14.971247242287587
Mo 15.122279927073933 8.695990861775895 12.190079718953264
Mo 14.277407847589917 10.009483418999714 14.273276150295874
Mo 13.040778919654795 6.825807707153395 12.687056674445223
Mo 12.409354239033096 8.793036214148911 14.630892653809367
Mo 8.169457706337264 10.327947568996603 14.738347238464751
Mo 8.35318601870396 8.656784217663107 12.049277485494578
Mo 9.91453822827472 9.92912167818836 15.387386547471326
Mo 10.432590791065095 8.299408678579844 13.056627072311974
Mo 14.352992879577057 7.044823887241518 14.08513216484928
