47
Energy = -435.70088868 eV
Mo 11.615729750107612 9.577861673021253 6.43877412905817
Mo 9.73997165604734 7.668183708313691 6.57832084949276
Mo 8.872738914856937 10.244835684019682 6.4619458280450806
Mo 10.891708146116917 5.078019156409873 7.503012537054528
Mo 6.402622884257834 10.399746282112476 6.578061755268621
Mo 12.42209268112515 6.888808536310395 5.765403750167113
Mo 9.087567029642342 12.426663236273543 9.15797305338112
Mo 11.126634872198307 11.521587807930489 7.670185247099093
Mo 7.793660881764949 5.511537126522242 7.123094999822334
Mo 12.931333675978177 9.754203983624897 8.883856328514918
Mo 7.4576308965736295 12.593914823367314 7.013909009719194
Mo 9.681452724148816 9.495160917782314 8.659576718626905
Mo 7.584342658127434 14.93547939231914 8.70039824713461
Mo 13.791359289292561 7.784421589366372 6.800559870579349
Mo 9.226944410553404 6.648878925395893 9.120926998377156
Mo 12.998744641898938 5.49887419898914 8.333168915400213
Mo 7.309977266275169 8.187621408246716 7.614064541048682
Mo 7.051549547135449 10.519621133335539 8.950135825457545
Mo 5.616945224230326 8.518855393283507 9.448523723359207
Mo 9.664987872284241 4.275201461077183 9.526068118861408
Mo 9.333169334499203 14.541461715802084 7.700850905347586
Mo 6.113660073381369 12.814505752542098 8.858258679599022
Mo 11.641067949002538 7.570223362339975 8.378959816473488
Mo 7.623675668128427 8.196428021177404 10.59622694052139
Mo 11.4302226847237 5.497358377096026 10.33647537485997
Mo 11.696714667486198 13.757389865792469 9.537588698992032
Mo 6.759949075544196 5.783563134113886 8.73274501827025
Mo 10.724927192960966 8.39284816539075 10.8066827597779
Mo 13.753914925776332 12.074877190264655 10.622352173522344
Mo 11.431275192956301 11.10295115023608 10.325896916344991
Mo 13.389070409608664 7.547399434251523 10.55552938589842
Mo 9.518101561689535 14.677848968437175 10.451814279901217
Mo 8.87009383702288 10.477268708452687 11.121019323980654
Mo 7.614196097481127 12.971790725481744 11.176116483255294
Mo 6.145180332938271 8.942060184866886 12.68298434675665
Mo 9.471847088042223 6.391749874135766 11.95600444245665
Mo 6.040977796749766 10.555799299065436 11.617491628999005
Mo 10.292635638358432 12.83109894313938 11.988034152782683
Mo 13.232953664503908 9.331856194240194 11.61166706807326
Mo 8.854177027578404 8.539090837952061 13.089528029177748
Mo 11.550900533576861 7.225365387270552 12.737710650131461
Mo 12.940119550838597 11.890180356057519 12.586618787849435
Mo 12.31708868196612 14.274342251340926 11.52938036691784
Mo 10.839778292811447 10.095651282610243 13.031090258854443
Mo 8.415470609493575 13.602154133873196 13.405130884332426
Mo 8.18645563283074 11.15277029027318 13.446769494664029
Mo 10.231944200557656 11.920052699216448 14.476675428914781
