44
Energy = -407.41480237 eV
Mo 8.8399173673405 5.856637106136488 11.033687877602437
Mo 7.636560300240303 8.069948098924339 10.983783006150858
Mo 7.994977181911386 9.061914545928806 14.81722346667482
Mo 8.210303726066304 6.684958283602394 8.445390230123571
Mo 6.944045259869775 9.537056730487619 13.068348137786742
Mo 8.648782967890755 7.240035778817355 13.233183671816295
Mo 8.658289020080211 11.474213194246982 13.871048574343451
Mo 10.6808089989707 10.099059397609425 15.144700679536934
Mo 7.35656948861746 12.36450555011595 11.918176264712953
Mo 11.109709100581144 5.658179260293951 9.274549308609368
Mo 8.15018236262699 12.07092140635004 8.22854627834611
Mo 11.2206043596618 8.32039283927923 14.46958356046101
Mo 10.806825390754833 6.466739280142963 12.016472621754245
Mo 7.811169404467776 8.654928547138999 8.319416399238184
Mo 10.040983935564705 8.092901938592021 10.00765935884192
Mo 9.761393435030223 9.353460181348057 12.512784016746531
Mo 10.21931088025831 12.08314818384604 11.88450923329377
Mo 10.449156935986823 7.687131305915809 7.535375709671679
Mo 10.79741918664179 12.76984376856877 14.329920583453834
Mo 8.377791092188248 14.102983792881878 12.715865770562061
Mo 12.386905183828556 8.418621829250934 11.911276779818484
Mo 8.604704817594634 10.679519520246023 10.378822712297248
Mo 12.512594364017046 7.034948850944954 9.422344984811671
Mo 11.54180719886754 10.197083816921483 10.287986788196342
Mo 10.004436253988652 10.116228012093428 7.85407296829758
Mo 9.04620672513573 13.843752589427426 10.146876706175643
Mo 12.253472677377102 10.783569876500756 13.122966497022084
Mo 10.973067497274762 14.463470047337575 12.399351195818058
Mo 10.811885496443272 12.330025261279529 9.040587936456719
Mo 12.560696089593849 9.45786737994541 7.971667874518227
Mo 9.58165212923276 14.563057112195043 7.812001180979685
Mo 9.45245004454563 12.692939289282682 6.542769608554834
Mo 13.985860035627597 9.973220927445444 10.7612726905001
Mo 13.007054314551079 13.419974487887863 13.644293832699216
Mo 12.81826821359622 12.712830489379328 11.140148848656322
Mo 11.90001661789783 11.280527352444015 6.653976152810617
Mo 14.85081274304713 11.462365064756927 12.708902663380139
Mo 11.589137227624164 14.754204588029793 9.813391037456372
Mo 13.484790340689965 15.513151093613196 11.723450025420115
Mo 13.5308079334163 11.696497363924951 8.6492750854275
Mo 12.200799927618709 14.011315446259735 7.612800251900001
Mo 15.552529310412682 12.08645256915807 10.842000453940168
Mo 14.98404462793753 14.429637765406596 12.098291275196278
Mo 14.108649459902246 13.932778717972472 9.20544589893806
