41
Energy = -379.15780438 eV
Mo 9.718439327240645 11.728130176665548 14.722335746021882
Mo 8.19416139994511 10.940040360975543 13.049405526159259
Mo 7.84581266139366 8.029657707450598 13.405685713399869
Mo 9.919938784118402 9.437575972975944 14.467331534060161
Mo 9.707476492539538 13.242085159865075 12.30307398156099
Mo 7.029869466686413 12.72917820837102 11.697178194258129
Mo 6.562841293860077 9.805780323795101 11.343633758587705
Mo 11.454093973271934 14.261345310746554 11.378108805753957
Mo 12.19136517923201 12.629835937827556 13.58102239315742
Mo 12.321730252179103 10.475332917030098 14.745034999608388
Mo 8.574850083589611 11.400043158073343 10.215148014837379
Mo 9.48138018012056 6.919214227776895 13.264598309789749
Mo 10.92270977567373 10.882334769939034 12.337634787919919
Mo 9.441336626589642 8.910639436762066 11.236876819808767
Mo 8.827541809479747 14.204476780808706 9.828379127162046
Mo 5.80321449991077 11.37473822593004 10.016421464641164
Mo 11.889963781631227 8.477811109904158 12.947619118414233
Mo 7.157731690546261 13.65208135974467 9.006923604799548
Mo 7.9382488519066055 7.099621353264627 10.820408282431211
Mo 11.15931083155216 12.174575484079218 9.923507057699737
Mo 13.791679398309915 10.210028121611131 12.853823003240098
Mo 13.287860199673442 12.185020723629934 11.424067325472855
Mo 11.476302010932768 14.519365633130095 8.417265221946245
Mo 13.179780972282014 14.004190092600155 9.1063184850246
Mo 9.353924320463731 12.441164480469677 7.687828953857027
Mo 7.604642069667715 11.043018466302538 7.748787283399358
Mo 7.240512481930745 8.952589286633211 9.192783891197305
Mo 11.080426813997036 6.950135208377275 10.93812999109162
Mo 12.30255021959674 9.555373907129475 10.353623418603428
Mo 11.92141818330977 11.976989192994683 7.454036250902391
Mo 15.06201119605369 10.031160879208798 10.708431066824623
Mo 10.206382468932807 9.83722038209934 8.598338071287058
Mo 13.816112085975897 7.556759927062632 11.228394231572384
Mo 13.846663505192149 11.227267086685965 8.96797229117917
Mo 10.126363288403974 10.24601809990153 5.991727582961205
Mo 9.45140808099157 7.415095217752808 8.805285742177782
Mo 8.446339602622443 8.683587260769919 6.8296647889305735
Mo 12.034530263080205 7.433783474182438 8.846139589173568
Mo 12.605585631324715 9.542023477016565 7.4336152328022544
Mo 14.538123010545299 8.233167559407285 9.251156096070137
Mo 11.011118537504062 8.18230095972109 6.255079667519866
