48
Energy = -446.67820366 eV
Mo 15.152851649618725 15.717250772655335 11.943672295442568
Mo 13.606597864871352 14.104622126209204 13.595894350356657
Mo 11.976586162295828 13.136538363583588 15.766649557868504
Mo 14.212744178682104 11.592946963105314 14.422633141212048
Mo 11.405517279819534 15.36691885590887 14.129511939324216
Mo 15.70173960909408 13.06682593457033 12.35118516860804
Mo 13.281132550336503 16.338494644948312 12.071385271851947
Mo 9.870891982659936 13.257949527029774 14.13257475783711
Mo 8.947927305168706 14.967193852560985 12.30340873324641
Mo 11.0871956787019 11.456332924601861 16.090468590475453
Mo 10.436230722188501 16.821499831438818 12.39766696026151
Mo 15.618514115689242 10.588680022267095 12.46252273661768
Mo 13.349930017369736 12.451092984615396 11.377223100242182
Mo 15.391510652845234 13.701980586072503 10.024228069319816
Mo 10.717620666154613 15.9656376179146 10.232493544151664
Mo 13.433280466858683 9.745613281829566 14.87580015607988
Mo 11.728469096314697 11.645086673088946 13.404253396657673
Mo 15.117968253002276 10.942125490068403 10.182054419695469
Mo 13.216133865967768 9.823719004034787 12.159357515302366
Mo 9.059551567922913 10.90488427161835 14.059222438892373
Mo 11.421498018285646 14.211161152593508 11.90174860229157
Mo 13.339953498391774 14.859301824835274 9.918839203773075
Mo 10.903232328405094 9.189798711426548 14.602261758351881
Mo 7.736595520703962 12.45119105926045 12.338607519324151
Mo 12.596288855567105 7.603412625769976 12.87123121270388
Mo 13.609419168013675 12.329553248523531 8.506906224477932
Mo 10.455610514073758 9.402647999039702 12.138875253350902
Mo 9.904889759980145 11.966073434269704 11.332248495822288
Mo 11.508822521824898 13.281972457618135 9.166643515960319
Mo 12.05150817546024 10.486365089301486 9.750001593317235
Mo 14.136106602998398 8.486739452028656 9.854724227672039
Mo 9.152568618098554 13.972063528899787 10.013439939882948
Mo 8.4313662045149 8.08724300601639 13.784763814363272
Mo 7.886598102233552 9.993158059192718 11.8751634169538
Mo 14.305034585187313 9.543136959169157 8.057532957350364
Mo 10.041634174526159 6.917951847474349 13.446539372412369
Mo 11.606830103943622 7.602363164049509 10.750946495539221
Mo 7.44934975774656 11.50293096118182 9.52014160433667
Mo 11.762680180408406 10.893504743193306 7.077324792469689
Mo 9.535499458912696 9.40625401553067 9.559258509289009
Mo 9.865034683327826 11.670863335623212 8.242832253721444
Mo 8.707049805436425 7.387215494916829 11.03154995243876
Mo 11.91646734204726 8.50059300538233 8.161694838731583
Mo 6.919656019828126 8.644748168586808 10.158788230809954
Mo 9.870564870031215 6.705405828913146 8.617651108937737
Mo 9.860497226664274 9.256448840643687 7.028107647235409
Mo 7.337936298318055 10.372163119008237 7.963577035216336
Mo 8.124749985070334 7.43018120499184 8.096230345384726
