45
Energy = -415.86704959 eV
Mo 12.563689884282907 15.518872986695332 12.44572209083715
Mo 14.877308024900096 13.871993384123192 12.303434491001749
Mo 11.957188319549646 14.537244403002203 14.868232658586761
Mo 15.681374968667917 11.487170527428102 10.122838228623719
Mo 13.928601249374038 13.322538519408859 14.475722952964766
Mo 13.329895486856769 13.126318033441358 10.360099823546891
Mo 10.91353411184588 16.450733717864267 12.642001269401323
Mo 14.869854169412946 11.571348601619214 12.455106686890813
Mo 10.77968797274473 14.4164875232292 10.761322401019395
Mo 12.26128245816372 12.621587302807947 12.704302715323532
Mo 12.070095518650216 14.532036172676458 8.714521895397139
Mo 13.737745094754686 11.888983725976594 8.13922612458831
Mo 14.26386140114503 9.407635025232196 8.665927903368503
Mo 13.258191721495098 10.637306077779115 14.695840092658507
Mo 13.11369274181312 10.323724218406358 10.664562582571444
Mo 10.048457905309654 13.921528634652203 13.354221436361641
Mo 11.411631565988884 12.222607481466664 15.401451404837891
Mo 15.762415399281293 9.429534273464398 10.671056035087588
Mo 8.128193054812238 14.965352729664794 12.18855416915455
Mo 14.253930350794917 9.145203541027719 12.93101164594451
Mo 12.520131870365594 7.642491692574829 14.695834486453439
Mo 11.195890990994224 11.92892766426556 9.44556039123111
Mo 9.98942921823417 13.435064381566766 7.986100891922606
Mo 10.997606267219004 9.702255120299574 15.757608160831625
Mo 11.681996612349254 12.005739079420062 6.8145149730166725
Mo 11.484461341712567 9.928862711376155 13.112436518039578
Mo 8.514113014163716 13.352632489691564 10.189432735270135
Mo 9.771574672857167 11.570375165258696 11.512756737433305
Mo 7.505231056776219 13.005322681517361 12.638845459648877
Mo 11.78988605658743 9.800019717441723 7.964878585028229
Mo 9.423193347008365 11.556013489214445 14.044114873794978
Mo 12.707400871659024 7.774514922092997 11.646466724795653
Mo 9.097483916224324 10.508383246502673 8.5292832454365
Mo 10.615751789746543 9.00251118915914 10.46437397387062
Mo 10.446368523341615 7.60100289606213 12.868515682726258
Mo 10.878860289140588 7.090165365408238 15.50725878195905
Mo 8.844509541190373 11.687112611482213 6.135773029577914
Mo 12.461755299936613 7.708625233009813 9.286178425383453
Mo 9.003096935289369 9.062341493488356 14.43739971656237
Mo 6.965400033749283 12.063103859191571 8.452684821577433
Mo 9.802318563586322 10.021108350221354 6.02943325233312
Mo 7.0864177423642385 11.087595412703502 10.145548455233891
Mo 8.555783991740062 9.45964396651604 12.185078504765482
Mo 9.492119238205095 7.885746864678704 8.255499956115216
Mo 8.208111173071941 8.211502817308457 9.646199192941024
