48
Energy = -446.07460487 eV
Mo 8.008386525424825 7.9556601393387165 8.957892798179017
Mo 7.679912150172247 8.1655785415476 11.036817644908188
Mo 7.575193517221388 10.447823825943532 9.471859449398016
Mo 9.1744577792849 10.232194991656069 7.383311469628063
Mo 10.008929050159342 8.238432960653544 7.283948041246715
Mo 10.223618566242616 6.77095438318846 10.0271041219309
Mo 5.979216255738644 10.451665284979748 11.901864015079797
Mo 7.804450764412704 8.956340014983402 13.803200163403114
Mo 8.042948783522101 13.230270054659915 8.415694701978941
Mo 10.116623307110862 9.323686090932107 9.975145890339748
Mo 10.029087149449039 7.862993978188263 12.325785591022024
Mo 11.63897814306496 10.337318031969533 7.941650746710708
Mo 11.17558181638211 12.679011176832638 7.574421360582314
Mo 12.04674622065777 7.6678269882525525 8.852670497515117
Mo 6.440759373142547 11.47230436616457 13.478315353940502
Mo 7.30875876724178 12.638319923576113 11.018236664949274
Mo 9.796620439453154 12.007263715256684 9.654315397405552
Mo 8.752144372590552 10.705177817797653 11.974697086438013
Mo 12.46180477657747 8.082848367952874 11.224770062525161
Mo 9.111888963904843 11.284389025770889 14.447441688603991
Mo 9.62936363213926 14.652052213829268 8.357414713214885
Mo 13.637359347839787 12.412129743466812 8.527052925916557
Mo 12.298993770783943 11.116337081850661 10.448262796697358
Mo 9.641754191370184 8.612582029347497 14.751709606806374
Mo 11.723546288534305 13.858563421282776 10.021470697268258
Mo 8.683088422424017 13.397213818942259 13.088086679477112
Mo 11.18388285211854 10.115079711330518 12.752780220371072
Mo 12.679916066843003 15.049011543761189 7.710858398362648
Mo 14.024928208244521 9.543524745419607 9.263503739517267
Mo 9.211289854959832 14.428401610165357 10.829649665258666
Mo 13.992285810462628 10.199832633163211 12.106086069845393
Mo 15.231292117097068 8.42409902533994 10.842693234263304
Mo 13.614907329648 13.099664770271449 11.620297581868703
Mo 15.25671781795496 11.459928640711578 10.18020404800861
Mo 11.29651191135921 11.029050106938618 15.424332214369832
Mo 10.975362663376016 12.638223030078668 12.58013940989799
Mo 12.582570653528647 8.549087080746357 14.170063458295836
Mo 14.222765772735334 14.67087215355024 9.183149271596617
Mo 14.262078185651974 7.679791811480641 13.254735354833736
Mo 11.783847925771239 16.34004477210959 9.670660079244609
Mo 11.135097486176438 13.439020213920417 15.044246895817079
Mo 13.185562263254708 15.914520186214354 11.413571809810426
Mo 11.262126516938737 15.184399951292624 12.493522543306039
Mo 16.663924405691247 10.472556870929557 12.599882087746984
Mo 13.323019131178166 11.613938852926571 14.285743036700708
Mo 15.744329831810555 12.240472972631094 13.01346362935329
Mo 15.102407819767897 9.881851149278363 14.424382128684861
Mo 13.028531306878387 14.162980322772116 13.944065746007928
