41
Energy = -377.29919193 eV
Mo 8.609348079980776 14.15806064398725 11.430428748595428
Mo 8.126846064917242 8.892695023938728 9.803376796456128
Mo 12.110504573054637 10.453016704921293 12.193237019064801
Mo 6.26053115668668 9.793499358855966 11.675760038909013
Mo 12.322942479931404 13.799323310241721 8.954854731270581
Mo 8.534955401099536 7.885654639332911 14.343495073888892
Mo 10.025392403931988 6.718996436606957 9.617783676012548
Mo 14.939067181230854 10.13124269889497 11.791269836774285
Mo 13.31815182468278 12.602050527795829 11.112319712768654
Mo 7.391316884084576 9.61768790390234 14.327637115061698
Mo 11.592654429152786 9.213513032341675 6.041210673058627
Mo 15.586647820316264 11.304399150125235 10.433136347693711
Mo 8.110635883212474 11.557142538835596 10.592744524948317
Mo 13.20467446643613 10.253402715434339 9.704513918446308
Mo 12.266252353968834 7.80804686892286 10.990883368474188
Mo 9.58774530559628 13.211663891403466 8.445746368173905
Mo 9.87477930464465 10.21531395853995 15.015854968064122
Mo 12.71487587399008 13.12756650135444 13.484084178734062
Mo 14.438285043414723 8.139489497822328 9.703278934896536
Mo 11.458286807026097 14.163346305805982 12.04969242654544
Mo 12.497682574553952 7.935993370066978 8.472442541292825
Mo 11.56013457982104 11.266522020764699 7.884133662233625
Mo 8.800204511572128 11.104962020231342 8.222496020914978
Mo 13.980059124452476 12.677672986899124 8.269544144501312
Mo 9.51970633350536 6.989946573963281 11.457394815271684
Mo 8.908656568321481 14.631526659806442 13.21944225067388
Mo 10.08609553672184 11.329932222624898 5.99478713510734
Mo 11.027746292661098 8.520373160218712 13.365117294774945
Mo 9.176755539811793 9.788621198577305 12.312223336779827
Mo 6.8711636319759934 7.978221324309794 12.063610121605016
Mo 10.090911871057953 8.742729160117898 7.2887921661814445
Mo 13.884532342480238 10.16702265691863 7.461358088930829
Mo 12.065460341556632 10.81074595657678 14.673311377172292
Mo 12.915663505264629 12.001162178989713 5.5454520131172735
Mo 10.660527861935448 12.023632062927799 10.376435869619185
Mo 10.546189444841385 9.415110920109381 9.927517680281005
Mo 7.499555025397446 11.993225424236815 12.92288516605283
Mo 11.75332100279862 13.405016951579434 6.224663055466456
Mo 10.531277490938962 12.951092071601302 15.602803060565716
Mo 10.071094494577101 12.11394180253844 13.050890947999994
Mo 8.664207598828403 12.616259415160723 15.403935543471817
