47
Energy = -436.11452332 eV
Mo 10.4450784158846 13.847062898310478 12.289039579656059
Mo 11.850952052211607 9.407572526003031 12.003538603943717
Mo 10.636434075681533 10.139192639301823 15.684714626222792
Mo 9.52329443944924 14.247521830885097 8.310944193296239
Mo 9.852092628436475 9.408588949551785 8.032755267233005
Mo 11.67216294184483 15.090480571043166 14.391023479819577
Mo 14.128299350319429 9.028284096167368 8.171250487457558
Mo 15.13824298807425 11.452523135752202 12.698228239564347
Mo 11.532374461967146 14.417856896879588 9.922499977416082
Mo 13.26201223885178 7.574573051486684 10.672839984835454
Mo 12.885282808818666 12.343814406198586 11.612266593977035
Mo 10.561986043933214 12.087208501675347 10.146956241698758
Mo 7.297327607643496 9.83351545730896 12.42783200427774
Mo 8.756580849696258 11.067066475636361 6.540940119604933
Mo 6.264506765535485 7.991925636406427 11.011337094367356
Mo 11.994346123486935 10.04627495807765 9.554163417790166
Mo 8.177911459795949 11.487619267184861 14.430662194182881
Mo 10.667274216734077 7.621711831881964 9.959755342016997
Mo 9.399566021444993 8.936044821710366 13.449799410663646
Mo 12.688478969321826 11.40654795582647 14.048394804137006
Mo 12.997721639456502 14.530536865969815 7.813570837901569
Mo 11.161717733857271 12.169307812290207 7.404747467033054
Mo 8.31589826598009 7.3207509407078915 11.573164384862054
Mo 7.879421421485603 8.126164652045137 8.995350241865017
Mo 8.704064622344703 14.3773088450397 10.11307324944213
Mo 9.191692149498394 9.82408084669226 10.622424027925717
Mo 13.412373427460118 12.05878486286061 8.810020122339143
Mo 10.265104982417615 12.927091648481314 14.909107048785776
Mo 6.641147728650412 10.187226709947522 9.835633172505993
Mo 10.83143026102087 7.054751366906326 12.296668126548422
Mo 15.562308157595917 13.596763519418015 11.80404522356677
Mo 15.623964128541218 12.246983554030017 9.99123951700459
Mo 8.260113178929133 11.793642275225272 8.971235743181554
Mo 14.110933807346251 9.182271536381318 13.098340539252405
Mo 12.584627331176364 13.706467429061203 15.795205187167234
Mo 13.180963305512682 6.98903677192966 12.932929800371127
Mo 8.034023075576608 12.304837319631176 11.697014122857995
Mo 12.487778577479796 8.006400310754492 7.829335284551052
Mo 14.043396352622464 13.625051555879946 14.01126266527547
Mo 10.206750185627826 11.28932776687033 12.866890237749256
Mo 12.993270347079827 14.743500317765482 12.041260939325971
Mo 11.777186805377404 8.898119974993534 14.855586146550678
Mo 12.200583560601643 10.639319971592164 6.679309610637145
Mo 8.168108067301135 13.67631618312828 13.726923083798285
Mo 14.437954349117138 10.07087553100968 10.699558644037385
Mo 14.20765626572496 14.626138379140627 9.346578414794427
Mo 7.234703787927834 9.842655119801032 7.169682473349178
