49
Energy = -456.11644342 eV
Mo 12.63072719786086 8.82667661858567 5.528550790412484
Mo 11.054541438110034 10.487142493778638 5.3129088228494075
Mo 10.76512324141661 7.600474845417062 5.808487651596544
Mo 8.873670742570859 9.302812212681344 6.445849663795146
Mo 7.6893549618050425 7.343789774448664 6.817049784402106
Mo 8.885182863758843 12.607556994258792 5.789263811023291
Mo 12.720562802570669 11.632763558175629 6.722023862163248
Mo 12.601941925564535 6.7050629278568294 7.863951156772878
Mo 11.24423789311029 13.450085050485738 6.678177184508783
Mo 8.853098279461195 4.749926262739528 9.469680871346556
Mo 6.142809688572287 9.128594432635147 7.8472762982180635
Mo 7.28263775060786 11.365212591252302 7.49567420980583
Mo 11.660593334654521 9.206895498949244 7.865992849279039
Mo 10.113359667204822 11.35573515443671 7.789249729658667
Mo 8.186570405877431 9.259724669796967 9.232768058209066
Mo 13.71171621747356 9.300335108112716 9.49989615589174
Mo 4.754217612605122 6.852683342666419 8.509299214487074
Mo 8.498998073567396 13.735216589677824 7.492745976800087
Mo 12.912674654436046 13.816088029383446 8.39202674603011
Mo 11.107243186553008 5.100723160237917 7.642145024962472
Mo 4.796712969300545 11.377730256222204 8.872145026666848
Mo 10.627537416804376 13.514664026721412 9.335157191104843
Mo 9.909403508585546 7.257441193649387 8.310747430177555
Mo 14.520889936075035 12.767969006046423 10.481293242484893
Mo 4.706716155941434 7.99922792571012 10.04911216267073
Mo 6.02662124235737 12.720233945327745 9.426928279858888
Mo 7.2220239862162305 6.731253974014673 9.232096502948748
Mo 8.54303560871795 11.706944086529322 9.835833950062497
Mo 12.9120015705399 10.22463590578017 11.650347509215198
Mo 6.183735634319649 5.159406411012689 10.77949432463477
Mo 8.600835389786356 13.888532182474792 11.344489111317076
Mo 11.098547071400656 5.1947497521626005 10.000235851117097
Mo 13.098322011768778 13.153355058863092 11.610900292495888
Mo 6.299359311178694 10.217885164009134 10.739545039159152
Mo 9.504888329651784 7.303866534763376 10.931728476010168
Mo 10.75927007058562 9.761131372039149 10.25489461119168
Mo 8.810237375005594 9.766253721812904 12.02262578921543
Mo 12.28817251840309 7.641474947739135 10.344497827951061
Mo 12.368980344411371 11.61245564555989 9.394855045164725
Mo 8.182716273472968 5.175021241380593 11.753737543537785
Mo 10.571618367074189 12.074867530547621 11.7839333966934
Mo 6.9622004828153505 7.633254283609488 11.646166807697353
Mo 7.8146545666283345 12.410150472786402 12.32461915591018
Mo 10.557432106127358 6.20473378711219 12.982993157558623
Mo 11.865143337444778 11.284807325934189 13.906660380350214
Mo 11.26860280110909 8.69648316453541 12.84874311252192
Mo 6.7276681368200535 9.626486888257798 13.099150586840107
Mo 9.035475586486854 7.476686566329785 13.669361117830393
Mo 10.048624273996596 10.591486634297333 14.165377536206503
