42
Energy = -387.11812012 eV
Mo 8.144735496275878 15.654685513210408 11.308062388765974
Mo 8.700210594679445 13.1016593963943 14.17304408061236
Mo 7.099711700080192 14.170391602075926 12.49139019802783
Mo 10.53358163128127 10.664538748968226 14.52790484189518
Mo 12.274928622864197 10.458102236300164 16.23620921210318
Mo 8.326019111787089 11.238874225019439 12.80753306836746
Mo 6.59531025605241 12.216844631967815 10.679067908656004
Mo 9.591375801212275 8.716166038122168 12.866070585917958
Mo 9.617278546283467 15.268027898309091 13.168291701307416
Mo 9.670708620220314 15.086789226647578 9.174997905208134
Mo 12.09531125988851 15.083699419198624 13.931854125330702
Mo 12.793569432184656 12.396738152832727 15.11629889244718
Mo 7.408356278131475 9.109222332519769 11.02310642725315
Mo 11.017736823173477 12.833937048427705 13.203234061333204
Mo 9.306718120308018 13.174170656316187 11.144109071289694
Mo 7.306116208600718 13.403685195679005 9.31046302574183
Mo 12.258654167979774 8.88184264042201 13.890524180270686
Mo 10.643664499176687 10.621039974167509 11.533893082041397
Mo 8.545577874938859 10.83468723839002 9.713057897046962
Mo 9.187520427640155 8.212485570082924 10.449875957375912
Mo 13.49476672458811 13.914619523628389 12.702298486828418
Mo 12.984386678483466 10.991649887398422 12.695929406335276
Mo 11.217715830535985 15.12123076816118 11.182125528599363
Mo 10.127265147035228 12.6054240820926 8.696107288195613
Mo 11.02037576229593 6.810204557847892 12.518924996371542
Mo 13.91525563706817 6.81060856030483 12.439291537383301
Mo 13.854897489214448 15.19812966773674 10.622038860092093
Mo 12.198237380736009 12.656414504089394 10.406761501092321
Mo 14.257149827280514 9.823709863902474 15.04185415451074
Mo 11.034921680927923 10.155238837755103 9.166513422753185
Mo 15.028672614518362 11.768867936874097 13.738702348538034
Mo 11.906767177895523 14.47927573149972 8.666224228737754
Mo 11.993268834501038 8.364073453466307 11.184347966248602
Mo 14.849353179335509 9.241482116195133 12.432357993397796
Mo 14.418189602788026 13.873942693731978 8.94039375678499
Mo 12.79084702353242 11.775161331301979 7.751953014184255
Mo 14.85793884782668 12.434268632523153 10.908223168885867
Mo 13.536575524728324 10.21605660272146 10.020936073837039
Mo 16.958341799276575 10.947327694289413 12.019180553363277
Mo 14.506556730743895 7.4640811382778 10.651251579683937
Mo 14.744040546014704 11.366060274538002 8.212144681281638
Mo 16.409071157471008 10.087442328552473 10.425101054777429
