45
Energy = -417.59801938 eV
Mo 15.278373710740116 8.84655373518066 10.600250210063143
Mo 13.709431877750696 7.13971858676368 12.002470914895584
Mo 13.518185090047231 7.033862748843696 8.980647942284946
Mo 12.72678513883694 8.72390641265249 13.584396601019524
Mo 14.75309245545866 9.941173989975505 12.222176926293491
Mo 11.411827110152931 6.694740961429011 13.272276531944573
Mo 13.529398466857979 8.82442648084261 8.183131449461845
Mo 13.92058385171058 11.129162797853889 9.954133281345065
Mo 11.080023454200314 6.655371712310648 10.759698077107988
Mo 12.060291097101661 11.765894666011437 14.659207559009001
Mo 12.503613766958743 8.845805234038638 10.782602707483413
Mo 12.05771840624969 11.21110590918141 12.322831191277343
Mo 13.915807143275837 13.908665210845331 9.50867705720652
Mo 10.674682541508442 9.841668113975151 14.716702016096281
Mo 10.950453294146053 7.899314308376387 8.516921670901791
Mo 14.116956409011202 13.038040530161503 11.457747553583449
Mo 9.125471300506046 7.334008256126643 14.02802556301467
Mo 12.830174775600925 11.912137452567086 7.75889725958438
Mo 11.15759202017926 10.401818942619082 9.218116273553917
Mo 10.307107017242284 8.957315351220668 12.307192804943197
Mo 8.91539473679241 6.441263881496759 11.879025123672116
Mo 11.337104983938739 9.904210637387843 6.47282563052687
Mo 12.064461536824886 15.297501345292083 10.734024530457457
Mo 9.465581471200897 9.717892524272436 7.012668996029243
Mo 8.485537747552101 6.65055555797022 9.005060524592388
Mo 8.952778980637236 9.00643818373646 10.107273385883863
Mo 9.938274443662543 12.505390321044272 13.928087574642875
Mo 11.875558248784996 14.155312500437791 7.605079615813409
Mo 7.518233031603261 8.587342885123785 12.439800857951631
Mo 11.521805002329605 12.842258542096335 10.08062939437444
Mo 11.849932345685527 14.05784161447665 12.606896915325956
Mo 10.29351818356069 12.525334031177506 7.104311404489469
Mo 8.38554523256104 10.485364012251125 13.677445556191211
Mo 6.995893757614503 9.755583271961351 8.485708318822502
Mo 9.50573203662621 11.49406331962669 11.553136370850508
Mo 8.829610255482299 11.693544470831435 9.001845094029582
Mo 7.415096727003951 11.95790834267452 6.535693173664858
Mo 6.9301918013471155 7.2526051192042384 10.008946457894053
Mo 7.091894482706417 12.472170821247857 12.762123784983993
Mo 6.893914828393545 10.69868845553165 11.120097677117748
Mo 9.903984659057876 14.432978986212099 9.21668866665104
Mo 9.5802706173765 14.055699676362835 11.784448760319913
Mo 7.7307853955118615 13.641732685650364 7.311963549972202
Mo 6.0156038188831 11.705364066637383 8.916678069019449
Mo 7.529950315771956 13.268170225565992 10.443073814204208
