49
Energy = -455.67573373 eV
Mo 14.46960780749733 8.658682038247838 14.102563028528397
Mo 12.238226889882359 8.376996026400574 15.82282485058728
Mo 12.76562404017164 10.322655010144437 15.83811313577717
Mo 12.777451173382104 13.160868812436675 15.666500000874004
Mo 10.994395101181473 12.605375685507747 16.38051849562124
Mo 15.49892149022479 11.229426856068802 11.707454564410046
Mo 13.25768172046137 7.1525254126439 13.43707553685396
Mo 10.12418676673642 10.073230019418181 15.401657924454032
Mo 14.48124508064089 13.422432773546644 11.34414616716146
Mo 13.772304637902803 9.068547518384946 11.524495043055719
Mo 14.0704465039894 11.452222526595062 13.405835622436985
Mo 10.469222771626137 7.715429011876101 13.740658642017884
Mo 11.99807861013118 9.619196782837001 13.304671188324733
Mo 10.568634989903657 14.469762248362295 14.378579408347855
Mo 11.091863748026096 11.94944476758115 13.80247309286694
Mo 12.92363191751816 16.210717884678512 12.037764200553802
Mo 14.057548405081928 12.555050712481727 8.94548988052271
Mo 14.618673956114966 10.124033140739053 9.20476448702434
Mo 12.607477560840458 13.904076025904251 13.066835909787521
Mo 8.388825157051793 12.710778309042212 14.641003884886839
Mo 14.061630661537523 15.548963341512202 9.439040413655498
Mo 12.89787898908547 6.840951350396623 10.661005942854803
Mo 12.729074540374139 11.374875842262357 10.979548594501248
Mo 9.040327026217028 10.124753605256416 13.209410439803253
Mo 11.100493623506207 6.202067159183986 11.644004831961109
Mo 9.709486692117965 13.657563324745206 12.154263087595487
Mo 12.003746451723813 13.95072548754206 10.452715811943214
Mo 12.50132229525668 9.251580910200852 8.975957757371546
Mo 7.613222667919531 14.22337412217862 13.772932785575684
Mo 10.760905356477455 8.69851586556273 11.15842992701119
Mo 13.320926221801829 11.218572973979088 7.078304396160825
Mo 8.394324268976789 7.870780069751058 12.498669337381743
Mo 10.945385449968983 16.043072662418552 11.890431431993527
Mo 7.276920593553825 12.035298875213957 11.862416791015756
Mo 12.32077611556477 16.389839004502235 9.212539036639965
Mo 10.724329639558057 7.0075521464522215 8.753203007769711
Mo 12.19175376177619 14.122489209388094 7.876030486285396
Mo 10.10983070031184 11.350240573122841 11.087516153428878
Mo 11.262968301996029 11.747208562617974 8.571542471063736
Mo 9.088051366077618 6.903197003154363 9.826509140685799
Mo 8.052642858292332 9.45646354849968 10.673412844074084
Mo 9.633591601546554 13.863577813806971 9.489947291586995
Mo 7.148269690690239 13.7775964911933 11.025372100796583
Mo 11.280467064218874 9.695524876209042 6.5415489764399455
Mo 9.67679412118665 9.424304957575227 8.770525178584249
Mo 11.459097723919122 12.58046039661754 5.8743450617831146
Mo 9.776360399408238 13.394304690169346 6.928858339005698
Mo 8.386258858726038 11.83673424504107 9.298118409974267
Mo 9.4608457271985 10.738357524662652 6.629761248620355
