47
Energy = -434.86211082 eV
Mo 11.901783934131988 13.035755075399774 11.976105576482844
Mo 7.784239792861265 8.267936752461512 12.651126607138474
Mo 9.54524104759428 6.168788779106965 13.225572118800816
Mo 13.712076030766811 8.896336152596493 10.013154118555411
Mo 11.761717549499503 10.77915280305483 11.102993835734909
Mo 14.020586492678262 12.04318006452519 9.803646846977912
Mo 9.61634397533794 13.60394335286614 7.49190535742426
Mo 7.402998728306045 12.11540930889505 9.088559405011095
Mo 10.50833792871346 8.883728597321172 12.43868819912793
Mo 8.698913051858723 10.98543200698784 13.444952249069392
Mo 9.387154403328411 7.233136112337411 7.705067786506504
Mo 8.052619652389962 6.144004933622471 14.392509073013164
Mo 9.655496784221597 12.705797519448767 11.413400239427771
Mo 7.260201750021859 9.046496088664448 15.10250938320303
Mo 10.40761989258901 9.777110160983549 6.780266472511075
Mo 5.7101086824743135 6.869662516678342 12.923824114470086
Mo 14.751303786551437 9.993788541723257 7.426100831306582
Mo 12.336498562375253 10.558066853667755 8.478348365198658
Mo 8.403820977082889 11.602119110684777 6.638944073618881
Mo 10.832384385648977 11.151298513009255 13.735561851312106
Mo 6.781201640830811 5.766386034784828 11.698199315789026
Mo 14.018214965481762 12.357888921186879 7.576200872543687
Mo 11.01611977746999 7.693808770318188 5.727129059850323
Mo 9.939933910082186 11.610483199033874 9.038381493633402
Mo 10.362837221230123 11.082340450914879 4.398452022058584
Mo 6.49462314749173 7.646571468922539 7.8186085611923435
Mo 6.677916308688742 12.062361810446063 11.735879104495083
Mo 12.416794398326905 7.931176433885096 7.521179313881066
Mo 13.134581902904573 9.830409025225483 6.031545102073289
Mo 6.025427867665338 10.346684846020553 12.332426029102203
Mo 12.266146826728429 7.199986074130985 10.885645750097053
Mo 13.333680055056416 9.3486014428153 12.37621487747323
Mo 9.035421243168578 7.143335222974718 10.570413608254825
Mo 9.204112079426114 8.781098081555479 14.951615638082288
Mo 11.354222712192376 12.389187482232833 6.6071875821094705
Mo 11.973925077600791 13.217647332855277 9.54046609911279
Mo 12.195415106095913 7.560472503495585 13.345191700730947
Mo 8.51833952306132 10.182683525648159 10.8660275554782
Mo 6.5108041688737615 8.04793126016865 10.243132071186057
Mo 6.257436080298128 10.225535139471761 7.075734236318182
Mo 10.777563823253024 8.684205911232699 9.557184201851927
Mo 9.378838930571677 12.761246535410722 4.522924689974583
Mo 7.736324109993678 5.902069683642456 8.95393105664447
Mo 8.073877232932272 8.985445112952265 5.4174233337328515
Mo 5.843827399209511 10.427125643491848 9.465075175062287
Mo 8.288892914800968 9.388870304344204 8.427882045381994
Mo 7.505735045430544 10.436965416100952 4.354373876295611
