46
Energy = -426.28437505 eV
Mo 10.543311577355594 11.811029091577263 6.064113128048896
Mo 10.413161393960552 9.659195879559146 7.849276633719259
Mo 12.32068542523676 11.163775081082875 6.99234475492567
Mo 11.836286100311288 14.086410124546154 7.086305985196003
Mo 8.171268493079799 11.03025874819639 7.7759767939329
Mo 8.81716251773387 13.326107276363256 7.338197883035414
Mo 12.914360942148322 8.545588245070922 7.7623019146253975
Mo 14.511694386850504 10.303236368084793 8.91552536436103
Mo 8.388979564039753 8.5837457250851 9.1880541009356
Mo 10.397481866378651 15.338470107171055 8.007205751072073
Mo 13.236763636824831 12.625081162002601 9.027695359159685
Mo 10.792727440472245 7.550121897174862 9.410641740583898
Mo 10.504242966620716 12.352163455325941 8.805626815331209
Mo 6.846628978511399 12.196336743407098 9.357895690065085
Mo 9.169315424777652 10.622110198526757 10.344821512952949
Mo 11.712985732008525 14.585459972788154 9.92382594091442
Mo 12.086893665648303 10.029008923747867 10.035197356079072
Mo 13.2627187277855 7.430206690325081 9.48745871603184
Mo 8.555044599274082 14.296588941651477 9.698460519647645
Mo 14.762200053939864 9.158739599450453 10.971579220926042
Mo 6.493814236486718 10.137400290948117 10.176145433479354
Mo 15.070833273939066 11.843652441376625 10.828676889137142
Mo 8.626646922814349 6.12623548862781 10.670442995687589
Mo 14.530118086435492 14.472642381694897 10.820190942034314
Mo 11.559815035289144 6.078162217178107 11.355707629800117
Mo 7.048049795696553 7.581995835705475 11.128733322629998
Mo 12.46971879308085 12.527685689200235 11.522672660610775
Mo 10.357782057143764 15.62198896357257 11.639387229446776
Mo 9.740502218243336 13.065315192370734 11.428248965450777
Mo 9.855917675837865 8.198569364246346 11.787039694305383
Mo 7.409658158522876 12.3764679941686 11.81289441926009
Mo 14.831874809405255 13.615934624473041 12.656509349146232
Mo 13.878378657788828 10.655676581989132 12.731642940045258
Mo 7.842632461188639 9.982085354424845 12.461690130118404
Mo 9.819004135350031 5.470388927039806 12.797957422891969
Mo 10.768578588242034 10.74938415083219 12.679162295180355
Mo 12.490451680701577 8.380179458317679 12.03833458917226
Mo 8.142507270998658 7.172243044230658 13.418220867123132
Mo 12.414069976382942 15.028273720181225 12.556605766793146
Mo 10.805284203107464 13.678510088476918 13.67958739262671
Mo 8.859857788753386 11.902291229798816 13.872594471267053
Mo 12.773465850020392 12.392691715404595 14.238240314675412
Mo 9.585179141820946 8.995690346974865 14.444040174949519
Mo 11.029135808567233 7.245111982662158 14.04700692099312
Mo 12.24450494472116 9.59648789708859 14.551391279962393
Mo 10.95715571969946 11.260151571074605 15.463221504864954
