45
Energy = -416.91279059 eV
Mo 7.82539882348316 9.700876447534323 13.081720429401516
Mo 8.144449178724189 7.4340159915394235 11.175868611338212
Mo 9.213059909613914 10.715487488090476 14.785949809614433
Mo 7.497437280528868 12.293640037200616 12.786482168091187
Mo 7.889576482509222 10.251588859254527 10.572306107068556
Mo 9.857578030399639 8.389847832419012 13.187721655880305
Mo 10.79648065312863 6.191101146743608 11.417679263102396
Mo 10.983318364460336 12.058547784530784 16.20011656156969
Mo 8.170165206041649 8.059173717708001 9.250923887125497
Mo 9.396589026917122 13.24423343332679 14.158537000940106
Mo 9.733720230782696 14.010660896001744 11.746848535443617
Mo 11.505593866063444 9.688171696116973 14.171242919066726
Mo 9.934735923883952 11.237996734231846 12.244848969387087
Mo 7.98471818433769 12.749099482809218 10.547891956876846
Mo 12.666181691301738 8.036906108373909 12.290858235811477
Mo 10.45657131637995 6.357296053996692 9.53632186998394
Mo 10.450945054771443 8.9121431808094 10.65606160611104
Mo 13.551375329574462 13.114154855943955 16.662465500101554
Mo 11.214053936028415 14.239943910840209 15.805309886376048
Mo 11.747328721483363 14.70544323255003 13.331625708557999
Mo 8.609918086307207 10.76495438021006 8.098913622063133
Mo 11.80829629300374 12.282326742524264 13.83134042503693
Mo 13.919467793656633 14.050437500522163 14.440864514682255
Mo 10.2889170899385 11.610726401755265 9.584457338086867
Mo 12.0881884336994 15.923384673384795 10.698075650709667
Mo 12.571832832760984 10.418968880336156 11.610789443130747
Mo 10.614852754252043 9.06640954329388 8.131263195483134
Mo 13.685207691032216 11.375223345918773 15.648039101759048
Mo 10.34383936142443 14.247800110586379 9.25004815349739
Mo 12.688945286311538 7.877587057211793 9.912660015907692
Mo 14.751889336300978 9.660388522405736 13.367299651465968
Mo 14.403270583475306 11.994391579803303 13.000455463244949
Mo 14.161168833259854 14.452331565998868 11.824581843272284
Mo 8.691130140461937 13.198154430178487 7.6585525491674185
Mo 14.724982454500754 9.345580356622571 10.689518928039474
Mo 12.234253885107133 13.023199630313737 11.075171864710128
Mo 16.221338685230403 12.870649590534912 11.445638473691483
Mo 10.800621739679302 11.489545964211713 6.8139834238101775
Mo 12.246341347841831 15.93917107890727 8.690598982004218
Mo 12.534119776200297 10.346731443083689 8.914868089804774
Mo 14.193031767644776 14.492363488721242 9.468851147248184
Mo 16.465970809533754 10.427872061811506 11.89429423870904
Mo 10.684340477917166 13.65222929798684 6.542024263779621
Mo 14.627668186670986 11.858950921948464 10.135568593386292
Mo 12.445045068527842 13.038705767190843 8.446772649606036
