49
Energy = -455.928751 eV
Mo 12.42480212150933 6.47800276405667 14.37783625839661
Mo 13.036591083174493 6.718151156426988 11.536534870744502
Mo 13.977439828496156 8.631688657738804 13.986641442035458
Mo 14.405322753663215 8.962633564904863 11.566844669397854
Mo 10.914233106573995 6.644780771138454 10.763132043451078
Mo 15.03136262088475 11.080088300547281 13.465304998449891
Mo 10.699281922747195 6.157107641711666 13.397869863615538
Mo 14.687255982285286 9.478705804953105 9.080188025553102
Mo 14.967641401757907 11.410707026524584 10.75254992435919
Mo 12.278155293037841 8.834129373282515 9.824337752151948
Mo 10.930903225729912 8.643733612934893 15.010558051119611
Mo 15.357684289660696 12.187920399004138 8.170902959778878
Mo 11.766957834485467 8.584412280803924 12.641930102613028
Mo 13.752640921144327 14.099830832540624 7.8510063299968795
Mo 12.628104465354378 10.651081419167678 14.264604272134202
Mo 10.097862575858517 8.012319951947612 8.469958194258714
Mo 8.29609714708158 7.421974422660995 9.93649400676869
Mo 14.170953634380457 12.921027378060794 12.927754187242916
Mo 12.549951605706617 11.066210307575677 11.687087591751698
Mo 12.193425854233611 9.581647460713066 7.329076685219113
Mo 9.036853689961951 8.379569200512911 13.525218451950753
Mo 12.893093596874786 11.546939409120434 8.834907691326496
Mo 14.605237113443016 10.369898571628273 6.837887999539989
Mo 13.527822453905593 13.595162048858553 10.378090937883782
Mo 9.374665647324498 10.688298759354067 15.264598751668775
Mo 13.16729023934813 12.398533226442158 6.387604449518404
Mo 9.636475289136584 9.036646918851748 11.150383677491941
Mo 9.264479414919153 9.59796353726618 6.978229934698174
Mo 10.07934247019734 11.030701937747164 13.101133736500293
Mo 6.66681314301392 9.018376304017869 11.608484298168682
Mo 11.840607588214993 15.54315784495989 9.864806698110026
Mo 10.37277830551694 10.805810366314962 9.247222602734025
Mo 11.552716504843527 13.249558707737535 13.763403883347769
Mo 10.965726696981996 12.970700891380787 10.861292381820594
Mo 11.731865649887922 14.858453919956789 12.54948689373928
Mo 7.323326241650142 10.559926338056668 13.571231165713698
Mo 10.560538117215367 11.687841308344437 6.972855837176593
Mo 7.818243663093661 9.824667818950775 9.096164391415053
Mo 8.402883185494945 12.89149785123849 14.734406839080439
Mo 11.297742704587717 13.806092657821754 8.275550383266166
Mo 8.233342003772407 11.45918879091259 11.203323798122431
Mo 9.145802498728104 13.761077523978795 12.634316922332896
Mo 7.418655051077667 11.72078732806933 6.981060219426447
Mo 5.705064710019084 10.683190036751952 11.056655984787483
Mo 8.84354362617776 13.006621030789432 8.85864575863445
Mo 9.685920513052865 15.165353728273145 10.26978076014035
Mo 6.5643889130016655 12.664991347412947 13.181885507353984
Mo 6.389197439675897 12.073239684742555 8.558456584127796
Mo 7.373307935522204 13.729195087574062 10.884024409325649
