41
Energy = -378.33125855 eV
Mo 8.082473558229358 9.826160640631665 14.21531238683511
Mo 7.472724781403828 8.035435494565643 11.909047813037942
Mo 11.033383675033015 9.390093465713202 15.079181098901351
Mo 9.9156392997275 8.266327733075327 12.89086815165279
Mo 12.278218292665139 7.749954228756018 14.132465805949357
Mo 6.4472211132222625 10.15208432121125 13.172108560521425
Mo 9.674940034246704 6.508829308934428 11.289730362142794
Mo 13.872462348392524 9.847961694138448 14.674498815237385
Mo 10.240414923571922 11.423990004821434 13.292535304916832
Mo 6.163014928051314 10.081603257667922 10.159727494796869
Mo 8.29054566881084 8.197100372347316 9.539224426947575
Mo 8.09290074173171 12.51265221569748 13.058388433525023
Mo 8.661310374404874 10.211773857546767 11.496522652777246
Mo 11.951177708877108 6.908036630431616 11.183086492584174
Mo 12.351964084955844 11.505883129408756 14.948507922155333
Mo 12.344073020396568 9.701231688871948 12.485924729080102
Mo 14.471327894926533 7.929266865605832 12.428473774954327
Mo 10.441600020211713 6.532607496409261 8.541791584146544
Mo 10.631739424340392 8.879284816330303 10.193484567792048
Mo 6.500308179541874 11.857675562965813 10.755766661620724
Mo 8.487122924931027 10.856771784275573 8.97297907670298
Mo 9.196608589482292 13.037233713111199 10.93608433126053
Mo 15.023701046036484 10.04434690388749 12.444001167032164
Mo 9.982574279844124 9.288582718005317 7.6480154460314855
Mo 13.617885784035776 8.720616453660751 10.29838539896822
Mo 12.117337379759945 7.389517706179435 8.265737131210223
Mo 11.155054713893007 11.384489324660214 10.727930327766801
Mo 7.931420814540523 13.589160811081188 8.496159565097178
Mo 11.143411826575374 13.595517906037042 12.409634074274896
Mo 13.184981474835887 12.188904239200046 12.75954130388364
Mo 12.254191640227589 10.262924509401556 8.464205775664281
Mo 8.877421643028011 11.614353102381276 6.637927953739763
Mo 10.624164976264142 12.441325957315158 8.308882204133736
Mo 13.721175882780265 11.189988523566015 10.25054797674029
Mo 10.442716731028682 14.90972886765302 9.38893793481342
Mo 11.479170065658801 11.114601874106405 5.969178617161428
Mo 12.410192383421155 13.630741173326689 10.17609778558357
Mo 8.968234006194555 14.28017892391401 7.011165321907265
Mo 13.248204625132738 12.92381752798188 7.946137869158292
Mo 11.11639877837615 12.918453291359022 5.542513268226699
Mo 11.935261612792985 14.69451424710041 7.56974242682811
