41
Energy = -377.89581373 eV
Mo 13.91784054376919 9.10776207161885 9.659751018226633
Mo 14.183179782427684 9.839643551166136 6.857990975682665
Mo 13.811127258899797 8.003991924228531 11.76018407767663
Mo 14.416367886550653 10.886377869777366 11.496848059988315
Mo 14.35805169337819 11.793912947942493 8.990244085080354
Mo 11.86566496632278 8.369854730338684 7.765314968997677
Mo 13.723383554470432 11.576390935174823 6.4100771809734285
Mo 13.160458731103274 7.021976178305159 14.072864278831144
Mo 11.29835662559687 8.338494608782538 10.43426728043138
Mo 14.348817991646023 9.703695982137514 13.624902583428087
Mo 11.955068545706919 10.818959498892696 9.257660959183935
Mo 14.54734177484884 13.084980248970373 12.971015549028646
Mo 14.678416725442691 13.91654704357963 10.746055994951355
Mo 11.296558822946396 9.971647780019474 6.748089622075241
Mo 14.129821978661775 14.095520173819802 8.252178874043937
Mo 11.413764021794854 7.303805914556355 13.134485535654985
Mo 12.40864161130026 9.220585043471369 15.041718552955789
Mo 11.944731096207619 9.945127595867696 12.27966751102009
Mo 9.353561193235851 9.369275800220278 8.827106787113726
Mo 12.349306832777296 12.492002054768939 11.156040578079368
Mo 12.069434162686273 13.172067287180255 8.09914569888952
Mo 12.812020764178012 11.854126820267656 14.016905650665043
Mo 9.279709127043116 8.705218211837202 11.837168418137917
Mo 9.818584350648162 10.91664390232289 10.855624208641661
Mo 10.27503343754871 9.76553882462757 14.17950472284541
Mo 9.579817441921191 11.711590386944955 8.093522959665274
Mo 12.317386172224 14.423389959688484 12.732989080892114
Mo 12.540079972779722 14.950051623271765 10.288553109324484
Mo 11.197593447847972 11.691361918296936 15.945130091295852
Mo 10.348562486381292 12.396088390294919 13.11463145464426
Mo 7.263574878751587 9.779968340245038 10.47446835076698
Mo 10.161794328393919 13.422633279909963 9.962120527584734
Mo 8.014236241103895 10.79194808577 13.056890732962609
Mo 10.783075217026026 13.633493430953889 15.34047426825226
Mo 7.678225673889684 11.869310647374022 9.453540551589484
Mo 8.516337059211878 11.831134975442746 15.638473186818429
Mo 10.102365940505278 15.78888450379552 11.369272508387201
Mo 8.344487896691776 13.310987559517054 11.660951025110961
Mo 6.378103169778839 11.667306867588 11.918802932550689
Mo 9.768684048252519 15.267850805552623 13.17366730654635
Mo 7.94486201981879 13.171068820325047 14.41387840159381
