47
Energy = -435.77071666 eV
Mo 6.789218265080315 13.626778116051433 10.101168197400767
Mo 8.845609186626586 13.276867906374978 8.511212254613683
Mo 8.090675485245491 14.991114722154308 10.76680704600682
Mo 7.9733603291708155 11.22117196625401 8.905369154298151
Mo 7.359306125404569 13.269318287339026 13.085775767906872
Mo 6.221350036745368 11.00718259399115 11.34252322659544
Mo 10.678406857469415 14.500505013114578 10.347893245188141
Mo 12.721529250552141 16.205188786220912 9.59101299692569
Mo 8.86662803446308 12.316616007062507 11.29503252720467
Mo 10.034563115164387 10.55226372537869 7.648236115154611
Mo 12.798356780060304 13.4342355014912 8.560317431536932
Mo 11.95074878441196 15.918478629174007 12.498774263860422
Mo 9.050148631111387 14.45326498129407 13.222760803610553
Mo 6.6229760381992255 9.214519463967118 11.042325953336457
Mo 9.628027495982513 12.058551852142415 14.434001055326531
Mo 14.489132962421264 15.470337225759463 9.223953850222417
Mo 10.884582479474167 12.087802879975124 9.567557468020777
Mo 12.896583927863015 10.676802349353942 7.702573130154367
Mo 14.349759574134884 16.007513666239902 12.013925699052743
Mo 13.39076604969657 13.905530976523742 11.090994029545783
Mo 11.675612693261176 8.105714696167318 7.411592607508984
Mo 8.499448507635865 10.312241841950739 12.789208813078421
Mo 9.58023660186867 8.249543735481431 7.867999819206822
Mo 14.87951341205656 12.291259426972653 9.137469075671499
Mo 11.617233461120057 9.293980447715883 9.679905672043406
Mo 11.263174399295963 13.133872918122535 12.470950789922346
Mo 9.199739792418583 9.44242856895657 10.310619609910493
Mo 12.764888981084551 14.614011630339066 13.967098757767925
Mo 13.12841421971755 11.37662445135914 10.626585524877761
Mo 16.248991368851993 13.654829766242564 11.0619727691349
Mo 8.282602251973769 7.42684539088038 12.88410963235697
Mo 11.025045490656407 10.611182571925312 12.272147428663601
Mo 10.155106780976487 9.211027505225308 14.572424077330684
Mo 8.46624925234527 6.81483089098777 11.087192261765628
Mo 15.167713669951356 13.904037578021292 13.059500200538192
Mo 11.661455359415058 11.787482860251924 14.86309032068019
Mo 13.73556459175372 11.691712144505429 13.088764597898173
Mo 15.696359668466348 11.490624701580575 11.471614674703073
Mo 10.89450666522971 6.397738626335085 9.630796439949307
Mo 14.247500712611231 9.618974659019221 8.79425938145432
Mo 10.886151770278833 8.083682440354227 12.047531306232708
Mo 12.377930169884634 9.278485018328675 14.141336990242259
Mo 10.663833714735533 6.426424346427949 14.286243417108798
Mo 10.719961465780187 5.486625979586847 12.672202901445925
Mo 13.611811251102019 9.022417983352636 11.695767057784233
Mo 12.664359125872343 6.780118309097738 10.125700941005272
Mo 13.123815743886018 7.145602960403636 12.88675231099304
