49
Energy = -454.795024 eV
Mo 9.056725180445397 10.653381102005143 7.224643658047416
Mo 6.582273080638557 9.08927241468591 7.8411654123583885
Mo 11.502523934036159 11.530549685144434 6.347709456364554
Mo 11.82888320884118 13.408047683814315 8.265354874332319
Mo 9.469213658508671 12.938617187560268 8.248261468065339
Mo 11.410425377316853 9.571484426661604 6.706149713667665
Mo 13.582892792785499 11.025347122140165 8.222814451197417
Mo 7.387623177030329 11.521875513144872 8.933628926154444
Mo 9.140323132109817 7.831575507558621 7.587238595549812
Mo 14.563024673353475 12.882019782179002 8.851931851672976
Mo 13.421697680800749 14.758804777653367 10.599784959408586
Mo 10.876780118067686 14.410996842964769 10.331346865675824
Mo 7.677911434480974 6.73599748518903 8.948098398389437
Mo 6.061912437940287 9.255911362793931 9.666572354630489
Mo 10.973546453297514 10.860296376852373 9.077032908676463
Mo 13.215444449061648 9.529079049325619 10.37335137796201
Mo 8.840444743876933 9.365821460320774 9.62845180523043
Mo 7.943948143110637 14.152609198652097 10.434259344050622
Mo 12.465151106416638 12.293995544076347 10.590881275130595
Mo 11.236564039050563 8.19706679706383 9.212080876368258
Mo 16.743043556211227 12.726160266976455 12.356175976271405
Mo 6.299933772171261 12.41583054110138 10.904760062943254
Mo 9.619774784966756 6.576571787830244 10.105208908118975
Mo 15.999016219886464 14.112643018196392 11.114959012217499
Mo 15.004129817652334 11.401898327817452 10.724403091275521
Mo 8.056896450060565 7.907771469794286 11.528473433741969
Mo 9.322640828634489 12.01032035820461 10.848000170899617
Mo 9.855510106651998 7.166132945631413 13.134959020244631
Mo 10.580758679053442 9.667084164224377 11.86504605669277
Mo 14.092519116867509 13.11846440975549 12.832884681369324
Mo 15.5059940422494 10.640411048195018 13.47318983030144
Mo 11.872807628495583 7.415228956367057 11.633234787260376
Mo 7.63625504466165 10.515296934282016 12.046672205344382
Mo 14.143303669003991 15.912231335511452 12.618413042227907
Mo 13.942500360407482 8.331080177872165 12.445376987497113
Mo 15.847101906934771 14.710947597488193 14.240555682450381
Mo 6.995667603929794 13.181881451568628 13.01507757642695
Mo 12.12132420649023 14.937366875364065 12.950445319686791
Mo 9.225309627319703 14.431759091820405 12.335733544788111
Mo 12.993835645130948 10.682648471592364 12.83336728580164
Mo 8.74980769500512 11.901851765120005 13.78010066904284
Mo 15.310083541319619 12.155270279030862 15.093039355183555
Mo 8.977664381041588 9.039992398384578 13.948484076016436
Mo 11.988281924960395 8.634508233122599 14.199157717797117
Mo 14.08000823879105 14.773139411039653 15.177612794365551
Mo 13.627391539593443 10.264830453422508 15.371106440313381
Mo 11.031803389518295 12.582534543247032 12.83517815513826
Mo 10.788470065501418 10.584641689031239 14.747989742814896
Mo 12.602017009362902 12.43991235126334 15.000795473877684
