44
Energy = -407.82858526 eV
Mo 15.922709269140999 11.471047533569115 10.448175292673616
Mo 15.12375533303086 9.418197626371294 8.233922601256836
Mo 14.597631357279274 11.677074218857376 8.342331419710137
Mo 15.554318529540298 8.945700231049752 11.004152881209045
Mo 14.225031737416089 12.656352475199782 11.151353165395353
Mo 14.69447509123663 10.209388022324742 12.71276058071573
Mo 12.922667220060958 13.804495242975435 9.268036826055996
Mo 13.119904668051715 9.56029947461487 7.121457745533137
Mo 13.382013463634248 10.21354908008551 10.18587140256342
Mo 12.034967121258555 11.823484213173241 7.829192340078375
Mo 13.270500767076022 7.691750132482015 9.065364883027105
Mo 12.387788058039702 11.419783415037854 12.638469660219084
Mo 13.408418817698378 7.900077115137793 11.620326025956368
Mo 11.222703843325734 11.750009482256258 10.298037047389183
Mo 10.233157865319388 14.435185522054574 8.763274586176971
Mo 12.65631643255127 9.081618505993255 13.746817381010866
Mo 11.641239817253075 14.021330689134414 11.24461236255665
Mo 10.687180174503428 7.316455406171221 7.345105974072243
Mo 11.103407278706577 9.421675074854518 8.78151654834475
Mo 10.489064683685266 9.906204839108705 6.139859614207639
Mo 10.94104255897703 9.173527488657708 11.684253276291802
Mo 11.302217163311795 7.001909091212994 10.137896462522521
Mo 9.518357167843416 11.79136034851262 8.02268367012352
Mo 10.754875124074463 6.967471331707566 12.984648110744645
Mo 11.270281777336388 13.539937791908859 13.955887727501747
Mo 11.340996782020413 10.846759139371228 15.144556488196438
Mo 8.909570553828832 12.767201528455663 10.703931293297103
Mo 9.346660362612145 15.323289563151581 10.244686419749268
Mo 8.731142617301407 9.599685571892266 7.1350789843025595
Mo 9.165788089786012 7.377160891595242 8.747738785124723
Mo 8.89660344230213 9.984781948918489 10.101462578531015
Mo 9.175710895926265 6.765952391726663 11.666154337097062
Mo 7.431949630819719 13.542699842677695 8.523037280704672
Mo 9.666878859919521 11.363681579832814 12.763892969160176
Mo 9.69105476342952 14.31004214899345 13.120550065090097
Mo 10.049161191272562 9.37307812709895 14.65714814658089
Mo 8.295312757110423 8.843726982541861 12.666681477006112
Mo 6.858564224768771 11.749188619426523 9.009473899911187
Mo 8.76432764442062 12.25101842914839 15.095642827448485
Mo 6.446123377711811 13.823481760241059 11.26356680381861
Mo 6.8880474231045685 8.902185699486793 10.812418417218169
Mo 6.951020872915448 11.14146122524432 11.723581796664622
Mo 7.521132925927428 10.905617298776033 14.47664346575163
Mo 7.014483819766778 13.511041055205053 13.005652643193939
