45
Energy = -416.02345384 eV
Mo 14.688258850933586 9.776594789871927 13.67759638107948
Mo 12.422037828546978 8.324349026220673 13.015456255918343
Mo 13.20378510009545 10.485704885578478 15.178034115508213
Mo 11.600141854604221 6.963417972052662 7.951068843685716
Mo 12.2181250646898 8.138638051761646 10.179089218298758
Mo 10.547855654306224 8.895514987303512 14.613698974707773
Mo 15.673368007383983 12.014792703758824 14.250738117107502
Mo 10.443302584542824 5.995881604916092 9.265214212081892
Mo 14.020584435083718 9.538774663046361 9.027452995836374
Mo 10.680869157433523 7.099381593633731 11.970244143941164
Mo 15.078646999952571 12.227577950645173 12.128179675749942
Mo 11.965839223593152 10.981971038952983 13.106696540604807
Mo 13.4139191037242 13.021444112581012 14.40172064519221
Mo 9.000397822052289 7.4206139412178915 6.966927911971177
Mo 11.197897632041913 12.259903984419196 15.600520756737312
Mo 13.7494936669003 10.115786807466884 11.330228028328923
Mo 8.248174614003865 7.2028694261612545 11.08197346658355
Mo 10.00507610439892 9.52453897512898 11.807132569149033
Mo 11.974475921409391 9.86334940837093 7.713802345869197
Mo 11.60164816349841 10.893786764820241 10.108889074540363
Mo 14.745995320166482 14.529102851894608 12.901892739321982
Mo 7.67769370880771 7.021084916960757 8.322486526196348
Mo 13.652981180177843 12.10900744123222 9.274595300142394
Mo 9.525949420255309 11.060714223853292 14.286415170853047
Mo 14.545225286079232 14.551381881187618 10.152342632344203
Mo 12.568008279680122 13.281358769423532 11.653266117372981
Mo 9.780050988940946 8.57241061236245 9.315847077376992
Mo 7.300121118135621 9.107702674865019 10.631243374800446
Mo 11.747877594047395 12.206112574107799 7.560635181281251
Mo 10.782890540633215 13.665461062253037 13.783190505115552
Mo 9.569214692052144 12.41943191066257 11.918058803187908
Mo 8.523473332331767 8.459048494407236 13.510090009333414
Mo 7.559384636740657 9.804201892986757 7.897485541020099
Mo 8.758025121371686 11.245943278764223 9.697918832099678
Mo 12.601421942122721 15.57481410474483 13.646611273602552
Mo 12.817810136125072 14.672408528695112 9.13617378783827
Mo 12.825128318270545 16.255565727229747 11.536875923767353
Mo 9.611536137460183 10.10219448889922 7.0252537625257805
Mo 10.568391335692574 13.186343723892872 9.459549353497453
Mo 7.663889803485668 10.6937129403521 12.602782369272058
Mo 6.897154445537642 12.507870856613268 10.842492306896636
Mo 10.821331716391022 15.08289732777079 11.491281463472108
Mo 8.556792495855746 12.606231458764299 7.414362473320895
Mo 8.29197309109325 14.049635739699355 10.306755599694016
Mo 6.741355825545281 12.358044086665252 8.125303858971115
