46
Energy = -426.96222187 eV
Mo 15.023166437058796 8.402515844478318 14.203206343354374
Mo 13.395042990026717 7.8018460463359 14.91953592698294
Mo 13.638676674536049 6.544812615364591 12.451614781005532
Mo 14.891881420779757 8.086296108468149 11.159135347427554
Mo 13.10929933254408 10.618783537458702 14.747995428156795
Mo 11.064841996126205 7.268340045721695 12.911527163235085
Mo 15.091749094508899 10.613703880195875 12.334105593416997
Mo 10.825325041337331 9.063009427018693 14.525169321865175
Mo 12.880881796597631 9.230264631545431 12.463396543368553
Mo 12.29026865702025 6.819454113051963 10.635342975527283
Mo 13.212927103203327 8.896128285695653 9.605297375219152
Mo 12.859763315089255 11.419040151642067 10.583275210587109
Mo 15.334753992732415 10.737482184433874 10.068868802659093
Mo 13.30644796402973 12.391973098843396 13.051065498168205
Mo 9.010997662643526 8.5661132215713 12.386953820586141
Mo 9.284147404951693 7.175447909156094 9.942525621711049
Mo 11.137383158006658 11.823097483949514 15.122579416137038
Mo 10.833742384357366 7.656367378672098 8.570305598595963
Mo 8.425339718963624 10.602710157798887 14.081856839096526
Mo 13.315271443318203 10.992936600811348 7.870053947101607
Mo 10.786279545129295 9.303703483419723 10.770034627124607
Mo 15.032296973552326 13.112349374757251 10.930420460274158
Mo 11.281642169788348 13.733251571333895 13.157689901662906
Mo 10.87642943254312 10.934962695413343 12.841271335754058
Mo 8.358519279005431 10.816562890263542 11.285433866830575
Mo 6.261329297153548 9.809264153093354 12.926645431993935
Mo 13.672499387912598 15.27229077177037 12.990994740775486
Mo 11.227039260756223 10.529012760047992 8.306722305828911
Mo 8.745620854827559 12.704971029958852 13.202666697737033
Mo 10.343424245009967 12.46132815827282 10.591718732230442
Mo 8.768187561639547 9.424788522767185 8.983864642728285
Mo 6.696158809921038 8.739934312584209 10.291477025192686
Mo 6.152865765646437 11.746220657442782 12.663856465147017
Mo 14.701225295931854 15.823450964583845 10.02834714464823
Mo 14.17819690510426 13.287737829681504 8.852680754668635
Mo 12.441336190793576 14.258427116769614 10.811346712938555
Mo 7.534627699171785 13.070698359179643 10.54913908085712
Mo 6.1923898081887945 10.567982971376452 9.745236944970763
Mo 11.937547370725689 16.208531239389124 12.75649806488198
Mo 8.55808292658088 12.025734264570783 8.711878205542003
Mo 13.375473453557976 17.05340881976322 10.447798237164683
Mo 11.54983480984444 13.139555381515242 8.292298759785723
Mo 9.475354852083852 14.66652111756923 11.548321006547015
Mo 12.294995903748632 15.39529707893056 8.472169209601633
Mo 9.51507917992566 14.48285764051307 8.841177167206508
Mo 10.611053577586151 16.239577947523284 9.93937387509417
