48
Energy = -444.83637657 eV
Mo 13.55138469445081 10.605908485506625 8.976561406646386
Mo 10.177438705917922 9.457674058316668 6.731995211190128
Mo 11.95841929708251 9.848123472163016 6.745833417868476
Mo 14.629892959494384 6.795947618661704 9.755653970711132
Mo 13.682308829427578 7.9120382949303325 8.36881874105622
Mo 14.711664124187209 9.11178578425116 10.797800694749744
Mo 8.700787705509162 10.07970002206548 9.10402319657194
Mo 12.793187136518094 12.910708291236153 7.990829262573979
Mo 8.581373170553626 12.23381257707983 7.37325842050644
Mo 11.27463955187217 8.687085764432428 9.325335620260535
Mo 6.827684040724506 11.720017466792589 8.830032016741354
Mo 15.407595937564881 11.607516783007192 10.365365107578778
Mo 12.429272789014327 7.216370887728017 10.823869973429655
Mo 10.712359707835832 11.46579020159951 8.675498225189703
Mo 16.451228983001563 10.197989696178627 12.633874424695666
Mo 10.020593438314295 13.930919774449068 8.443254453667405
Mo 9.936050317492029 10.777586058705289 11.153613098674377
Mo 7.797508377177527 13.911748456969182 9.486381973493177
Mo 14.564075264028302 13.489597241097593 9.09451006560258
Mo 9.815269388075176 8.26455816866243 11.67577441404201
Mo 11.283656457195477 7.508305245794161 13.07274590651292
Mo 14.288234272355659 8.254845460709586 13.29779023108938
Mo 7.6106908076550575 11.81922721122596 11.14751114125268
Mo 12.321995082689668 9.741834249841407 11.538185014896783
Mo 14.154454663811098 11.210846783555983 12.83209179031787
Mo 12.563395556823544 12.271538959980532 10.797032863902606
Mo 8.484215171894284 10.297648984238402 13.369289996650757
Mo 16.74192649386378 12.332136766033413 12.129788734289868
Mo 8.172537144392223 15.415054435170969 11.597912922455999
Mo 12.370868145885115 9.523362678141174 14.399180642943541
Mo 10.048549835387899 13.368531604254583 10.868098171805874
Mo 15.035899417868274 9.540015658216696 14.812650871113034
Mo 12.32782835249209 15.05598727534435 9.993114706769514
Mo 6.722508932873788 14.129281682029863 12.148634617393405
Mo 8.916435863950905 13.201554385873173 13.150152940816335
Mo 14.214617848911045 13.74631895875781 11.968967115946448
Mo 9.67847216939846 9.206701258892842 14.501766973650728
Mo 13.404099254431344 11.90167916012089 15.253339472352582
Mo 10.920516831756208 11.061830003883685 16.31106483607864
Mo 15.281092305473681 13.071709062250495 14.454014665057853
Mo 10.787899894628085 16.001683030645466 10.709574730232182
Mo 9.795034324335656 15.659727646331426 14.015303583884782
Mo 13.741702593195726 14.64584953162145 14.583147965974314
Mo 11.110188392705059 11.602124054117114 13.44612627673233
Mo 9.307748000813975 11.904796200510534 15.6754255079878
Mo 11.875615568523198 14.381172509584744 12.63886033592224
Mo 8.789887813415827 14.75670869364665 15.339890113967675
Mo 11.454471473190768 13.591926493554377 15.02333126291247
