42
Energy = -386.36537608 eV
Mo 16.16545765789035 13.562658286608627 13.24363680981413
Mo 13.69661148463551 14.937304505324072 12.951805518646774
Mo 8.774278481693825 13.381732277357616 13.766414998403164
Mo 13.544852876817677 13.303602064072653 14.288864539091874
Mo 14.91210638208069 13.780012051708091 10.749092196804856
Mo 11.312802575033636 14.239722187901402 12.57226513223504
Mo 9.143676450151233 10.810887653824318 14.896180379171401
Mo 13.108544477668259 15.168763317837037 10.406579429599281
Mo 11.155048775876837 12.236800003704458 14.135548522086015
Mo 8.693405336165362 13.45082165773702 10.950084018346686
Mo 15.681987338752794 11.822334580366471 12.867551903298262
Mo 7.048225918247703 11.975611118283414 11.858403487170644
Mo 11.05564615148256 13.705060131595035 9.971229179282817
Mo 12.845058982729118 12.431636049713156 11.746938472754366
Mo 13.20980408995589 10.451026838357757 13.408403946834705
Mo 7.238897456270542 12.003081569165497 14.494752250515269
Mo 9.870503502250342 11.558029382362543 11.996813003608601
Mo 10.971842859909998 9.455475479443736 13.544505390278509
Mo 12.237009224158212 14.40838499126345 7.449622239436276
Mo 13.340475587446857 12.734880452902027 9.065210588477804
Mo 14.509925358907191 8.814062857606196 12.037700577739722
Mo 12.172060938453104 12.77875544551295 6.536804925115804
Mo 8.037802079381914 9.859916258159767 12.771512070104333
Mo 10.69447369361926 11.244335891723791 9.420694104880528
Mo 14.31463966925621 10.751429998541735 10.483104167853568
Mo 9.568602437337903 12.935305340362044 7.745451230955699
Mo 12.280520731222355 7.610434949703526 12.553065442405282
Mo 7.889731017242376 11.76783737409648 9.166663664710807
Mo 12.818695087534339 10.301832856439546 8.28739418784215
Mo 9.438457747086678 7.365135853531083 13.40795840156306
Mo 12.05589438150209 9.677204981483134 11.062194580917067
Mo 13.637867372106182 7.967840411836803 9.812533653988357
Mo 6.888923144023032 9.798975629968927 10.353301762974661
Mo 10.513124655508573 10.573187432636598 6.889626732456056
Mo 9.707969065796844 6.202877197573026 11.890459630346493
Mo 7.045460332628129 7.423270684566661 11.525501414558267
Mo 8.224476575589142 11.272926470270582 6.6802346928244
Mo 11.18046041702962 8.486890888433463 8.330019241940976
Mo 11.594694723855861 7.023443250094301 10.131698347169252
Mo 8.69866500030177 9.46567951133349 8.510842241843655
Mo 9.545847397544952 8.822236141848204 10.928553561651045
Mo 7.847313266756411 7.1104366766505525 9.782624062203556
