45
Energy = -417.53719605 eV
Mo 10.29523816467182 15.544971452189113 8.546444638717887
Mo 12.441419872899935 14.864184872934054 10.44453233740884
Mo 11.792024512295761 13.925688314456446 8.279266130871715
Mo 10.223925598248895 15.920939633802696 11.623975399796755
Mo 14.462185497652221 14.569300809407022 12.285413436306163
Mo 11.57761527610477 15.49498879477699 13.030307527926592
Mo 9.08264534415778 13.497471927394207 7.877521317071461
Mo 8.181644207739733 14.557610420653397 10.118541316893076
Mo 13.900294867484057 12.797724907224213 10.133417971545668
Mo 10.24978723478324 13.353558098480828 10.410183415685067
Mo 12.21848553756655 12.896682610014519 12.3518510006193
Mo 13.234634368943336 13.820755886635395 14.704279481623374
Mo 10.815405148452884 11.488487285218408 6.936129681636378
Mo 9.505514662630857 13.644926936984291 12.865778295943473
Mo 13.551157536681389 11.020383209565257 8.006308803411953
Mo 15.118243863849221 12.720909477558088 12.406625278483883
Mo 6.703200443219303 12.882493830861506 8.608874632200374
Mo 11.190074656796243 13.070831561497801 14.837777262371494
Mo 14.688001549049089 10.372978353340434 9.754152759251463
Mo 7.9739355583155325 10.61859700158974 6.805958420965318
Mo 11.825807141269326 11.16798786344794 9.700410294712459
Mo 9.03624172956789 11.277240400386992 9.214549689140885
Mo 10.794442261119903 9.634024035333274 7.3746820535210444
Mo 15.179614768154298 9.707751419340413 13.128533701614387
Mo 13.131153309094215 10.453787962834381 11.861761242879403
Mo 10.019562788467205 8.866990517953344 9.948507173232999
Mo 6.44469279886106 11.032909787605954 9.610508489121566
Mo 10.072889443018466 10.947677617851607 11.94804929152623
Mo 7.718375020520651 12.434634176893413 11.32646572794069
Mo 13.595350744110993 11.446996089252773 14.425685467483474
Mo 8.848542000713971 11.307308700335621 13.819171478381028
Mo 12.682393903731795 8.649936108816496 9.46197354396074
Mo 11.41639331247207 10.541085075326244 14.280210127107672
Mo 10.305655265418372 6.872318071053604 8.662515801352367
Mo 13.493160769857566 8.62729073515433 14.03323262735575
Mo 7.83347976755335 9.555909966535548 11.304137187790186
Mo 7.856081937689038 9.124480450106532 7.944580475448613
Mo 14.185059893209399 7.708180909771466 11.454464018202982
Mo 11.464555225929344 8.45948056724097 12.100881305992662
Mo 8.973302013337586 7.1345685142825985 11.33135126556997
Mo 9.04279416038144 8.68875481267074 13.246667782824753
Mo 11.653284054217972 6.502734695251169 10.31240685130921
Mo 10.909531128083525 7.579838735462155 14.710626904646942
Mo 13.186126751914705 6.414775753770056 12.760291039883194
Mo 10.485170266074528 6.1818249003264665 13.39090194331607
