45
Energy = -417.17849713 eV
Mo 15.89263617695372 11.196083153789452 8.406195708875071
Mo 14.191394993353557 11.844982514573699 10.49988979359151
Mo 14.656528593771682 9.21832775935784 10.148452822933043
Mo 14.143794208962621 10.041990787059058 12.758751796166719
Mo 14.469823250009712 8.668033189982372 8.065929584950599
Mo 13.972749936539573 13.10807500787791 12.77532039820042
Mo 15.04108796177141 11.11903170946769 6.719344915675736
Mo 13.981472292310396 13.480146285786649 8.445968867282417
Mo 12.899298555381773 7.87140282756101 12.274840668146254
Mo 13.427059771931045 14.333622265106232 11.301835186122036
Mo 12.149460064878363 10.50340564589085 11.451815398163529
Mo 12.936284874382492 10.702551424548355 8.458148851920434
Mo 12.346882109890336 8.09111083715417 9.828548989928409
Mo 11.757128701198798 8.812367954205557 14.014388767259703
Mo 12.50492322438487 11.34623955345475 14.144249545285511
Mo 11.938213657627276 14.269496156183425 14.518100358915024
Mo 11.77186481331374 8.266774036193253 7.406361702493909
Mo 11.498477823984622 15.080459369500483 8.978050636999622
Mo 10.423461415334968 6.569186512545781 12.950192787200253
Mo 12.674778351716224 12.832096902449308 7.013566005845196
Mo 10.990489023062517 10.2932856569153 6.230676655425469
Mo 11.087672767952814 13.049150343348304 12.377033381315833
Mo 10.9632936057945 12.940368593732565 15.513335423929998
Mo 11.546583066402482 12.670536220034089 9.713054273965287
Mo 10.421431375913437 10.134229364544666 15.702097429642286
Mo 9.836700305284799 10.847068517700341 13.57263195625074
Mo 10.218593743177012 8.763271068035866 11.545205513081761
Mo 10.782284506058252 15.245178753694088 10.889111839549113
Mo 9.99813332553014 7.632131067637585 8.807606068878354
Mo 9.276335166892448 7.745946878476423 14.014862980747688
Mo 10.384823564007814 10.177764723730117 9.070786389934947
Mo 9.057686579564082 13.682398722047663 13.649772274677744
Mo 9.949467114872686 12.319868014140509 7.457631016229168
Mo 8.24275965168795 7.319562086788286 11.001284761938317
Mo 9.256014390403601 11.53334309896659 11.071898244491468
Mo 9.136662830466495 9.501865480561856 6.850466563548159
Mo 8.203863130886305 11.732108324406559 15.708320732888934
Mo 9.1279074712522 13.707954900473117 9.309889232553537
Mo 7.677268477414666 9.961480975827255 15.143046021129077
Mo 7.933911604862385 9.16232476077137 9.80038000879181
Mo 7.724362763103758 9.497413563330525 12.350768191679261
Mo 8.2235222169864 13.975992457763518 11.564768179528821
Mo 7.022181797272709 11.936314690731814 13.160939275627499
Mo 8.038902338149462 11.575151396259788 8.549481624054737
Mo 6.660699183354309 11.74340168968304 11.100692373984545
