42
Energy = -386.51493689 eV
Mo 10.955782204667061 9.14873752572602 6.106065569941027
Mo 8.367863561087574 6.934898119410124 5.33932297603107
Mo 8.734183708361853 10.93486329924346 5.181036494573443
Mo 11.44716742786542 11.234126329398498 5.571050663704385
Mo 12.192268703920323 6.527646608992068 6.249542590051242
Mo 5.663326980503756 8.469011754912232 5.937768506139507
Mo 6.658271306201763 11.289060272682466 7.184906198444371
Mo 8.300864587300705 9.11547892224735 6.83214978697489
Mo 12.46460633749983 7.724839404784277 8.06898722869722
Mo 10.260280833038268 9.109735855232858 8.774200713046469
Mo 7.767269714508569 12.857113859102238 5.973444223297334
Mo 9.767627389839152 6.822118124421057 7.3554227481605325
Mo 3.972832733995293 10.159016747899837 7.853295764134059
Mo 11.447075052655931 12.903920355421501 8.51108177878858
Mo 6.9213696301968275 6.5787953801995 6.999393765904728
Mo 9.05292540002773 4.2765554208182825 7.11153076764675
Mo 9.622934411238333 11.48045256849057 7.511815961335873
Mo 6.142867013495377 8.982902312212936 8.510630182018934
Mo 12.2796297832761 10.774327186872135 8.020572751779373
Mo 4.102344934776686 7.7926257427912144 7.263450983587618
Mo 11.463711644281435 5.053277068134684 7.940692588004625
Mo 8.647116124133428 4.834928025781988 8.941360308576263
Mo 7.939938703179067 12.692629125885906 8.821111530463803
Mo 4.098930986312637 9.4644260990833 10.097144562687285
Mo 8.068826941207519 7.420751961098221 9.527289435473225
Mo 8.098153178346553 10.422571112140233 9.706835910335892
Mo 10.852023633394882 6.469460108626961 9.948392874258522
Mo 10.604351881329396 11.504908208683938 10.2964338824
Mo 5.693883795440614 6.918442319202556 9.632956262393817
Mo 12.29126478649582 9.228222574995556 10.395331469532266
Mo 13.126164549709491 6.966369644851922 11.16905665258305
Mo 9.671846506078342 8.774314383363075 11.48024218323476
Mo 5.6256855005008495 11.200906580901691 10.109043988838833
Mo 8.73667421092733 6.595305217520524 11.633529090226235
Mo 6.529148271171122 8.855805855367057 11.456263481291584
Mo 8.187821932371717 10.983013409009917 12.321375064601266
Mo 11.596465654920117 7.274257140039011 12.513363570385142
Mo 12.873524085138893 11.548481068429991 10.707207696765728
Mo 13.314001862503046 9.582288325124173 12.958454354777112
Mo 8.204911707268367 9.162735879975825 13.454404402477051
Mo 5.549408560988698 10.497907718748849 12.530131250108406
Mo 11.56955783786248 10.297676450195356 12.868613854346398
