47
Energy = -435.83525111 eV
Mo 8.213323870168432 10.305101415538111 8.587491486804621
Mo 12.650285575559165 10.812542399710857 9.226458823177458
Mo 11.426219337181168 6.74347344411068 9.063777298423743
Mo 10.449704519499539 10.289127722635042 4.832903561438117
Mo 5.990735500563115 10.264404758612457 6.944496141977953
Mo 9.624802685557862 7.60938606020776 4.4412359822940735
Mo 10.488217502717024 10.66637803405689 7.309437949436447
Mo 12.033598101716317 8.690488158481154 6.747003156930973
Mo 12.041971874483979 8.63177610638836 13.67639047143888
Mo 9.6606436712033 5.219114076432535 11.081945988125357
Mo 11.148857678613531 6.5578489318339654 6.284928412200445
Mo 10.610393088605283 14.152649141502897 13.351113591580262
Mo 8.277038445269165 9.389577871184214 5.788836500508937
Mo 9.718965861626941 9.132594842554676 13.810089695183391
Mo 6.499057094977403 9.290465978380766 10.634675930974334
Mo 8.968969830980887 9.62244227352537 11.321056001438835
Mo 7.5906421276858005 5.760182264310958 8.52346534802509
Mo 9.324401878504373 7.788725981213656 7.359363117750608
Mo 11.64478802496973 13.330512225894868 12.020739616193303
Mo 7.275149485205589 11.83470799552414 10.616929132909503
Mo 10.267825594327116 12.901389791215486 5.689428440724866
Mo 6.437581497102658 12.562850039250813 8.5360865201088
Mo 8.589532799106498 5.4711619206561775 5.8233114381010065
Mo 9.703965904529674 4.978047661583902 8.42270955179912
Mo 8.355721806695998 12.128908623617278 5.949663087282999
Mo 7.089796161557752 10.255631921167044 13.463828625138097
Mo 8.653457415292996 7.427328714994491 9.910443621058276
Mo 13.298020915782438 8.431700579561031 10.865337067376666
Mo 10.869592608103416 7.63179363611105 11.73805379878338
Mo 13.680248926588332 8.440996545627826 8.921964835208502
Mo 7.1335254903038665 6.784606771028592 5.897194919549484
Mo 6.555668792974415 8.337803897721118 8.128325272932823
Mo 8.869909866443319 14.0652978585939 10.848207605870803
Mo 10.23505755254999 11.779658186765289 10.119475148218408
Mo 8.139890541673875 7.228382189605895 12.58733403429148
Mo 11.676724498246541 8.416660609150828 4.137920644226418
Mo 9.697425187744615 6.204256761231068 13.550296806787673
Mo 10.89647839263675 9.18358856037467 9.469771443017402
Mo 11.058483027897669 11.41065435358694 14.212988316579418
Mo 7.740288728793182 13.880191365789406 12.474105449773896
Mo 5.143001886867395 10.570689355215707 9.13627481436787
Mo 9.292278498063832 11.843261311273585 12.68207282698122
Mo 8.879595319915811 12.992944884796028 8.184677783312583
Mo 11.349579193853064 12.94565755368918 8.303995990036691
Mo 11.83487701773726 5.372879370151264 11.165342577487845
Mo 7.977134146194263 11.022246592405352 14.885671955725112
Mo 11.717437300863875 10.42077648967305 12.054044445382617
