40
Energy = -367.63724168 eV
Mo 11.68628120912697 7.310957369368261 15.412367336893823
Mo 13.353147639161799 8.541226948078569 13.803691758564812
Mo 12.302749181478617 10.356961235210916 15.095931723906595
Mo 10.830626979897723 7.154596508646956 13.797292537655647
Mo 14.7116050491951 9.344081658092476 11.97193520004824
Mo 10.013581863986989 9.547748936825863 15.521752103744468
Mo 15.774864919744722 9.983837325590962 9.724253706391645
Mo 13.811737800775802 11.42720176626505 12.980168568593433
Mo 12.316262932555865 8.207615307922337 11.481212655120936
Mo 11.8810260006466 12.821516518876782 14.304340685694784
Mo 15.147661393752225 12.213730512737591 11.120189155116849
Mo 11.16643674882682 10.169938155018315 12.910183955344554
Mo 14.306805867186231 8.571020685271234 9.223764425431535
Mo 13.461808934480228 14.21453971751421 12.574407504740906
Mo 9.669239027832493 11.666949909878404 14.938669880012862
Mo 11.930379665349832 15.283740622479922 14.22922724894514
Mo 9.674874137049276 8.121926091587085 11.37541786486192
Mo 13.042262399501515 10.649669519610752 10.420669147558572
Mo 8.804543564165998 9.416266185092121 13.367796129137927
Mo 14.16427202314551 11.263598099183126 8.135331632784428
Mo 11.765904572339307 12.331454946512965 8.546568774812592
Mo 9.819487766563245 13.992534014815764 13.440016152640489
Mo 11.357981867151212 12.715808024555333 11.591608961894025
Mo 13.510435292307308 13.510770705618834 10.18210560022645
Mo 11.439968898273312 15.391388432814486 11.892124810567148
Mo 7.79061002604077 9.96072127585997 11.058167887884943
Mo 12.527136567559884 9.810748197183356 7.6342858926659884
Mo 8.807527505005407 11.870696748280654 12.298955388479467
Mo 10.323531728787849 10.300983932251336 10.220311197657376
Mo 11.107541401765037 14.41677256431608 9.538707990190684
Mo 11.338320323724686 8.285878658478897 9.2084128434454
Mo 8.395707819003984 8.613419415803886 8.71924604837495
Mo 8.691505767563923 14.25959483034824 11.24065605799612
Mo 11.455480775586738 12.001471971810874 5.948775712586982
Mo 7.507827205014352 10.559022789712854 8.682863690976196
Mo 9.20185759305676 12.645847407064899 9.407269659826751
Mo 9.898603894553833 10.386587431515917 7.675649628485348
Mo 6.529181965689364 12.532278579125238 10.830317789601473
Mo 9.843582698673357 12.757726952000684 6.586780840367564
Mo 6.888672334907379 13.617500136456107 9.228730558812165
