53
Energy = -493.4203516 eV
Mo 9.629864946785434 10.428789395707433 5.008301644286209
Mo 10.915354315828964 9.144150513234267 5.657715302967392
Mo 13.188620713118494 7.458152932346652 7.140414983173904
Mo 8.111129956956855 8.147680140213797 6.457059912677184
Mo 11.9910072892564 12.046091017492856 6.145942031685356
Mo 6.928025676214073 13.365674318891053 6.304324800295825
Mo 10.096971345776172 6.561743235832046 7.6485687395659285
Mo 13.560732990027583 9.964006534455553 6.964148194132015
Mo 7.156342170820244 11.151120764194898 6.753142836394131
Mo 9.325366750464271 13.108980884684602 6.710801655242613
Mo 6.922819442509599 6.479898484262521 7.611724934365028
Mo 13.767226416477557 12.721288510115247 7.05765764425473
Mo 9.540938880977533 10.657374916905733 7.5517099780220285
Mo 11.433976697507585 8.605158968907855 8.296061161818853
Mo 5.857018304094616 8.886259202229347 8.080269973433722
Mo 11.678074173344683 13.74823466202753 8.463699063970347
Mo 14.487576988560766 10.641302673189287 9.137087082513247
Mo 14.06910759685866 8.111473892460491 9.204480992696098
Mo 8.589921999110407 8.281835579320097 8.76886262268719
Mo 11.955670171959863 11.24641417535618 8.647802278297524
Mo 12.031831344454082 5.912644555435974 9.334038530331103
Mo 6.500833337550147 12.98333830818823 8.902769852429023
Mo 5.036973405105392 11.01313714235775 8.143628457504446
Mo 8.483442312177088 14.62737388911968 8.221131061386448
Mo 7.38190119811286 10.681852275773066 9.530492040601281
Mo 9.301869714235037 12.85264142420658 9.593219502786964
Mo 10.007731619425021 10.23552231121836 10.121863931490267
Mo 9.19958852653326 5.505520700518834 9.745409757411945
Mo 7.391069573342472 14.070963270310633 10.96744632510051
Mo 6.782993900909501 6.937228879563741 10.04724970212088
Mo 5.501619503468507 9.109141515496207 10.617976563394874
Mo 5.681424395973487 11.773923718979136 11.128224140587944
Mo 12.56526513912726 9.54105621954571 10.73054104242961
Mo 11.512095541214746 12.26808646232808 11.194180644927568
Mo 10.496322135218717 7.551702871190744 10.648376487460471
Mo 8.052501040073693 8.82757509477042 11.446597709804621
Mo 8.505351397751523 11.623091931418895 11.946840820347555
Mo 15.182563847523078 9.230785866782835 11.594443162212434
Mo 14.386720177288469 11.160401999292054 11.81889135295239
Mo 12.870621493323373 7.0115075463863015 11.566968179007208
Mo 11.061303931164371 4.806960655975327 11.165032804614388
Mo 13.373508713932642 13.144431718814147 9.905551009444396
Mo 8.606666403375874 6.356552601497047 12.108726698163517
Mo 10.460287848420277 9.580872509698175 12.545575147995617
Mo 6.760427984975607 12.862702199142973 12.863622627336486
Mo 5.895511533612155 7.737134480758243 12.892530734986984
Mo 6.428637387254854 9.728471865653429 13.240515477551133
Mo 13.127977254310547 8.920132731430945 13.232011364664906
Mo 12.217644506571231 11.147427895709589 13.403788037306233
Mo 10.830477984511987 7.124456050815302 13.229358172544472
Mo 9.177008879823282 10.563182192929292 14.687887718476265
Mo 8.54507673342241 8.114594497730938 13.910368580070763
Mo 10.761677119086464 9.564626525053527 15.22963923999601
