54
Energy = -504.60063383 eV
Mo 8.10130710147955 14.344568188779535 13.14767698475649
Mo 7.943952879809256 11.760366201729719 14.12997781981943
Mo 6.548856286327314 13.842550503137927 10.803521249136606
Mo 10.383241226456972 15.117357081269297 12.142985759457215
Mo 9.97874244039495 10.57189854858134 9.968891887351285
Mo 8.1671698924291 13.624086346037835 15.99765079416062
Mo 6.355473287505489 11.906789776315012 11.812530795822948
Mo 10.208668725051172 12.73786606801356 8.417762129776271
Mo 10.902083761365825 6.337943445003169 9.394009741997722
Mo 9.79352547938994 8.177227954762403 10.997414018291323
Mo 11.594664774727804 6.647110329169713 12.337964903311164
Mo 12.277198416266812 15.161905341026937 14.081476098910265
Mo 12.966608494902983 15.039680565728771 11.858385222480404
Mo 11.11643759040635 9.378485831779997 7.75441858566235
Mo 10.028439233177297 10.410039215864954 14.699490750231101
Mo 10.835148462584737 7.815006169095871 13.68584922435793
Mo 9.292645816466958 12.19583361903116 16.66000369083608
Mo 11.680972761509118 11.667150353475272 6.6351180724181305
Mo 11.437956489247096 12.953441318304069 11.069174062424764
Mo 12.243873859994158 8.648805089650022 10.291122267613048
Mo 11.109833386419028 14.192235273852777 16.130061438577254
Mo 13.406242055437904 8.535894130127584 12.498328378244846
Mo 8.605885551746407 9.750720147143118 12.694533102029151
Mo 16.076497655694524 9.50868686575367 11.343220235008832
Mo 13.489249417773468 14.33821861809066 16.506114757714737
Mo 12.100426725315007 11.86025954194262 15.848869606412181
Mo 12.73866069723252 9.943275925807242 14.35721573408182
Mo 10.390501861650563 12.953953595871406 13.96376093556454
Mo 11.166550712571492 10.430921275338314 12.335586040401232
Mo 17.345977463593922 11.126556427174386 11.601950471754781
Mo 12.585203725474395 11.320227817595224 8.951503571264539
Mo 16.62983669622541 12.607599306078068 13.616365187765151
Mo 12.686677018197175 7.4707234006782866 7.9066444935155955
Mo 15.161149210550192 10.704111277324001 13.407197243613632
Mo 14.452822056267113 12.231117289441737 15.532704314348724
Mo 8.91229210926733 12.317060221504468 11.559968687132478
Mo 14.319364113888032 9.373050734656225 8.894619014122123
Mo 8.789468854415274 8.250054915982998 8.680821948002354
Mo 7.4402767731778106 10.094630049888385 10.377380462831686
Mo 13.649505221587294 11.01726824827404 11.428828961064339
Mo 14.603305475937297 14.488262054309612 14.329014251044784
Mo 10.298736459735961 6.803598561352368 7.37618847179103
Mo 12.932419669669928 12.623088595443006 13.351938643389747
Mo 15.455120926317166 11.64499375246121 9.725951650316029
Mo 9.304710861325693 15.622391166089407 14.535831213388157
Mo 15.22203204268177 13.235974300376057 11.966301385313615
Mo 7.515996217656449 12.187063762466305 9.229807238622044
Mo 8.871324105832567 10.590478301742642 7.687574225483762
Mo 13.62846359282006 9.803862396315251 6.728502723958238
Mo 13.608594236783144 13.560306987310591 9.58225300409543
Mo 14.67023193441388 11.945402230846783 7.2620797121678216
Mo 9.059699992152686 14.56581492176762 10.191309814274597
Mo 12.856969258927514 13.696092789985103 7.368982131866452
Mo 11.212010209950396 14.909240045949945 9.30317532036534
