55
Energy = -514.2375576 eV
Mo 14.962844747075874 13.178082669309822 8.744261110710855
Mo 15.452241565818577 15.48801424734303 9.995389359483893
Mo 16.965588587302253 10.516743545135187 9.54911228053829
Mo 14.273623272392722 17.185597558546057 8.953746644789925
Mo 12.658304974183464 15.022917506033929 9.424381791132776
Mo 9.871368764023853 12.160055944260332 10.27840582676532
Mo 16.638648791129558 13.089736196230124 10.114356446434467
Mo 14.52816106387409 11.249207507021843 10.624366344175835
Mo 12.12165904240845 12.304315495726367 9.632024380437487
Mo 15.597695833677742 15.723221288434544 12.540125811064195
Mo 9.083130613716351 12.765594590697 12.947886235573751
Mo 14.448937225090724 17.88021652006091 11.00727891682749
Mo 12.257478642251584 10.166595380694408 10.965024332091035
Mo 11.861212352678715 17.076244560224776 10.44538972522393
Mo 13.927328449390368 13.676263894375545 11.270256156452191
Mo 17.174011470526057 10.470278586926451 11.39929563790012
Mo 9.225103222493225 16.385302813196446 10.921875555095836
Mo 10.747461550986136 14.41581329033841 11.087991404738125
Mo 7.949655507994497 14.293829897986082 11.331244646694634
Mo 16.184617710391 12.871885299122905 12.74667967425023
Mo 14.744688470964457 8.69664053098878 12.205005588111154
Mo 17.791597040495635 14.578776495425451 12.516714039372241
Mo 11.828170757255597 12.245663188827159 12.399926554670015
Mo 9.897789740439572 10.522462646705915 12.13710754332759
Mo 12.911248441858918 15.884362468327069 12.246223968730353
Mo 14.123292003241907 11.200996368985193 13.170957594901171
Mo 12.298974554103399 18.639564608514718 12.690202891630275
Mo 10.294031740966311 11.178351730373132 14.869902228781074
Mo 14.043126857668314 18.080367551512328 13.76519067455495
Mo 10.952499384836035 14.149825735572131 14.035502872194817
Mo 12.206140862785443 9.602319954508777 13.417104976126689
Mo 8.261296597044261 15.328597744129 13.31792965217305
Mo 14.503065440703722 8.417384895094179 14.10181141662718
Mo 16.442981656705353 10.331490282575439 14.14225935021502
Mo 12.37175966340252 16.651446469705363 14.712659498093561
Mo 17.989261394217625 12.361672584390053 14.709225099588224
Mo 10.38110032462922 16.687016957261555 12.952887667841761
Mo 13.733894855346763 14.026624425494774 13.969315386959131
Mo 12.61955282779133 11.949072782113452 15.206843868885164
Mo 12.007143833447598 9.196419926085271 15.963197728247907
Mo 8.546977551418061 13.808393718821115 15.50067215189456
Mo 17.06171436419417 10.219066909703296 16.266120056842517
Mo 12.588818132755204 14.506842125219366 16.472352486247278
Mo 17.3203126719074 14.570528979838935 14.85075416295087
Mo 14.942963921383091 15.848713974645019 15.218870117916104
Mo 17.573025336128815 12.876852579619785 17.431050455786885
Mo 13.80230122784424 16.439094973731304 17.143419626867626
Mo 9.90352049984023 15.532339330854805 15.757182497554934
Mo 14.486429600211684 10.397869023619243 16.23933825044707
Mo 13.565509144789969 12.533740540110596 17.74052475360252
Mo 10.553319170505493 12.81978105151211 16.636865241467756
Mo 15.44599594638236 12.740733811303055 15.489880292475814
Mo 11.802397740135564 10.472554754719285 17.475906053334672
Mo 15.322904919399631 14.288667236218279 17.44314387929973
Mo 16.156517310593248 11.699244224628076 18.228256464699637
