50
Energy = -464.2308042 eV
Mo 15.59895461274475 8.126409584971192 8.815284005836322
Mo 14.445555331773436 11.18943403196326 8.100892108385983
Mo 13.177650954710353 8.167291787573783 8.12173475636639
Mo 16.51016823428723 10.27801788054965 10.403650769022745
Mo 14.710410793380722 6.973856424271367 10.183287459070872
Mo 13.171704802046115 13.186943790781957 7.825924647805711
Mo 10.516221659653265 8.318264067154507 7.8677158492384685
Mo 11.940616332411254 10.44396457869647 8.015386015092812
Mo 15.000707451527692 12.5025947721691 10.071795553124097
Mo 13.77645934499811 9.681243002134009 10.18874193183982
Mo 15.996507736652726 9.06769259434119 11.866335470570093
Mo 11.96280786350033 7.665488351219767 10.180520714290061
Mo 11.370376343166445 15.17040802942114 7.977885337811231
Mo 9.024654787585886 10.73510404343583 7.7334603059693725
Mo 13.54116440375941 14.661745720351874 9.88786861407329
Mo 13.52809242248841 8.020851165020572 12.38724338029483
Mo 8.071430544416547 8.975387217452667 7.540674870397123
Mo 10.624537780410511 12.833343999413678 8.180370556139632
Mo 14.513975565622061 11.159169017965638 12.253103746641296
Mo 12.496975039797714 12.039234575399266 10.206941930203639
Mo 9.191733985448973 7.886489144474224 9.978899055255066
Mo 9.50752494492333 16.67735575125931 8.496890733932819
Mo 11.736267500217863 16.9468451700416 10.0369810482614
Mo 10.567330866941223 9.99431191835492 10.193375288275172
Mo 13.154288526963285 13.467593950259289 12.268834878197584
Mo 13.992086919242421 9.346777398160512 14.369439185090593
Mo 8.788797994465543 14.729163388535888 9.077992301414355
Mo 11.012421820560322 14.259661176270862 10.429078005621903
Mo 12.789434767224773 11.98669067260151 14.318569488340293
Mo 8.96734388463617 12.09521977788181 10.193176979952625
Mo 12.571969679574849 16.051769866470885 11.984361214022975
Mo 11.972072641726786 10.068040388480767 12.487197766919333
Mo 9.746846452564785 16.489185809225383 11.116345522105954
Mo 10.577890988247743 7.8037214482511095 12.336833166544732
Mo 7.606584255393394 9.682572848016955 10.00914418490706
Mo 7.833467156090874 7.523448971073689 12.204794561839712
Mo 10.66040831074742 12.320835024366184 12.434260226980156
Mo 12.032910370562654 8.491356046388333 14.846300126760916
Mo 8.481726923565317 14.005712834994586 11.872963624490739
Mo 8.919052648712885 10.101475176709439 12.347519807158756
Mo 10.778678993551264 13.175050713876118 14.916097980484688
Mo 10.537000727109536 15.006142231183922 12.995488998060615
Mo 12.108932059780484 10.61612633002285 16.169438643881474
Mo 6.8857492575447194 11.86975120980179 11.945795641341261
Mo 10.257491385105858 10.699125900667399 14.754444755930892
Mo 9.286033014097333 8.290392627112046 14.409752194178289
Mo 6.232363461365575 9.681691715326886 12.530579776699886
Mo 6.952490024859422 7.701131951074706 14.182945920918124
Mo 8.288493943082738 12.532050143798097 13.843916382733312
Mo 7.3654702279940585 10.316404407055886 14.492761316409503
