5
Energy = -38.47573882 eV
Mo 9.202276599684073 8.521774921319826 7.1033647681001995
Mo 9.41723381925693 8.213413150814398 9.54270335149676
Mo 7.389602675762054 6.8256240452367685 8.706907598952371
Mo 8.011457635269327 9.66133838854893 8.137271525106987
Mo 6.625358333381362 7.423783672648694 7.159219278889639
