5
Energy = -36.23617513 eV
Mo 11.427743394594124 11.321970747825604 16.177994335326783
Mo 13.074259050064905 10.986005609938871 7.094912997660399
Mo 11.599086118710533 13.162745283452546 15.104235322696931
Mo 11.731648860306096 11.283402725353712 6.083502061010606
Mo 10.520463544470582 11.537232022943492 14.245735123493935
