53
Energy = -495.2844828 eV
Mo 9.075903377387355 7.128153879035383 8.297515180742995
Mo 7.792227136626763 9.381686892172667 6.360858106762763
Mo 7.049155284692269 8.567092947917565 8.365664996577872
Mo 10.717795383042457 9.269294580663964 6.60700871280333
Mo 11.024123493923053 6.542103686531339 10.853803371535744
Mo 11.324698225713572 8.371543802816205 8.959086764589154
Mo 8.857668874473957 7.696352106556247 10.503998074936767
Mo 13.291772479953035 9.644673819491112 7.8375203020375315
Mo 13.534338656893105 8.303325357160997 10.704089963461435
Mo 12.753937948483308 7.58350885367224 13.114314807005336
Mo 9.09803103317236 9.899334760242944 8.79026412354414
Mo 9.545469900669113 11.754652174468879 6.590318515143163
Mo 7.105930291780431 11.323607008475078 7.316797795557479
Mo 10.29200265789368 7.0134659462107205 12.882697128984008
Mo 6.519011649713641 10.911075791804638 9.823611204146287
Mo 12.30994067738714 10.754736584988985 6.062756022902294
Mo 6.223037527437059 9.008230549103187 11.54135876462701
Mo 13.23061088426208 10.763953870138543 10.421257530934207
Mo 14.030019849762537 12.177906005655949 8.233590268797998
Mo 11.335497523208952 11.378902020273001 8.592101119832227
Mo 13.388430992148033 10.119191624234093 13.044834362517427
Mo 11.027300743209478 9.309746462584496 11.311530936503202
Mo 14.754899299792337 7.956010879848829 13.272591584351614
Mo 8.620394151355878 10.581597202894203 11.285185051145245
Mo 15.673498271279634 9.832086526574685 9.552946509125412
Mo 8.507770259428263 8.752138188717618 13.036026640053532
Mo 15.874541530165097 9.868023894987049 11.42243788068122
Mo 11.727201697610177 13.427536482298605 7.1687863589045815
Mo 6.4809933188385935 13.871939495854605 8.663003756042524
Mo 6.326662854621764 10.551344153903345 12.808580730211348
Mo 10.009171932146325 8.509419618485943 15.42300333782311
Mo 15.485098472144795 12.682491009058001 10.67233705847305
Mo 8.811666357653833 12.558323114913003 9.339151861595699
Mo 13.009700319419865 13.563898440149833 9.741352616894622
Mo 10.79415757047081 12.220880855012233 11.216632955905974
Mo 8.936290686635669 13.799019390989514 7.072935827300372
Mo 12.506159031853631 9.510610134231776 15.555928985187936
Mo 15.569678476860012 10.37969824248414 14.698582547809094
Mo 8.663262558188604 10.004848241463126 15.202790780588556
Mo 10.815553236049967 10.484832454218024 13.56737611143607
Mo 13.141418357990243 12.627967969757732 12.315463912281011
Mo 6.970418483741313 12.951516085517808 11.15812264236611
Mo 15.589097988851272 11.947756421797155 13.616914860485954
Mo 7.734920029197415 15.161694196515406 9.386610993796799
Mo 10.673768013004885 14.325125202150906 9.035258465510992
Mo 14.845228752417315 14.375286815823587 11.544497843581373
Mo 11.429209703409336 14.805795358962552 11.98275566541988
Mo 8.712308677124733 12.254350208057478 13.162279106418946
Mo 11.12765284903546 11.113002770919385 16.08882472729305
Mo 13.23105442438708 12.008693800453365 15.039345039200978
Mo 9.170427442800333 14.268136739195366 11.630220094536634
Mo 10.894415002564093 13.338003005273613 13.882344203702276
Mo 13.13425477046752 14.215067749266268 14.197474498372847
