5
Energy = -38.35569816 eV
Mo 7.01389597812997 8.371059670161097 9.66245336818393
Mo 9.50805200780753 7.7785737334190905 6.012483412256459
Mo 8.677651508425841 6.849575611144396 7.338614956487787
Mo 8.829910244067394 9.166768888695714 8.186862493740463
Mo 7.875483704365487 9.6640537278246 10.61814913325012
