53
Energy = -492.8883276 eV
Mo 14.589519373014229 14.05797803631314 15.181001498998013
Mo 11.794096888762983 12.432552712554742 15.74617756278578
Mo 13.97199647670535 11.263490815906875 15.796906316676498
Mo 13.73086978693294 8.948879600307183 15.867475869480216
Mo 8.974282949413388 11.215836135651672 15.721902258298472
Mo 12.032703469757651 14.543233189687696 14.293200881451774
Mo 11.519826108621716 9.902316899384788 15.977038740763359
Mo 9.754024570176501 13.33889902721742 14.121451098908183
Mo 14.588252061897297 14.759516232706446 13.416907967155655
Mo 13.337005857680477 12.260458072717395 13.561907927963276
Mo 13.249847424698693 9.601111700622196 13.535914160246405
Mo 12.136570087832853 15.749142708830316 12.046147187504918
Mo 11.948527127013232 7.439978903386344 14.526461104551524
Mo 10.877062122879112 10.908335759136627 13.72025226854515
Mo 7.5204012183071836 11.946271692145569 14.54232111278239
Mo 9.921356267401586 15.823052770627005 12.929117873544024
Mo 8.220523175619 9.780515971022705 13.335459663652268
Mo 7.6611144330817575 14.103439663004082 12.488003107357748
Mo 11.296583859430106 13.350945568788532 11.976158429310207
Mo 13.852962610641807 13.426957269505799 11.004952925220403
Mo 14.832892871871307 11.079145341656277 11.613926167363392
Mo 9.784809463279624 8.379216885590528 14.68122587497931
Mo 14.345547379839298 16.060571732464098 10.352441183430555
Mo 8.86215018039552 11.696768495872195 11.910886833895871
Mo 14.691035157755808 8.681954282351532 11.557537382989391
Mo 10.124016916562434 5.865320167811843 13.475946078849946
Mo 7.4248260455388175 13.81099078374148 10.603248712431972
Mo 14.446423644004772 15.030404464031067 8.780393858822144
Mo 12.364359006443268 10.851792318126188 11.150935737869249
Mo 12.743784701092572 7.21840494583617 12.123844345983835
Mo 11.903439945786188 14.904675238974644 9.456899399989116
Mo 15.244436642323814 12.16071214107114 9.206280536586533
Mo 10.680229685040802 8.704151846525887 12.124813589539903
Mo 9.625239213438132 15.320464581075067 10.69390110699391
Mo 9.984531943474542 12.903190333272905 9.749740826202608
Mo 12.59682584789408 12.275312545376897 8.871654934756704
Mo 7.728840888411187 11.118248147481326 9.589675377140722
Mo 14.095331108480202 9.986529738196511 9.279973983811137
Mo 8.634603712752432 6.9921710724058785 12.465715549498048
Mo 14.826491756658164 12.99763811802275 6.8831109384724085
Mo 10.427757832681234 10.231696387576497 9.567121042970724
Mo 8.047658554730111 9.207890714196019 10.837417403202005
Mo 10.874544668228973 6.0566809180385235 11.026999856551726
Mo 12.28199797452835 8.25366185865042 9.810853281662876
Mo 8.44425317447948 12.978052361909043 7.892577783459836
Mo 12.140721789448163 13.798878345127887 6.873195834763425
Mo 10.247197158885628 14.81332123812903 7.583360875205346
Mo 14.14139444314974 11.210193843048396 6.664674325686116
Mo 9.54604910222952 7.476605975866502 9.801757679902694
Mo 9.055069683077702 9.814024908787111 7.716194449903595
Mo 11.998744469503253 9.805447917536569 7.49376479620667
Mo 10.389012731336694 11.88982657908058 7.137352051254353
Mo 10.831232311841015 7.851706622343848 7.725552126917467
