55
Energy = -514.84452332 eV
Mo 11.781939338223268 14.343860181063459 8.26351522605141
Mo 13.617381413465994 12.553830576187618 8.811313214435645
Mo 12.063726996231473 13.113792618169976 10.628674903008058
Mo 12.901937298533165 17.766669098845135 11.165554350549598
Mo 13.321446735507806 15.445148251752938 9.271186432300263
Mo 11.113227393943632 15.994654909728329 10.542493794759372
Mo 15.038951143857583 11.218477045241569 10.766351393580864
Mo 17.659187642300356 15.00310893969378 10.717494353322465
Mo 12.504740122738712 10.68540614932859 10.85664728781672
Mo 9.7047515093054 14.195478715732717 10.165193970212398
Mo 13.84755570288543 9.814930346999954 12.689112216273799
Mo 14.97628627003853 13.79515154969379 10.366676952248215
Mo 17.273875471864272 12.201224844160933 11.24170438422244
Mo 10.63537642150345 17.975242217722972 12.618707055108471
Mo 9.298793889851298 11.976779239829826 11.71208304721697
Mo 9.265249772929542 16.11325068555776 12.326468363648347
Mo 13.185716013576364 15.22569025614217 12.124916975717142
Mo 15.997781468927915 11.726975231162156 13.47920356730274
Mo 10.756305014666735 14.068718419911134 12.82834626092399
Mo 13.78197759852774 12.635506250199377 12.651127047930819
Mo 11.512874747658575 11.258056693371492 13.278948810206215
Mo 18.298909035657392 15.976418771206806 12.23418671312637
Mo 16.872771751053325 9.374916824236267 12.606216175646434
Mo 18.417163036392502 10.369250099029413 13.182412946274074
Mo 18.394949069300303 13.245650884821087 13.021330450140956
Mo 13.354438980300287 17.92701562181343 13.264608798032965
Mo 15.434872951294444 16.57742447143799 11.672730837377827
Mo 16.06017448414074 14.375107602802306 12.909237709332663
Mo 14.774486533320333 8.308476338746145 14.742786040019057
Mo 8.147308197615004 13.392641661874656 12.37884255389327
Mo 16.279095013697233 17.17725896191471 13.76545799362019
Mo 11.47834890087363 16.139791214428612 14.314641966090168
Mo 9.265756663765682 17.53390532614154 14.858307651676121
Mo 9.726423502892077 12.403187700704187 14.628962711527148
Mo 13.945562587144796 11.066989953910063 15.152684150593451
Mo 12.10473771015999 9.124192367476853 14.273154668993321
Mo 17.586150912669453 12.42520900450946 15.333460257117332
Mo 8.880609479839588 15.29648405825591 14.723429784195158
Mo 16.611168703290485 9.977131397998154 15.403061359037773
Mo 17.275264990741373 15.179044599010947 15.071713209587653
Mo 14.336556099148027 15.793935863099124 14.4256964946806
Mo 11.56812786640181 10.989896269326826 16.024874127100684
Mo 14.210814165569321 8.705137382168258 16.583916917834152
Mo 12.469301668213426 13.492833264270786 14.76393212989975
Mo 15.66450165316454 16.11540735007043 16.61185468998927
Mo 12.898815100874469 17.597024275716677 16.037340804744076
Mo 15.167799015367052 13.514656079275799 15.567803705521406
Mo 15.664226350796453 11.362960552278924 17.13629008556323
Mo 10.66117041075688 16.70838137128053 16.66278675765538
Mo 13.098486256316175 15.448286211854883 16.839977570778235
Mo 17.117497841919022 13.833766797934723 17.653277432667153
Mo 10.642473703870074 14.069411279056583 16.243982545650432
Mo 13.241153854762464 10.717821636306615 17.959305449038144
Mo 13.03006181231472 12.827194261576443 17.350991080560057
Mo 15.301342249525087 14.060840844656289 18.314627144887794
