50
Energy = -464.46045164 eV
Mo 15.117956398202585 11.264793574573375 8.02020573209915
Mo 16.082040620567582 11.20119178920155 12.846957710602144
Mo 15.23148261318433 12.286604015051761 10.885765094010251
Mo 16.0390982447099 9.650986174762835 15.301614835043015
Mo 14.207045791351344 13.436866387364702 8.508867298113614
Mo 14.806380011583226 9.921520021692535 10.499844078470524
Mo 13.94561041475986 13.275961733933993 13.10540232658146
Mo 15.808808180026867 8.94187032078982 12.742201104550224
Mo 13.30467348046008 11.360664919198767 6.827999976805875
Mo 13.389376397708817 14.508791021084503 10.935043137619207
Mo 13.144835879485631 9.292767288678286 8.435767421706558
Mo 14.42878872097901 11.91364483786065 14.963861262214976
Mo 12.979527897755666 7.07902477768584 10.10535597545899
Mo 12.768274225326644 15.746478894071322 8.692373222452007
Mo 12.823323601432234 11.793654105974323 9.748634846044233
Mo 13.423537973483182 10.500408866849183 12.605754014305301
Mo 12.734709578820748 14.175207228219358 15.603265328698537
Mo 14.212101965850964 9.212156070000647 15.252316942026264
Mo 11.985866761096057 11.419458464714854 14.603892915731766
Mo 11.831014441943218 13.397089864376523 7.587620626258483
Mo 12.28578481226713 15.143463816499096 13.668721155546788
Mo 11.616588509197621 12.710982603884911 12.327934949919278
Mo 11.865440238893248 9.383699070529621 10.686828428677115
Mo 11.2104453518586 17.140104772903378 9.042586321792033
Mo 13.433397593603196 8.030658015723494 12.63576051990519
Mo 11.608028372462227 8.771159015959265 14.524369915762819
Mo 9.916474651370317 15.309657223925772 7.701390971427331
Mo 10.953290892387205 13.947774632251582 9.935539367433849
Mo 11.04242481182051 8.32481883715479 8.1461232180044
Mo 11.484128494123572 16.154069418553373 11.217143570700825
Mo 10.781123127874487 10.907217656817913 8.132919854214048
Mo 10.54558908521317 13.34898380002173 15.053351327037833
Mo 9.993455541082714 11.525667791232308 10.550313402185528
Mo 9.521571850062816 10.648240671423256 15.765388236693203
Mo 11.037461648133442 7.490003098560318 12.306231514144272
Mo 10.153796461003825 10.042515211532336 12.846694615842036
Mo 9.916396374752651 14.479962968151906 12.543288310986112
Mo 10.856126010087625 6.6429382469279545 9.991151145506599
Mo 8.77193739439013 12.341089795935089 13.264083366358612
Mo 8.988499849893236 12.879492959312422 8.061028516939157
Mo 8.941682016497582 15.431619424590995 9.66452848315021
Mo 9.392897894535587 9.160341870104785 9.941898262862132
Mo 9.083474943953721 7.881061225141197 14.348956535268949
Mo 7.934683963994317 11.095370745129012 8.698957141919667
Mo 8.304118758139026 12.25977711913197 15.93191640703936
Mo 8.415326096331311 7.887781408811244 12.428189716941954
Mo 8.078614796329308 13.086363561395778 10.591484235791787
Mo 7.723357591041054 10.163519549168473 13.979304512194476
Mo 7.521415930864726 10.419233007948902 11.411862101645978
Mo 6.497969532471696 12.16610521003378 12.408370285237062
