55
Energy = -515.32545336 eV
Mo 10.81215517953626 12.519757921549893 9.36450729854153
Mo 13.523393872431045 13.57283414004239 8.424281878903754
Mo 13.519925054080577 15.749240174655315 9.038953725422383
Mo 11.51720403430689 17.751900360333487 10.058922031499614
Mo 15.558705157253586 16.611533061157008 10.698565216735048
Mo 11.201104956221515 14.973463392582701 9.685447570046353
Mo 12.881134317348284 10.901684209942779 10.512557395446917
Mo 15.643425155442664 11.500589035745202 9.985434061776138
Mo 15.631470987825274 14.1296071731397 10.217383981372484
Mo 17.230980266557932 10.680981934101773 12.605612979326489
Mo 12.37968939437059 8.611771639090293 11.93991758160297
Mo 11.85506621076266 17.782234977341147 12.949084354643297
Mo 9.009987474840925 13.066070513922089 10.753955284974344
Mo 13.278753171611529 13.445996624577056 10.823141566928378
Mo 17.926928438494958 15.416290164808546 11.650305944562223
Mo 12.847309883684806 15.947923650873483 11.748118420134993
Mo 10.960327437154476 13.622387842403278 12.129396297362184
Mo 14.830418896663954 12.082865122634317 12.433506192591672
Mo 17.337029327790187 12.710807697657524 11.892559829216962
Mo 15.10238229815823 9.680421274580434 10.93455659068173
Mo 10.356794583415747 10.470867221940678 10.705331919267815
Mo 8.687521712990376 14.012821150745449 13.782847114036517
Mo 13.230621045416015 18.446691568140473 10.329861646338424
Mo 12.085367676880866 11.228264948990304 12.848960815569304
Mo 15.3807368586406 14.85457617216761 12.82164566584777
Mo 9.741032179336692 15.655597662392163 11.577646756320416
Mo 17.489459654571125 17.012161627856642 12.748971026898857
Mo 11.113633912501392 12.75785095085173 14.971565244314922
Mo 14.897420385247194 9.653847154091467 13.62261846442296
Mo 10.335190537729217 8.839502578606611 12.618770193338747
Mo 16.410456840553078 12.188797783864587 14.5372737986325
Mo 9.418136406630216 11.520247211818154 12.86653021728737
Mo 8.335812975717111 12.56288404005992 15.251289982008753
Mo 12.57455414405294 9.133137754395056 14.38587395973823
Mo 10.858105943707455 15.738598567282557 13.903014122175703
Mo 14.817142582188325 17.6372306392346 12.638365345564079
Mo 13.576065290353739 16.645941728013273 14.466711410582151
Mo 12.227201484846248 15.197329707774905 16.06804539284312
Mo 14.331053778231684 9.072675042706408 16.377537807356475
Mo 13.764386521396698 11.583801146080413 15.029386425824368
Mo 10.276059116303953 10.391692969874459 14.996462489717453
Mo 13.103459945576263 13.950289984020198 13.742422297269886
Mo 17.474232376205958 14.52310589542111 14.288985974394642
Mo 14.921190958864027 14.187391121913024 15.674899823170513
Mo 17.332249837873427 13.166964538295158 16.86857219699831
Mo 16.137489402317275 16.40134585989952 15.048306584406301
Mo 12.692657562533723 13.277640841834346 17.438992065504234
Mo 12.061460949576496 10.741961504899859 16.86440688067869
Mo 9.802401253523522 14.23714462568018 16.4337790452919
Mo 17.171486444403907 15.11269587477714 17.212210554836645
Mo 14.288305156648018 15.820193170443007 17.489630532806924
Mo 16.19171854928022 9.756646063815074 15.723024734920802
Mo 10.3008215343417 12.012455500991654 17.493865838457957
Mo 14.877160528339946 11.792837799781582 17.142581572393944
Mo 15.013806232069173 13.979034557003738 18.505989775815078
