55
Energy = -516.45508218 eV
Mo 8.573264934578843 12.061717667145682 11.020573662159581
Mo 17.66382578596489 14.236289553039414 12.887124562092211
Mo 15.167561128072384 11.09925051139922 14.999708489971878
Mo 11.350465323988184 8.469457400265503 12.876290029075072
Mo 15.727269271085873 13.89313894399553 14.507157116229541
Mo 12.064193398770323 11.161150695197339 17.112934287275806
Mo 13.5751144218026 12.712393013025359 10.505644442232743
Mo 12.868228462378143 15.442965389868384 16.88288325947078
Mo 14.935075874526468 10.571213261817928 12.412804268479016
Mo 10.773627748978765 12.570054338313033 12.065249171787851
Mo 11.11730848342858 12.217783550107207 9.380026298857358
Mo 12.27950365176403 10.845628490858413 14.29156328339407
Mo 8.59895005433471 14.15267421925087 15.35828131854651
Mo 8.520658316143368 12.819441599515374 13.909666827029007
Mo 10.033245228816396 11.554773231749724 15.732977138995665
Mo 13.207631898688572 16.789802215727406 10.687017868073196
Mo 10.332896583550507 16.612811108944445 10.593076738284006
Mo 17.182068150647822 15.73166727813871 10.587122398367635
Mo 11.750245274461726 17.19069096167313 13.055144285595842
Mo 13.567290280324114 8.704491636321173 13.557876579165393
Mo 14.892015969012766 15.024956986507481 12.053124681399588
Mo 13.341192497002597 9.133107094396086 16.281744648729955
Mo 11.412738278726762 8.790470393878866 15.615612032242264
Mo 13.194953315085462 15.29813641170435 14.257203752555794
Mo 17.023830265396924 11.352723872323807 13.727862705166947
Mo 16.033026785628305 12.8067653183947 11.540345378635852
Mo 10.842792467887076 15.995469984006027 15.400830476517749
Mo 13.425571287309957 13.05226013461224 15.967508478381925
Mo 13.629394316979067 12.747829089621954 13.185043536140755
Mo 14.39823691448691 11.880401071410688 18.25343998386114
Mo 10.92118156329524 13.565390399622595 16.957045782946764
Mo 11.192202855845762 13.482270613175453 14.408977350897834
Mo 18.453170311459875 13.33809621474839 15.215184977407738
Mo 16.675996090403206 16.407287392049405 13.271524627643416
Mo 15.958328815757676 17.26609071616747 10.589978562958501
Mo 15.202580648576568 14.355324388389771 17.317704748214414
Mo 14.988783827605179 16.377956251758555 15.490900887596982
Mo 14.32129093137109 17.401420088668356 13.106118667403182
Mo 12.288746526533629 14.850848836650293 9.186023633898554
Mo 12.32021894039617 10.407508540480505 11.438661371605855
Mo 12.346687527555353 17.852141714231493 15.261205877524233
Mo 12.470040552504281 10.540986584816887 8.819224026316766
Mo 9.85444931737607 10.324351624025601 13.091587009597484
Mo 16.541840138677728 12.47710758797996 16.581160907547293
Mo 14.847247671657263 10.31217519922952 9.88017967519961
Mo 14.794605648077289 14.950545510152228 9.426102813565562
Mo 13.033951570385852 13.238107704317411 18.823149341489593
Mo 13.802689372573985 12.680621739481326 7.982790491002477
Mo 12.15478045387708 14.754662301407429 11.76263867574014
Mo 17.671657097667246 15.150833221532789 15.795807835166253
Mo 15.842726188774947 12.864433205787915 8.789644745197263
Mo 9.845074751733936 15.265106941821704 13.018587005688055
Mo 9.74047002260469 10.329826251499567 10.565392884190244
Mo 13.861303539059293 8.57518938911053 10.754726981373986
Mo 9.817423378720669 14.74182627199526 10.189467533423734
