5
Energy = -38.76989092 eV
Mo 8.158036101015485 5.533583529888266 5.930804992983631
Mo 5.918837941133421 6.501655597662432 7.730207585355358
Mo 8.242146289609371 7.497663495486364 6.021367129382945
Mo 5.5508404533335165 6.646966251092797 5.950919173242435
Mo 8.592422923151634 6.394101322854817 8.088534168469657
