55
Energy = -512.47158265 eV
Mo 8.906560155623 10.099186818197229 11.55033956726267
Mo 12.659144311564145 15.618841028127342 13.364638887954325
Mo 15.769111598464306 15.676645181373239 11.111037491735845
Mo 10.746375560661482 13.845657169245014 14.533569052260077
Mo 13.432369134513715 15.829647790321161 10.690685813116234
Mo 9.321310174354753 15.624627753524376 13.197487058326946
Mo 17.392882311564765 12.829248244135771 9.315183269770497
Mo 13.321776202004866 9.860255448441281 13.369600230085357
Mo 11.392404305087586 12.105880500330485 16.70876206027802
Mo 16.08605943872518 10.926870780585944 8.561925562739127
Mo 12.73817471267333 8.980850670848971 11.13794218382071
Mo 8.944830451267217 12.16372774370328 16.33468680517274
Mo 9.72695489275962 12.320991528805168 10.023444739316213
Mo 15.260045568117233 8.424041109438306 9.563055742976395
Mo 11.945907867901928 8.629176451050984 15.207104019501358
Mo 11.645326295912774 11.395335561499168 11.640618216528722
Mo 15.798264694018867 12.786178996382757 15.870586250207479
Mo 8.906446009118534 12.68959616167734 12.701758756192914
Mo 10.687253630649876 8.98189181854694 12.955606555870487
Mo 8.417665952806129 10.96193282425222 14.200135309369443
Mo 13.532948069235328 10.961124155089339 15.727781834444182
Mo 15.203739693105288 13.518320021095878 9.290604899385675
Mo 10.138488660474628 9.574690633518465 16.280783284066075
Mo 10.813730176356573 15.83703778610761 9.547960635455071
Mo 10.441401892422569 13.538646113470014 8.201243805184603
Mo 13.098238215429925 12.758616627916112 13.852376158312731
Mo 13.974419820864952 13.492234698476459 11.62295852902611
Mo 13.785913000795372 9.020843745833226 8.546547025319713
Mo 15.551669761752512 9.167770064411908 12.262511934840036
Mo 12.10061620649703 9.865887850391076 17.51487724185306
Mo 15.985234612858761 10.541747548094698 15.5866500529967
Mo 10.856053448416546 11.12011748668806 14.309107953323867
Mo 8.310113762307678 13.986173777784135 14.878221418718928
Mo 17.55828880367176 12.66319114544323 14.260245356702903
Mo 15.417595219244689 11.435822302397934 13.338768585627374
Mo 16.88933565102192 10.523335747524698 10.95689244208451
Mo 16.683706826472243 13.028840585682243 11.710945641806441
Mo 14.92908450901167 16.740305172006263 12.99260471302999
Mo 12.39484246761316 13.463036700848496 9.426821221487259
Mo 13.275656061148206 14.262692246048715 16.045250068117074
Mo 14.301097229465379 16.022738567226185 15.73457895408128
Mo 15.24848825243052 14.45494464785489 13.750744739667047
Mo 11.91461130496643 11.003107132991108 8.969736056014169
Mo 14.305819665265231 11.060687643794104 10.591358179785917
Mo 10.163891367266833 9.392592424787825 10.159800039386049
Mo 17.61576759981823 15.024950524750482 15.054879594055977
Mo 11.418037838005635 16.28233574022152 15.546096254398252
Mo 10.241641236285139 14.691772454013678 16.80958358874668
Mo 8.581841573168237 16.595410387797305 15.753301325609659
Mo 9.544281987087368 17.77711896567438 14.48376934369553
Mo 13.88710319637625 11.906683081583928 7.845084524799632
Mo 11.220400522830275 14.057298019499898 11.755132763202008
Mo 9.090010306381993 14.795325326584036 10.621771146916151
Mo 17.7481261297787 15.230413768202762 13.091972128573376
Mo 10.995493741505465 16.77015540282765 11.75742306392486
