51
Energy = -475.5466352 eV
Mo 14.465384710945097 7.305210470706829 9.775298523972268
Mo 14.945234249098842 8.930273894221534 8.935575180037528
Mo 13.709307638784162 7.080046373233302 12.601514867898059
Mo 15.139319198184651 9.251166980039306 11.897102441991517
Mo 12.092645820654548 8.409651747557964 8.597990748294638
Mo 10.218114171273873 6.798472034264407 8.896895469662311
Mo 11.673808572500397 6.94224538714717 10.886775489182401
Mo 11.473968795768146 10.074170305342701 6.866147343947637
Mo 14.571181359519368 11.563790447574302 10.707490998201727
Mo 10.565623681822714 6.3730315895964065 13.290398923347142
Mo 14.081915727097657 8.166893063723675 14.378467318149186
Mo 12.975121916865222 9.420490399032985 10.909218925381543
Mo 11.96115887006384 6.764714812236177 15.059607884868578
Mo 13.189035882861273 11.043467721088227 8.508839515212118
Mo 9.452377969412899 9.021504444407595 7.983203938740029
Mo 11.566983744471546 8.782984254885415 13.099774481441658
Mo 13.589744067134822 10.529102837165594 13.46433494526882
Mo 10.030414665203924 8.979530405447475 10.67195121888178
Mo 8.91682501043346 6.80737987845374 11.2153985410404
Mo 7.553136968238591 8.277935746016741 9.629533974221557
Mo 9.543767188830783 11.636340129735633 7.141650836115164
Mo 14.526387436957062 13.413072081516871 8.380951522917021
Mo 11.652702500820412 13.107017921972293 7.785361898402014
Mo 10.871737308973962 11.116037137551329 9.391074592291744
Mo 10.324460836691191 8.326339701704354 15.580804118296854
Mo 9.037524902914031 8.480119048051819 13.284156739478945
Mo 8.042239977697069 11.069794490893658 9.57293753126657
Mo 12.124344405026191 9.834131802009844 15.669677884842601
Mo 14.290781639594393 13.054017586523251 12.53593435662372
Mo 13.725952080437752 15.163063808955256 8.249774664465674
Mo 12.41550849515989 13.713651025127323 10.373860588576692
Mo 9.54731908680244 14.501719490878234 7.629134091201056
Mo 9.639856845998148 13.323479429409367 9.962500125198666
Mo 7.697612982110724 12.822860553271097 7.877938283937226
Mo 12.207973929225668 12.715456113295694 14.464129855148222
Mo 7.19581131586201 9.088707785644614 11.548651250188774
Mo 11.83260757680982 11.577700258222883 11.84640872547816
Mo 14.795410496260338 14.56993440537346 10.850630635747942
Mo 10.552191970918216 11.020063016497556 14.437110136341499
Mo 11.173065728817688 15.698456646194943 8.898994433823745
Mo 9.160321901490418 11.250570859590676 12.025791625053033
Mo 7.568084374607409 10.68532512439047 14.310862720992187
Mo 6.875984675081869 13.878693628523136 10.20346210282343
Mo 12.737671684282626 15.190275725793704 12.722121318237589
Mo 10.33880400433441 15.655895854465046 11.23211402737903
Mo 8.448706577701271 15.655460175684027 9.673337010508597
Mo 13.00298800659852 16.360811917681396 10.952640482684952
Mo 10.59082306213571 13.552439508392798 12.86376781388132
Mo 6.8278656190298355 11.700726053875066 11.924674737682373
Mo 8.12532617878873 12.517481426848382 14.416195948163795
Mo 7.985888163563301 14.033127010849709 12.051757346512952
