55
Energy = -512.51133857 eV
Mo 14.419871716657275 13.3428633525554 8.8204459881917
Mo 17.04441704473876 13.099176373821024 8.17180601752577
Mo 13.173456484129327 11.740315622131758 10.29618131186184
Mo 14.222331935342913 15.30965819707725 10.12559979585296
Mo 14.04178168749425 18.066986769144386 11.477251566693601
Mo 11.202254416460294 9.57880928167976 10.665663306122637
Mo 15.771392733033329 11.083901706948911 9.765603462522142
Mo 11.853103855192716 16.16047094662255 10.849341699089758
Mo 17.013219404920996 14.53202334201606 9.372283485347959
Mo 16.225426598398137 16.184351227602402 11.627591892946718
Mo 13.206861366275357 9.203907100599546 10.761473978591896
Mo 11.653202939113783 13.882241048259475 9.46041081377661
Mo 15.123930765205149 10.886165143746357 12.188787390963846
Mo 10.601269859377448 12.440329146070102 10.7531671363153
Mo 15.280287216233814 13.43865161552912 11.458877919487108
Mo 12.219984744060604 11.07412383819825 12.817978035002733
Mo 13.853340213044643 15.81755301630204 12.940786415566702
Mo 12.603288249467976 13.686487031658537 12.07657269048967
Mo 10.225800632094975 14.715798799932106 12.012117775648452
Mo 17.957806227800564 14.332402491767452 12.481125927652698
Mo 16.25084405968739 17.310164199546676 13.493805676792283
Mo 9.44829302582967 10.703061053673137 12.799690094148003
Mo 11.552226532702054 8.578434021526515 12.999180914810442
Mo 17.425244348187693 11.964118038704987 10.71409005904541
Mo 10.208690941337695 12.91180514058327 13.715917297023637
Mo 18.681154637508072 13.934913809128046 15.011945272195135
Mo 13.717662125884234 18.630020658079026 13.364431770721504
Mo 11.51336853626949 17.326698510402746 12.843355865398555
Mo 9.844434681664277 16.01470682167949 14.167762477204738
Mo 14.198412175851375 16.82279301898261 15.38176280325363
Mo 17.147347197247846 12.240204350348758 13.376705534899795
Mo 11.951170855525696 15.04806499929041 14.500793791118785
Mo 13.862574879989264 8.796474339398616 13.375853323543222
Mo 15.60682587442892 10.608842514332416 15.195969814795022
Mo 14.365724350252803 12.500951370423 14.09147809743514
Mo 11.954916759606471 12.320883845229577 15.460737045747384
Mo 16.074669332685612 14.733762387798462 14.070710261427864
Mo 11.733900765871372 17.516255572382242 15.610225982389348
Mo 10.338646412190986 10.263546499334549 14.647333117737064
Mo 10.521667933408077 14.272270043102873 16.520451312212053
Mo 17.129996702630933 16.14082070950257 16.034457739930843
Mo 16.479233256821846 13.204594844137665 16.27503884356692
Mo 13.158134713117573 9.917123019532402 15.18251045456207
Mo 12.02460465832159 13.130424788034636 17.829051149310345
Mo 13.993631366695908 14.229903938086245 16.109081475390568
Mo 13.427316957542754 18.447688275458102 17.629494892852822
Mo 18.41249369379832 11.790904654989697 15.420281002218005
Mo 14.533892617774063 11.733646777802104 16.905938886867755
Mo 11.527732934676552 18.295385333809 18.039547374796793
Mo 17.65245250234178 15.021034231011496 17.626325796516664
Mo 12.369235047002986 15.7894326391978 17.440702122216763
Mo 15.123061186355757 16.28165292361004 17.87130291940685
Mo 14.79836886631428 14.23282713562035 18.50801083615518
Mo 12.447089401243634 14.701495255059235 20.055271604111493
Mo 13.215134070067977 16.392059718417578 19.99089927042629
