53
Energy = -494.74681338 eV
Mo 10.157861574563004 10.984755392457982 16.225230940286323
Mo 11.719671143405924 6.753329273220106 13.080871881724965
Mo 8.800820804443036 7.102051716961722 13.940864572612698
Mo 10.569206678624466 9.172822878914927 14.14776491953999
Mo 8.490779541940602 10.54846238552427 15.452568554356088
Mo 12.894932721841045 11.063437229898517 14.989321062940972
Mo 12.554765303723869 9.538682393924896 12.768826911812265
Mo 11.435203332547987 13.348914545097102 15.042117140667049
Mo 14.907118213068657 11.256189655226056 12.69333330438339
Mo 9.016297293942939 5.756224166963721 12.580621753410837
Mo 8.69862690227814 13.514573570035902 15.110930017121678
Mo 14.084675456833414 12.771471086488214 15.043582392346707
Mo 11.466749309173373 5.795745830804131 11.190849112977789
Mo 10.057126938117834 8.14901349740906 11.63464826632488
Mo 12.791606152263153 7.885361862839175 10.70428656283318
Mo 10.232648291782898 11.691524123868538 13.523381416942227
Mo 8.133909805448836 9.84299510465056 12.731398510316856
Mo 7.3983369535742805 7.888479183104627 11.665574144863172
Mo 7.615160088044834 12.791549029010847 13.726130946371933
Mo 14.836161509692511 13.801228347771975 12.840009318569592
Mo 15.116278023806535 9.011418055299403 10.97151397198117
Mo 16.09909349444056 11.795905804548536 10.756021637285558
Mo 12.650180279313592 15.21536853250434 13.77086582470635
Mo 12.595778608135948 12.536565019520427 12.662871365945808
Mo 10.710644926710126 10.620857039786067 11.219743781330113
Mo 9.215593022318513 6.855354226796816 9.503413540351634
Mo 13.42079423464801 10.727614448553787 10.377741974044737
Mo 10.225188903705753 14.175461921466912 12.696209662836509
Mo 8.19853880099528 9.588094529287087 9.963947562217767
Mo 14.190547012448814 13.310422714042499 10.538568106262748
Mo 12.480534768918945 15.228216072555911 11.697130637048401
Mo 6.369646583849692 11.097603255328815 11.31855629710324
Mo 10.959875204171205 9.148380932784315 9.198880273578267
Mo 15.610260273615456 9.89857889233766 8.79394668706953
Mo 13.603689146606762 8.818512111115295 8.400292101409176
Mo 8.56631114246116 12.30136944896853 11.168407715790837
Mo 11.014138885714754 6.71249992666779 8.526721909358738
Mo 11.498112942661873 9.165543360953345 6.478819615224419
Mo 11.165662788936244 13.026659259513963 10.350484718420672
Mo 7.789477161505388 14.992912869654837 11.789543718542875
Mo 12.010498084089715 11.387085746142613 8.275159149251891
Mo 9.163933033978715 8.958138487201968 7.618042257210232
Mo 6.382515420416677 13.916947581784763 11.072328328298646
Mo 14.601067777438631 12.17261732029417 8.322570063417334
Mo 6.870044510944061 11.526900395126829 9.140911701511605
Mo 12.566077871779585 14.18153872001928 8.453395521053213
Mo 10.182202072839777 15.395787274785167 9.972653393277609
Mo 13.72901616534938 10.863063532869306 6.213822051482903
Mo 9.38414228171201 11.486098479302136 8.544026121952191
Mo 8.682020181332799 14.104347501914912 9.242200043948081
Mo 10.631961260951872 11.037549706949996 6.070066939635517
Mo 12.989129991831849 12.66916185872794 5.984203989489629
Mo 10.769502834906463 13.764175318738397 7.470396619932527
