55
Energy = -512.22338402 eV
Mo 18.14452430992862 13.847497249628058 10.33021049808207
Mo 15.96964481500734 14.912872617387858 9.591364574073223
Mo 13.512734534472205 15.954482096380953 9.052596381593256
Mo 16.050835170196088 11.906653878332108 10.085858038071283
Mo 18.018146360759673 11.48957868062465 11.240433879562032
Mo 14.37645877080213 10.022586125221718 10.587752398342646
Mo 14.062367840655549 15.04502082093282 11.640110712593515
Mo 13.896660490347136 13.229041190502413 10.00646814047238
Mo 11.966829406046383 16.480075711077337 10.96226399844953
Mo 19.047034414663745 14.829178657316518 12.431401079480255
Mo 11.557483558687066 13.56210140700518 11.824618151614983
Mo 11.607150540936985 10.731577165227247 11.464426390762378
Mo 14.575285158892981 17.37824198298697 10.241928105673313
Mo 18.235100862449872 12.47057320900415 13.749104893754517
Mo 9.860384121241164 15.46548123953216 11.839925233135766
Mo 16.325613701077895 13.638187391342617 12.17974711807645
Mo 16.02440643058673 10.925079379374928 12.950597742058397
Mo 16.624690081987556 16.217366284769213 11.411503338828428
Mo 13.340291542146778 17.852261495127717 12.622482983613674
Mo 13.708959126562183 12.095197648524424 12.21135548892512
Mo 15.461643796861757 18.531190005609997 12.787016938052007
Mo 11.78546753273714 10.002429425398429 13.705457406693446
Mo 9.55320436587718 14.060475563691817 13.98365820228889
Mo 9.796664026043445 11.773638256801885 12.354965907017007
Mo 16.299685337681826 9.248134939138254 11.233227404825103
Mo 13.932137773381509 9.157398675970173 12.916869579994914
Mo 12.304785129956054 15.370198392662578 13.63286304646318
Mo 20.03579698253293 12.964726499990647 12.20126145717113
Mo 9.775347676877951 11.32029965808018 14.849070787418711
Mo 15.274911616574041 16.24258477142811 13.796180863793214
Mo 13.632331455013416 8.76651126011602 15.730372189471728
Mo 10.251366920406426 16.739098452557055 13.637963711573184
Mo 15.509426192324216 8.988671364671966 15.037567659447657
Mo 12.253882496727575 17.693081868780492 15.107787295520014
Mo 11.699342927208306 12.776066272661584 14.44182589969187
Mo 13.899908467939483 11.284872639645817 14.803898039478144
Mo 17.25204863391852 14.652468650369697 14.416268272483059
Mo 16.519150672466118 11.616207671126961 15.649433874220994
Mo 14.613031971512294 13.688615252543048 14.395252077032248
Mo 14.590758738089121 18.446956791253765 15.358920344322659
Mo 11.255355717309163 14.920723304231856 16.012356147575822
Mo 8.047637457375323 13.026905101990499 16.00979629535653
Mo 13.088399920113256 19.239003052810187 17.359123698919642
Mo 8.673460143748647 14.787654225212208 16.416381197436774
Mo 16.05388595253594 13.860314178138465 16.477776292345933
Mo 10.677609226752963 12.625680487842228 17.128839920235187
Mo 14.788213546364856 11.021993281524114 17.114174344767267
Mo 11.781685351449834 10.828156797309587 16.590493495081166
Mo 13.355984977020855 13.1080069813887 16.916527705287383
Mo 14.157962252836988 17.71968499997568 18.111517119791728
Mo 13.798505777641136 15.754048480929901 16.186408153572195
Mo 12.616640040181654 15.08013611068578 18.7245808215371
Mo 16.009502427658063 16.58844892053071 16.28453337127607
Mo 11.547810816345107 17.10570046923891 17.250811405942944
Mo 14.520095220672248 14.675105744976431 18.670912706333986
