52
Energy = -484.84670162 eV
Mo 13.299399121060075 13.45412243096106 7.934484847589715
Mo 10.883470403985381 12.386811301045388 6.427256337449484
Mo 10.807953691032939 14.97361938769976 7.880949034261758
Mo 10.572626490265266 10.300157683518593 7.02485144580257
Mo 7.655065416846833 9.394336369296875 7.2999732520198375
Mo 12.75665451816193 8.0622755889654 8.113196286823708
Mo 12.969134769361697 11.03992737007297 7.694337508786113
Mo 9.79944496203798 7.9498493939191395 8.584978925456566
Mo 8.513672707585371 12.178638634940324 7.578246649825217
Mo 15.25992576451733 12.586573222117034 8.797088177301273
Mo 13.09343968500162 16.385656255702806 8.71281398259242
Mo 8.591328694815013 14.345006066695253 8.67223396048535
Mo 7.8953123522913575 8.048435576288405 9.875812180667896
Mo 14.637838626230025 9.872343198420518 9.092239189345763
Mo 12.074558537878431 14.37757521206394 10.44610343224976
Mo 12.064599690400104 6.930132481266931 9.811749053330438
Mo 10.732385503628072 12.504769464375448 9.012729232068171
Mo 10.3981596840802 16.19889768675367 9.761682364040842
Mo 6.571636888518187 10.203309064021804 8.667129384174698
Mo 14.662099921134354 14.61083597525197 10.104237748883069
Mo 9.215858977475326 10.384630412243014 9.399678742653077
Mo 11.852061867227947 9.790963463748911 9.75450506739691
Mo 13.8127864918466 8.29575773976447 10.825982474547288
Mo 10.145980518005674 8.406306181985546 11.269323757680905
Mo 7.821984019680987 12.465086584393337 10.18082478125381
Mo 13.295847268604623 11.953532456635655 10.392073634693508
Mo 7.802750113855838 10.122594334300382 11.555889023028548
Mo 12.911563060476654 17.008149300478205 10.550229561526692
Mo 9.569631044233143 14.09451180007069 11.19127941174545
Mo 15.155201259509155 10.610858046127714 11.72151744386198
Mo 11.154814320987741 15.54098089214984 12.738897520238476
Mo 13.605871928644039 15.184904100294148 12.611642387260963
Mo 10.179805816536845 5.923457023501697 12.63634208531783
Mo 10.412219973463797 11.67196011596813 11.611829775819293
Mo 14.96952510252489 13.173084481297048 12.001917054176609
Mo 8.184027144016806 7.820052291152855 12.735208128557844
Mo 12.507905971914992 10.184443708343968 12.387314182452846
Mo 12.207795819977884 7.663229621056928 12.937862430618427
Mo 12.357952883855482 13.014881032117657 12.881108354154447
Mo 10.003939537769938 9.674934244695061 13.605365418563059
Mo 7.056922055447339 9.795724666547066 14.157429086662354
Mo 8.222077852701446 12.143855602384194 12.954713231360264
Mo 14.793208224268371 8.613327181194421 13.412222636697804
Mo 10.108815729527247 13.786817067979845 13.906817084935126
Mo 14.30539171361144 11.421137455398284 13.819029334228272
Mo 8.941260738863086 5.890908295337708 14.187671102437877
Mo 11.70762071055041 11.428701859135174 14.926141641310966
Mo 9.248372953053018 11.54147961822565 15.068736552006428
Mo 10.858722520189946 7.528456946487297 14.968482866903297
Mo 8.328847538206878 8.844709388966123 15.415471918349896
Mo 13.35228311013045 9.027017094710997 14.861340274118696
Mo 11.051387440875233 9.571415766796992 16.222201179152165
