55
Energy = -512.44024375 eV
Mo 15.719996438410826 13.031408600701875 8.538158152367192
Mo 17.338769226575895 14.954336940211496 9.796579220556673
Mo 14.594029664611984 14.38456056732832 10.531035116064043
Mo 19.169933084137018 13.372061543615049 10.181032170152099
Mo 10.69049505245913 14.624245460779692 10.400980965748639
Mo 12.477594998412634 13.359321280369798 9.31296518940065
Mo 12.475702104349727 15.86416219026061 10.670982413300091
Mo 14.69141424638317 11.646115237803391 9.31935537158978
Mo 15.61042713081473 16.65198089688112 10.778287547258511
Mo 16.82387849153941 12.645970174185825 11.082997143179885
Mo 16.854251221169772 14.974310359932426 12.389902189693839
Mo 12.83286980590011 17.65771923931923 13.226230241337358
Mo 19.290834752114414 15.23697549144685 11.364914346985918
Mo 14.085289706126016 11.032871348142285 12.087301883941748
Mo 11.973475592850802 10.84409613654539 10.16086321244866
Mo 13.984070045198967 15.40750824249692 12.98945265670518
Mo 15.449952642086664 17.669870343295145 12.922012118287057
Mo 10.325744175966122 11.850002618344636 10.450451414586983
Mo 15.128165001096857 13.01364303906191 13.140353553543177
Mo 17.959553975314282 17.158113011874764 13.048583645609728
Mo 11.396458869030607 10.857809931850708 12.945466317450984
Mo 12.494808996467755 13.067200965239167 11.858164456581253
Mo 17.13737545709555 11.424747659598168 13.53175582242006
Mo 12.346865042123468 12.996591179291514 14.534390401984448
Mo 9.782956418726778 13.054339250694408 13.125841091736548
Mo 18.795200479359853 13.040419775178325 12.731142228228594
Mo 11.216821909278398 15.279783036150121 13.023925747921
Mo 14.581725434122934 13.635750527437402 15.725260493109715
Mo 10.812157233939732 16.909556197385854 14.846175532406104
Mo 14.671163373423065 11.100635218638189 14.931879561926557
Mo 9.725167608052251 11.920469787858119 14.868348103113822
Mo 13.283368277786963 9.332181695251087 13.495685005546735
Mo 17.171259668981282 13.199778615533068 15.073505124942107
Mo 18.872093023943528 15.311310315874197 14.363569333237198
Mo 17.11330199115357 18.4013138734614 15.367072579743
Mo 18.938675378508922 18.124476647116595 15.431150906980658
Mo 12.297343779081713 10.483933898258268 15.423399981465488
Mo 10.27601552866128 14.503871598471301 15.602088372723147
Mo 16.011776056459432 15.778383231084643 14.902122093758425
Mo 16.23859402059704 11.437524100662438 16.846219740977336
Mo 12.829020733821846 15.720825115177572 15.287303568329373
Mo 14.200882209936939 17.83262826262647 15.165399053485082
Mo 17.85823604095702 15.780977645603238 16.407418800115547
Mo 14.876874645516843 15.937338545075727 17.385959448503986
Mo 11.219612719490618 12.060328491101945 16.98096756607936
Mo 9.622704384772813 13.621329297325453 18.012724917097287
Mo 16.231333832454823 13.85700293230889 17.623373613695502
Mo 13.987799727561113 12.062044457449653 17.652812930879957
Mo 12.45761894654155 17.333065569722137 17.533346919464794
Mo 12.407111896440732 14.371502912827776 17.519742679522988
Mo 11.880059608207583 12.512841428412607 19.694988231762323
Mo 14.214488777740765 14.126479524280574 19.206646419778796
Mo 10.249091873160907 15.670173323399565 18.040324782229725
Mo 12.8539381670924 16.63778156681797 19.26680787962227
Mo 11.500923998252537 14.265604164502347 20.23185520468544
