5
Energy = -38.32544895 eV
Mo 6.594150603242098 9.43020110961378 8.444500590998816
Mo 8.831658097750411 6.170475087242401 7.91641575884717
Mo 9.699511604794244 7.607868854015264 7.401228828986139
Mo 7.765356402210322 8.286357281479647 9.53154199075947
Mo 8.71994741029617 10.139772816498702 8.305735137156104
