5
Energy = -36.64692781 eV
Mo 9.048581097514125 7.996774712796976 6.020837614732963
Mo 10.224092205788082 10.313674756532345 10.254780219824616
Mo 9.349398349033626 8.505697166393626 7.761416023346491
Mo 8.769629824990824 9.354382397912593 10.744218613980376
Mo 9.659761234610768 10.880933678301588 12.270210240052828
