53
Energy = -494.66108423 eV
Mo 10.550494817380885 10.470756242008509 6.63615059405785
Mo 12.297633252506172 12.44425471519398 7.128986328927603
Mo 7.937520443214463 11.448034922434521 7.242141334924922
Mo 11.711838381329956 8.861897910753305 5.3693964312465665
Mo 8.86672411387807 8.255751196925363 6.018197054228727
Mo 9.791240686131792 6.437589934803279 6.023112650501601
Mo 11.768153496272783 14.08916187487761 7.97129522847988
Mo 9.374732302963514 12.917362339998474 6.691045296018751
Mo 13.210805266510588 9.597736207720443 7.312334024784972
Mo 6.463040657910129 8.568349818025743 8.224864815319668
Mo 11.844328623299676 10.128395597955683 9.273637027763058
Mo 13.30959600997832 6.148443160855626 7.753404005242856
Mo 9.073911236073169 9.417756979717549 8.569336936787266
Mo 8.386517463062846 6.77016803025417 8.212598786711109
Mo 13.18424791839339 12.288355727919372 9.670755135604695
Mo 7.537438216679753 13.466641436369935 9.040987360538786
Mo 11.317254875814534 7.905387607623348 7.535876973938929
Mo 11.00060297465365 16.529995318679386 10.649199369667896
Mo 10.691405081927792 5.569043622855546 8.769310119117891
Mo 10.07520488920127 12.051352071840904 9.04754040197104
Mo 13.492036836460251 5.362226284635066 9.480005556785862
Mo 13.789797320635191 14.684161979830492 10.809688821954005
Mo 9.16472648139372 14.734053165892808 9.06607580774393
Mo 5.979913617364403 6.969932314737475 9.49381712687572
Mo 13.24189476725935 7.996224930665079 9.775343762890776
Mo 7.787255848564403 8.171868234456921 10.75590665511666
Mo 11.36862348405974 13.919792465411305 10.71405289432009
Mo 10.403227496186815 7.671515890630973 9.967777912114618
Mo 8.687881982686699 5.516194714693735 10.886960670877722
Mo 7.0784687833739035 10.814638142202869 9.914535245573072
Mo 6.561070267965583 13.791647460872024 11.812473141399902
Mo 7.592306128304625 6.1076016970982145 12.402404757430663
Mo 14.022728367993148 10.402736548605327 11.379089075854543
Mo 5.6402106409819766 9.310235341329316 10.998051344151536
Mo 11.860423444583455 8.922853438459986 11.878192974010702
Mo 11.752042496917742 6.158201940350266 11.352730142038462
Mo 9.142787640303434 15.34182407925339 11.661784335856481
Mo 8.912001272270105 12.747485761771456 11.335841913901854
Mo 13.730920980447111 13.202220150928056 12.231146814457553
Mo 11.919971653531437 15.867863013552343 12.452882579511412
Mo 11.539531084359872 11.615309694764164 11.921187543023244
Mo 6.9503354380026545 11.023065973068912 12.57635778942781
Mo 9.428706899723744 10.11321417921973 11.299382491556246
Mo 14.018621892568353 7.273859175430263 12.471560582473852
Mo 9.906476012676825 7.351731595797007 12.684117353615115
Mo 7.89180273662324 9.048302559803929 13.263936803168669
Mo 7.4166292880502676 13.657418721333377 13.530868737174247
Mo 13.475146361026482 10.156891904239622 13.496424139732877
Mo 12.738926610261322 7.3359862328742835 13.884219978195919
Mo 10.494698088061325 13.927126362586726 13.323766815474723
Mo 9.192065833026433 11.5721650505729 13.823958813840495
Mo 11.894128918655548 12.160799213208225 14.28369509444351
Mo 10.596728446982643 9.769194893396337 13.99637027765865
