54
Energy = -500.36357206 eV
Mo 13.544992756708647 12.126700015962637 12.69781484862111
Mo 14.694385457756233 12.247914821751044 10.327217488026237
Mo 12.892327694202203 14.498021535171137 10.705770973142542
Mo 17.047908545812895 12.089856652485416 9.58040943389639
Mo 11.635616873648972 16.648360645790465 12.216348447999053
Mo 9.151563518321787 12.339215744315958 16.765565296028633
Mo 16.484929978812577 17.884510066411764 16.3777665588108
Mo 12.93520216617254 12.731239750849412 18.204246814139655
Mo 17.643723727134777 13.36740527431479 18.039897897563776
Mo 10.510340407503136 9.538112235384185 11.530775688313042
Mo 12.981344415994164 17.335771859669283 14.680209401535135
Mo 15.102274919748728 13.486640433902094 17.26256342415325
Mo 11.51154145173553 17.04719784881756 17.06547133779524
Mo 13.217724589812034 14.707498838282618 13.549199891632982
Mo 17.822368345152324 12.721506997926307 16.2408207875937
Mo 11.77906232940005 11.937680846193784 10.935514448651436
Mo 15.559454001172158 16.231479141557728 14.182380069407035
Mo 10.842562363745193 15.59985012704341 14.666609843318733
Mo 15.562626491177017 13.416896066379518 14.527785371439641
Mo 11.474708946691893 10.59393245194093 13.778345287475947
Mo 8.20247908106584 14.379257933836945 11.867821850063175
Mo 18.73349653003502 11.26604615925422 13.743391988570446
Mo 14.579789962518158 17.04124535791087 16.844360530173827
Mo 14.039231835981585 9.741154459743168 13.457760898313184
Mo 17.594175729903927 14.364345038653004 13.858681164892683
Mo 11.885812954228491 8.383664630089655 12.32654828682335
Mo 16.746863028483638 15.265027994966744 16.252290176027632
Mo 11.563567096245182 11.342106356608264 16.798685317056638
Mo 14.47621994309319 12.459883275479756 7.657039403554975
Mo 9.689313050440777 16.524151062967757 16.84879774631527
Mo 14.187423528166589 16.75291480874441 12.103788687291317
Mo 8.87717235962346 13.614453960135142 14.63503064552183
Mo 13.602025590767681 11.83215380128579 15.497483148642733
Mo 15.50301332522463 10.131320920489848 11.58428372160943
Mo 11.267699728440517 12.980613375871847 14.854919992422197
Mo 17.63440607900677 14.114026689358854 8.610346300212512
Mo 15.396113683159706 14.494855863579428 9.33781807933279
Mo 15.541252700157804 11.111547218214595 16.672596479972572
Mo 12.969542751500168 13.322381710376803 8.226867317350338
Mo 15.450199642113786 14.638350220081847 11.836970571921773
Mo 10.866920552439861 13.833866047528959 12.365539477434579
Mo 8.904060841374264 15.947185643931741 12.660404983030343
Mo 11.087920796644273 14.154472582499345 17.187150037303905
Mo 15.184842460842171 18.525206521746288 14.512945744735651
Mo 9.281913379203079 11.84120793045937 12.972899251007325
Mo 17.793231734734114 14.532687002012478 10.814726698305948
Mo 10.6322896744377 17.90532299879766 14.187589582136043
Mo 16.17396447816146 10.944813325133742 14.277742955684756
Mo 16.958995751320092 12.500634231486783 12.041754709532588
Mo 18.20868228041067 10.139961801036831 12.35341750612907
Mo 10.600485891371584 15.12649396363147 10.392936719905654
Mo 9.196902302520908 10.793037246062884 15.142929738467936
Mo 13.238802373609243 14.7859197337807 16.102759738719488
Mo 13.179057135042902 9.983028895233662 10.721405514458356
