54
Energy = -504.31504838 eV
Mo 15.061983531688385 10.254767469148092 12.255090630563918
Mo 13.185857208176886 12.197947587190795 11.0625980249713
Mo 13.121454802271364 11.825533040103377 16.524128488866204
Mo 7.765206142199977 12.536577643508785 10.345289461836678
Mo 14.76866223559535 13.939151347373501 15.342562532432138
Mo 14.909739329632512 9.807238390090795 14.848404425748098
Mo 11.86220376132648 13.89397981802729 12.685924028451753
Mo 12.289319777776898 9.743144150209387 14.972511244851807
Mo 10.393299069146023 15.723781310145398 13.74278838899701
Mo 15.962451346784295 12.692195014747469 11.078221371679161
Mo 8.358257898610974 10.938437027846147 14.646920399760544
Mo 9.98818203212078 8.743042191670915 13.484610102454978
Mo 9.348921701212452 13.675390887885152 12.050320152091942
Mo 12.30230161038712 12.741782507491658 8.440861081444428
Mo 16.3763145475153 15.114885345591471 10.957570140705615
Mo 9.011896712652225 10.43691648934178 9.067559279638234
Mo 11.914192314150784 9.941573540310483 9.187278306298127
Mo 9.431733630943862 13.243894307103025 8.406992516894618
Mo 13.59749612612793 11.863694209149541 13.909836499652958
Mo 14.81980687666324 12.932709243966478 8.85285152927092
Mo 10.511570004156638 11.256786621107283 7.390946542888964
Mo 10.593827969525174 11.828538496573344 10.450660203500615
Mo 9.431638952999583 13.288205714688267 14.728035227869473
Mo 7.278539963983782 12.45457210488298 13.179127859681847
Mo 13.473702158667175 8.306138175533684 10.610541765548954
Mo 14.446890910329376 14.207718246535741 12.804736849414558
Mo 16.23957067441084 12.188616898118909 13.485781470577264
Mo 13.228069178361435 16.141865461603043 14.469939325787111
Mo 8.726764806409923 10.78081146291618 11.9427849099364
Mo 14.73085697245895 16.69602391820692 13.37204823431858
Mo 7.573492616401376 15.272318989242251 13.708159112814403
Mo 13.696214998225573 14.767980187247534 10.371418371833826
Mo 16.97036788148181 14.740933152843635 12.87875764423289
Mo 12.084383782939147 13.666813292017821 15.365229206323246
Mo 8.663349893363637 14.97705150939684 9.695802798852883
Mo 13.632090814381344 10.9903708440576 7.273735308825117
Mo 10.616201369159796 11.377956080261185 16.366681402258155
Mo 12.252309722273013 16.238222491591486 11.865145034154454
Mo 13.974505042348518 8.167143774283417 13.349311312719982
Mo 10.253194806522817 8.693718035304345 10.753988668605151
Mo 14.55455650716098 10.556506928522047 9.651206516845933
Mo 11.122302603611557 14.631665014385495 10.117961363786007
Mo 9.476457077030254 16.389197296597878 11.79834283999559
Mo 10.771470433250974 11.580236819479667 13.547785434115156
Mo 12.215097375100768 9.876226689804792 12.15781729670872
Mo 13.906356457038363 8.322193219034885 8.034271689795235
Mo 9.755480073918216 9.304546894750318 15.823331473529057
Mo 10.045573144765982 8.169722885980624 7.9158147441010485
Mo 11.374992377402153 7.149300447187766 8.909953953471897
Mo 11.72312252959777 7.211340946406651 14.149173416556867
Mo 11.729442975864217 6.945107395742613 11.955833868213913
Mo 12.355181191271887 9.04807289240884 6.68984471280892
Mo 6.880454860660188 15.021304197513357 11.973374791712144
Mo 15.573388425530988 11.95894029756129 16.03006918523704
