54
Energy = -501.72146411 eV
Mo 13.472856119974436 11.462228862298062 16.67447790233006
Mo 13.055878162580754 19.97349463996947 13.225734798959596
Mo 15.521109717932726 7.853198823215451 13.035662394574521
Mo 16.977411996351343 16.87317815509803 14.41223358985639
Mo 15.563361128762661 12.159154455657951 14.547895742436731
Mo 15.38528151958487 14.04276305326317 10.550002038178356
Mo 18.16656715496118 15.05767075872164 11.075975458147823
Mo 14.678090775138553 11.625891463860583 10.043041046310696
Mo 14.107770566577607 9.549713742992106 14.682082220299954
Mo 10.25619799931844 16.19088383172244 15.17528910946645
Mo 9.843365248394944 11.388229760781103 12.670537229326285
Mo 17.06238416419715 13.57726744495499 12.61020467908541
Mo 14.746492436035192 10.475249706790768 12.359097988192053
Mo 16.227974681536857 16.30575555071916 11.652176282213679
Mo 12.979898483030073 14.538853429848697 18.47463377336603
Mo 10.58231107463351 11.095025568905106 15.702738936080157
Mo 11.481577313928035 11.841283452031004 18.02630348492276
Mo 11.66306869505542 17.476115794492472 10.576600275930883
Mo 18.257556029327905 12.428128129608764 15.19005129293607
Mo 12.366251019010635 15.055850243744988 14.172076316872033
Mo 10.507091519489027 14.856091859972135 10.129424990689879
Mo 16.830114347320016 14.671818904692508 15.422672894015234
Mo 11.937192018610876 9.333484063469708 16.047532240324905
Mo 9.911595523868549 13.637694343394408 14.193873609514586
Mo 11.487630657845429 13.625799828621794 16.55528964933479
Mo 10.598359082783853 16.11023045759714 12.539584240511068
Mo 14.120586343977546 12.956499843868038 12.460413714440532
Mo 13.536286318367626 19.25841482099962 11.242962055332619
Mo 15.13277329709906 15.155720151942663 13.464648481966822
Mo 16.194768706901638 12.686681145637444 17.12283626315375
Mo 12.347505212622016 10.89736288479449 11.412035207052236
Mo 11.504535134418646 13.512359852765531 12.084733972075307
Mo 12.455605876573228 16.282972574633007 16.766511150334384
Mo 15.915944578022172 9.913871574677287 16.311820080217853
Mo 14.339416453474362 12.53330251182469 18.675723612102193
Mo 15.160302614858097 15.200816899086464 17.6268810755585
Mo 13.237482292840985 15.227721868081339 11.025103805291065
Mo 9.934868145791011 11.852192141843517 10.69345243451184
Mo 13.364981551561321 17.159905448722807 12.748146243696462
Mo 8.882508359087053 14.106050460335377 12.27406862451677
Mo 13.993253781787725 13.958489837935408 15.889553102635693
Mo 12.446127304752004 11.876339686894557 14.217985353764904
Mo 12.108776704686559 15.812123598288945 8.88547084024469
Mo 18.93046203662516 14.858399738043197 13.788765461650724
Mo 15.386032354408146 18.330835577412167 13.244689692781742
Mo 18.112928628813872 10.957899780275593 16.70684799653988
Mo 11.775712577436073 17.871024386056654 14.808979189316439
Mo 16.90331521308178 10.189938163108424 14.229319512724592
Mo 11.762485215573045 9.512311112481648 13.590708057135286
Mo 14.46434220273135 16.724123090334942 15.522142864511652
Mo 12.821024808754958 12.862771354752269 9.759454084065307
Mo 13.814694783075288 7.938183297119147 12.364114013098375
Mo 18.784074090233688 16.771735806592826 12.71872145291208
Mo 11.121429281267208 18.87163972481586 12.6346035737922
