53
Energy = -494.32217694 eV
Mo 10.929837985399105 10.471309056007001 7.372918379252764
Mo 13.09251318397411 9.151534876184206 7.803589379179641
Mo 10.769241689007579 7.849127018640814 8.73637696127276
Mo 10.130030114446564 12.662784476452993 8.372529079754116
Mo 8.425486496293303 10.136058923435177 8.890441041628968
Mo 13.5951490819482 6.556188358592741 8.616578771261109
Mo 12.809981146714012 12.07041185272643 8.358327254914478
Mo 15.191455723992812 7.5962332896698035 8.884307093145651
Mo 11.98891523798481 14.629057128284714 9.397841235654525
Mo 14.735740513091116 10.420603381500754 8.734211830820463
Mo 9.110628253823455 14.764135825550357 9.53863115353122
Mo 10.478007703536717 16.998059727059303 9.454773844842343
Mo 14.093376019762385 13.681119287335855 9.67180616039783
Mo 11.087511798130736 10.284297120358517 9.771028526191802
Mo 7.88198527009003 12.657238883680582 9.910092376330775
Mo 11.430869127172295 6.570067656083369 10.48244904978424
Mo 12.962116275258023 8.629700627557893 10.433210186510001
Mo 9.249715845108406 8.304543097486237 10.537199739351854
Mo 13.312629022434718 16.31473139664203 11.050943313951652
Mo 7.04472771788457 10.230589177853135 10.363823271551837
Mo 10.64097230906625 12.744868833280877 10.758774883783865
Mo 14.348672649817223 6.681418140404627 11.498990389188714
Mo 13.493101244983341 11.301673724625351 10.805667901080502
Mo 15.758161743974044 9.43111725445807 11.091829315266159
Mo 15.980920662426579 11.653242859424111 11.054839870667598
Mo 10.18694244736075 18.10879223107436 11.109286034278611
Mo 8.43590440098352 16.351298921944835 11.409757301007984
Mo 9.191160195680366 10.790216967998171 11.818022785952305
Mo 12.883797384918415 13.76381737907373 12.115173261421923
Mo 10.710459985468868 15.409821815108675 11.766524043067461
Mo 12.455490751160667 17.367067095650395 12.496584390340747
Mo 8.199915440262938 13.655547951476215 12.10988507696619
Mo 13.793718290013777 9.259830743222945 12.855543687460782
Mo 10.86104140930377 8.723480077352576 12.43249437659415
Mo 9.721537182388271 17.320099065712594 13.798101237139697
Mo 14.031987505164432 15.032864556199447 13.737071956574804
Mo 11.922365071055745 11.082731124148138 13.01973035893024
Mo 7.003429867595098 11.759099337369735 12.891529151289578
Mo 14.694326609886746 12.08022318506433 13.255675612892228
Mo 10.412344488696478 13.04604987561066 13.477095795490477
Mo 15.791054308675095 7.443588624809674 13.783288225954415
Mo 15.946509392129201 10.21818444202406 13.687266357498018
Mo 12.841376550139179 6.81812995035763 12.899949146398765
Mo 8.954366797888188 15.494307903495343 14.058232927190526
Mo 11.763696367288572 15.49933486582376 14.266949311122747
Mo 9.254081311662842 10.452703562760124 14.229899586145782
Mo 12.743796336130007 13.130357973141429 14.881804580306145
Mo 13.455341833429328 10.57252258844735 15.263267172692819
Mo 8.158520858627432 12.48725839861645 14.777236679593294
Mo 11.957959936526365 8.98672033076229 14.876233324910798
Mo 14.722735640641197 7.970103969270091 15.207358478014584
Mo 10.808214551775892 11.556382345694637 15.93875344553435
Mo 10.351328646759368 13.624503122428308 16.04125506384941
