53
Energy = -495.52599422 eV
Mo 17.550180038353666 13.807538716738343 13.23646972184875
Mo 17.155141965396805 13.905647590585101 10.448639451919497
Mo 17.73879149468137 11.965061966586289 12.49583504795944
Mo 15.776778880620196 12.054694436196455 14.342584658255811
Mo 15.681596658044997 15.621373525913116 11.622043998284942
Mo 16.776201494068122 11.560970158137128 10.036704818609952
Mo 15.8652446199561 9.592199759149516 14.24939896531674
Mo 15.088757984966085 13.013948339043974 11.939369281653295
Mo 14.995553069514438 14.720452603320938 13.98419318018416
Mo 14.93456468830845 12.862792132649346 9.091261684164735
Mo 14.085084385056721 10.372774310575828 16.04398107840669
Mo 15.371821040271607 10.31140945049162 11.854406504482412
Mo 13.036853294155513 15.813290789260265 15.434645319571807
Mo 13.418996642480483 16.46104172964986 12.636595237788585
Mo 14.344492827832473 10.035114886575931 9.087216615496256
Mo 13.182855689134147 11.142964914763096 7.8248850866178286
Mo 13.533074055600624 11.025480779612371 13.366631750093596
Mo 15.510483129710583 15.1427373926133 9.05276193416778
Mo 12.152257460953008 9.55166067094425 15.536703876458356
Mo 13.513501416923077 13.027001224189515 15.379561749527705
Mo 12.90261708298033 11.753169053100368 10.59100826570967
Mo 13.47276883018722 14.746905407664405 10.604265948925768
Mo 13.79371857344539 8.529108995204181 13.735232227953626
Mo 11.453461133719443 16.451214550919126 14.109119253874907
Mo 12.649780218328075 14.036114464604303 13.048377083204153
Mo 12.26302284108062 13.918548005925208 8.45406076490948
Mo 11.907481293052449 16.499555985038647 9.460538619642753
Mo 12.906426489110075 9.031335206845759 11.247627400632382
Mo 11.916769737207101 6.774354565154025 12.023875813728218
Mo 11.185655749766635 11.972727498148187 13.8906573786909
Mo 11.120289053386385 9.287215964093106 13.124871796439749
Mo 11.497030414943739 11.844537548811472 16.35575586831735
Mo 10.871958079913865 13.337847532287253 11.023796057115579
Mo 9.287962569666988 10.427236740367865 15.158036696406153
Mo 9.600061199741756 14.349085780994319 13.394651963313814
Mo 10.534690364678465 7.015958226872387 13.613058652932034
Mo 10.76096043973825 11.927528979175506 8.580327136730979
Mo 10.500877902437601 10.598922313678756 10.98631840704489
Mo 10.951167765209462 15.951118205142985 11.412912103560222
Mo 11.018979411058892 14.122067188317018 15.509383703764694
Mo 11.622416453071333 9.264414144008466 9.019767386544705
Mo 10.149903909652588 7.99979317788205 10.836454606458569
Mo 8.810194101366676 11.82831347775971 12.5378197455378
Mo 10.235200787974367 14.885987027850538 8.898156619611257
Mo 8.615274992190164 12.284280637751808 15.248078061909577
Mo 8.398486494301064 8.95230518597344 12.810280573389342
Mo 8.478952344270605 14.361192470745895 11.381837423371334
Mo 8.659612132204682 12.360955810181224 9.730890925285246
Mo 6.676678512470511 13.390417248457066 13.202406893397375
Mo 9.216736263854132 9.546148292652154 8.728357040388488
Mo 7.86327520251731 10.102279267861466 10.500835653029679
Mo 6.918469089784385 10.223130743113956 13.450598642899507
Mo 6.2944923234917205 12.36178955131926 11.653934280138913
