51
Energy = -475.54465854 eV
Mo 12.24015609493935 16.203547850946418 10.95416863580475
Mo 12.25184749361201 15.034257057125481 8.69563118662977
Mo 15.9295467120926 12.415046965064992 10.361999511985397
Mo 13.859328984174136 12.319813152798638 8.388526461368512
Mo 12.959640359003744 10.68745227081307 6.923393216310065
Mo 12.02308989983277 13.393297028539273 6.901423232371825
Mo 13.84435305758045 14.142990374623144 10.635214834543103
Mo 14.719900901554011 10.102469569486786 9.323798640104693
Mo 10.111525651784135 14.885512544879989 10.571326309954756
Mo 16.12746709691323 10.550968556758905 11.318910652039829
Mo 15.419625119733466 13.102545266214705 12.793897024439394
Mo 12.19314966404047 16.696737947357462 13.264633297589707
Mo 9.74462558256508 15.094256903326192 7.6768474522001755
Mo 11.71918207885656 13.904775271688704 12.358915339392558
Mo 9.376496345501646 13.662043512806992 6.418171198017834
Mo 11.47326208895847 12.850674236323053 9.546280095591612
Mo 13.24549051882632 8.278156286672715 8.034036454860674
Mo 13.372022664517905 11.598916674172484 11.477356671583834
Mo 12.099950840408066 10.337211625549946 9.440196783970157
Mo 10.262547863249205 16.00744045293105 13.148310421846721
Mo 14.520698056391709 10.445555311966077 13.562332496191198
Mo 13.64530069735681 8.799277142883192 11.219436003761528
Mo 10.54377985131838 11.379067229819618 7.396448610431306
Mo 15.040306069472669 8.279150377969671 13.111849381735517
Mo 14.31002396792541 14.993490985212345 12.913773339120402
Mo 8.841516890698381 12.738306927737463 8.9026238734491
Mo 11.46119296857927 7.540377932710788 10.135667047940508
Mo 13.375629004086361 12.83605928351685 14.39338151420775
Mo 12.242096427440188 14.824575621848824 15.478921886054485
Mo 11.17223777304918 8.500852825258354 7.706680855075497
Mo 7.631923955729222 13.85742090364891 10.661110693123662
Mo 8.650424991365822 13.902362380806718 12.799667781717659
Mo 9.716849247409085 11.952578498078816 11.506529875143544
Mo 9.595054871152024 10.108722854719174 9.440511956130084
Mo 11.514244146621518 11.239823998095806 13.528817443699651
Mo 10.327171744300538 13.349407681249492 14.602100836979652
Mo 12.346728845940799 6.505744964309496 12.651704261442546
Mo 12.632544197598323 8.84561211902242 14.074279081077492
Mo 11.013288246844402 9.272282261028082 11.771602170588594
Mo 12.89413459259125 10.837281348607181 15.83763904178855
Mo 8.84062295349283 7.773639807307917 10.393741932926352
Mo 12.014577297950877 13.358532885963065 16.793188725067083
Mo 7.234110744594993 10.995781568186528 10.297016749383406
Mo 6.797193118652303 11.900692355050836 12.132004461611958
Mo 8.849669135915267 11.303536406385593 13.943957197697847
Mo 8.352803328605573 9.46629231121495 12.102486175842179
Mo 10.448306364795231 11.053560606155596 16.12986805014102
Mo 11.41896206269614 6.49594518866915 14.325808416501769
Mo 9.820360137244537 8.965613117202574 14.286457736956539
Mo 9.644924852271371 6.954457125985236 12.243767857363038
Mo 11.10117820744984 8.85044896281362 16.27514762539708
