50
Energy = -465.57578013 eV
Mo 6.971816198797927 7.742182354625611 10.454108012819628
Mo 7.9424078421708275 8.129936925480022 8.78104006136771
Mo 9.778677708477337 6.195338625917683 10.30000234577589
Mo 7.097302460717565 11.900520760116141 7.977347867502854
Mo 6.031931844329555 12.837475797608468 9.349613169014429
Mo 9.849444652727785 9.673066680625162 6.753996912531197
Mo 7.050880182968749 10.343782159502123 10.376603640783092
Mo 10.72070086276117 8.130956026222588 8.760324095064762
Mo 8.22266684319755 7.413765580440126 13.083928199602882
Mo 11.77717392164485 5.872898831555682 9.736198163427169
Mo 7.196328734376607 9.924217611194845 12.745372664345048
Mo 8.245335378063169 14.510515272581465 8.364270830425554
Mo 9.367192433520378 8.763253147540157 11.214245700299916
Mo 9.684875981015752 12.88246590899121 7.355843450998462
Mo 10.292503406196037 6.487843048867072 12.828191100643002
Mo 6.852102607937483 12.664911292656342 11.856995097972227
Mo 7.61455818806603 15.003106436757092 11.270147266223036
Mo 9.298715655654986 10.558669087814058 8.95624781737604
Mo 8.729952047043763 12.802188487613083 10.13134399269932
Mo 11.69753177627818 10.519793098158347 7.431154448302409
Mo 13.418699765466018 8.395249368859536 8.84972327619599
Mo 12.046451751344323 7.809678689190141 11.323129299079424
Mo 9.141980538527257 11.221377897854946 12.266846356131024
Mo 11.628880518111655 10.2982107534306 10.198223535357524
Mo 9.577734044003416 9.095186920473397 14.069490937838856
Mo 11.72463385872013 10.259962865364109 12.78394325289982
Mo 12.643934472821691 13.228355470193868 6.953689789626348
Mo 14.034277472646892 7.106864271792641 12.872694834299638
Mo 8.989108473023766 14.077581756413144 12.86526063831098
Mo 11.93668424104339 7.985148649140339 14.06197052401304
Mo 11.277917647293146 14.717257526921234 7.751306679134205
Mo 11.176693630860708 13.00853546816271 12.072292366316049
Mo 9.967466088717185 15.004164401971021 10.201307652229639
Mo 10.85138408136008 15.771746178059509 12.525710244155102
Mo 11.480259165306729 10.534063668751536 15.631812161323538
Mo 15.287166801127858 9.09627558353662 9.12775260349989
Mo 11.419612193278262 12.670684915891265 9.347029518200541
Mo 10.386612946210146 11.86209544903361 14.75034611075183
Mo 13.86213758734345 11.247011941067427 8.906954722967686
Mo 14.066809423932357 9.491629587155078 11.342886229356965
Mo 13.843334716361392 9.59560139477545 14.233461089015151
Mo 11.596481024126453 14.656918281397889 14.301385378097496
Mo 15.642755619157214 8.544533582490567 12.913322642570625
Mo 13.434567027969296 14.517478916109205 13.031325120525624
Mo 13.99232180587728 13.74005081531415 8.91329333158996
Mo 12.638576087468282 14.871758226511627 10.556831754334493
Mo 13.130335144006708 12.176086224585953 13.94373786132662
Mo 15.948589986577925 11.5385709627694 11.003773085624134
Mo 13.504869392464192 12.295763088492254 11.289001361585816
Mo 15.582297712694247 11.54924521997854 12.894714715836844
