54
Energy = -505.14813464 eV
Mo 15.970764058990735 10.876368176372749 13.181966119629077
Mo 12.393420835434009 14.859572927595922 8.964851625866903
Mo 12.614187570182713 8.08386873426701 8.402624974208257
Mo 10.241847859898012 15.258442857783173 8.36152142353415
Mo 5.971354924273687 8.785613308131406 9.997795201008923
Mo 10.596437529741317 12.686705794616431 8.246888238420619
Mo 11.550350451438149 9.227994968742614 12.396097751801088
Mo 13.365489603163777 14.404509025428325 14.221480051421551
Mo 11.694111897091073 6.76703956969642 12.596308555584491
Mo 6.605265072690748 10.737736622828987 11.589915971040876
Mo 7.205175725272556 8.723438961838983 13.229317317358076
Mo 6.871827579421315 6.634706185908294 11.117701176778812
Mo 15.033040958375553 14.089727543171229 9.984459955063562
Mo 8.079029807772757 14.041237387235427 9.198461487069325
Mo 10.424587859605907 16.066450730430997 10.638120218560221
Mo 9.228184934756923 6.452466122281419 12.060240036135548
Mo 9.871255697745587 8.764721907580071 8.269191038487588
Mo 14.00919482661961 8.358117746056744 13.432880744337067
Mo 11.609509088244739 12.67240138905088 15.05268728381119
Mo 9.338768998773055 10.905927044642137 12.238603014183925
Mo 12.819389826918725 12.38564960153608 9.97264123565536
Mo 6.415405559117431 11.666985173408776 9.39297865197764
Mo 7.997789354949976 6.781760758587775 9.387694635555455
Mo 9.374742261919693 12.977468671219828 13.72929120316864
Mo 10.785343865171592 7.2426150276899985 10.306734676759596
Mo 11.803762611464728 12.211769760030553 12.652517372307987
Mo 10.523924497213015 10.438840604594771 14.665010501427936
Mo 16.631273340285194 14.014963353777063 13.537545164673592
Mo 13.376705229269334 7.971066183300191 10.370557712428505
Mo 16.123087566962305 9.411856407325782 11.51151252512649
Mo 11.323715009860706 10.139253695279558 9.96695158283552
Mo 14.558345388175804 12.957077064788752 15.082157770468065
Mo 15.050252275355115 15.326682087006166 11.757785486457244
Mo 9.460037336455207 8.307705678606231 13.752226277553415
Mo 11.792470823768362 10.621582875186256 7.513720783343756
Mo 17.173844769477295 13.184324301089118 11.905391667628582
Mo 10.241148143351781 13.369377014414361 10.81678784138137
Mo 7.202294475445466 9.332361735106769 8.343437557497369
Mo 7.756445331663943 10.641668082835338 14.270547767389719
Mo 9.411151569146949 10.560682654072771 6.875602202972386
Mo 12.569362342266214 14.8032732910478 11.422179896760289
Mo 7.9449770085394205 12.97345990487894 7.456020432168062
Mo 15.737596999166945 11.525780289261895 10.21601513085144
Mo 8.684870955162324 15.33676714953252 12.025210294180638
Mo 10.605264289339534 14.969779418040819 13.256155154717733
Mo 13.326394878296718 10.757546622404787 14.26403430197855
Mo 8.678293280600858 8.82127243700811 10.880134603977409
Mo 14.229949820064068 10.192702984903548 8.803310852651249
Mo 7.646227426065345 12.912360935414096 11.774049506752352
Mo 14.416846524278563 12.750765109797703 12.319965472408429
Mo 8.760730962711884 11.252260225880985 9.550958971286827
Mo 12.340095684252528 8.24047722749876 14.755778682603825
Mo 13.774929971275698 10.345488052707958 11.541411507300749
Mo 13.908375834508355 12.296179110100354 7.861420883445672
