52
Energy = -484.37602888 eV
Mo 13.380977324298446 15.554066209682807 13.74828962120491
Mo 10.972994179286182 14.194183050881472 14.961894352186281
Mo 10.587791180143235 15.906562895886374 13.134953243175113
Mo 12.71863712151749 16.5821276639879 11.082995429243466
Mo 8.608010413824989 14.147551859639362 14.358790707356524
Mo 14.514791315523075 14.708207899065082 12.435601444135159
Mo 13.138525785929772 12.818353473864704 14.143875988579776
Mo 9.145445376463588 11.941101758202352 15.90122901205749
Mo 11.193204875816031 11.765898178281834 15.885505210046666
Mo 10.860397968977333 16.103519649431977 10.436455670163198
Mo 11.778671326210718 13.951350285104969 12.187106543582455
Mo 10.261955267222598 12.212308123349539 13.295216484028247
Mo 9.019970643248552 14.429072164336363 12.073774723054491
Mo 13.139089648478981 14.412638607344004 9.843792510332952
Mo 14.748569109867333 10.159991928276554 13.408902590537744
Mo 15.72628637794698 10.479260260509369 10.882158913118065
Mo 13.787783923500909 12.132992506525605 11.724291529367989
Mo 7.689240211066594 11.838558948349368 13.310727476806056
Mo 9.72876229316713 9.759428166651785 14.490522154642143
Mo 11.028609739027342 7.59787279026565 14.753286045916639
Mo 12.416444642485432 10.366819415879364 13.625637020012997
Mo 15.260328325267613 13.047838511184645 9.882926729478609
Mo 10.58562107587673 13.55601346281805 9.755755270987278
Mo 11.2438862563188 11.211493360325694 11.132036164747625
Mo 13.890278894959122 8.037406031266501 12.820307567078029
Mo 14.52039970628292 7.357971363886833 10.073308367162664
Mo 9.043536674450106 7.145154922974 13.594849318759719
Mo 13.527026340817208 9.533043713568675 10.905028245219835
Mo 7.123163446137368 9.223302990856297 13.952778150592087
Mo 12.81423779736069 11.650626085199871 9.13143896404149
Mo 15.16540798505955 10.261909848797053 8.611295826297273
Mo 14.511919553302134 12.669850571351343 7.757796529778356
Mo 8.517656211255128 12.158612564125601 10.636807485218204
Mo 11.412755241464895 8.319540017419847 12.437685996892546
Mo 10.049303537970816 11.140661204898489 8.368475311211977
Mo 11.637136421036335 13.327076035015617 7.209142121638747
Mo 9.1542852777062 9.746770544277586 12.067640798666092
Mo 8.848780101709538 13.267024875303731 7.963511746654284
Mo 10.541760240257608 5.8854571461816905 12.368587671181924
Mo 12.439089328438548 6.949032455627951 10.320073227467462
Mo 6.874086468795589 8.306357814384855 12.060629451681706
Mo 12.69776824000737 10.835839521473176 6.589234364977852
Mo 6.603615792511059 10.751988095606016 11.510848366920632
Mo 13.195064888489256 8.88465014110224 8.241053534352561
Mo 10.94656343177106 8.969763725048416 9.526403224706433
Mo 7.335222280845156 11.526521514555002 8.630882007059645
Mo 9.271054260976804 7.271366275636562 10.850207552969698
Mo 10.399682221487591 12.308625856154016 5.954654454542725
Mo 8.162625217805761 9.364144406088357 9.529372144517314
Mo 11.04732540497207 9.47789059716058 6.510357523259331
Mo 9.672706061996777 7.2635600042234145 8.250333611855286
Mo 8.621670836238039 8.963340148509824 7.276717960820384
