5
Energy = -37.78104941 eV
Mo 10.608176699624703 7.848612816049531 7.596568641470423
Mo 11.065399798327979 9.835743490394083 8.783029432057454
Mo 8.261001271322465 8.867991297941087 9.075311263335008
Mo 12.487452221530432 8.415169527791315 8.197979617606697
Mo 6.892975662653127 8.858616619867588 10.084806052295285
