55
Energy = -515.79418127 eV
Mo 14.497445739379646 8.765202149119588 8.687478098514365
Mo 15.567569594686718 13.523646412299572 14.015706283304272
Mo 10.935393527131817 11.099105025200025 14.298606991003137
Mo 7.739679536787959 13.506644198646931 14.366783085308828
Mo 10.038025637742592 10.161466367856013 16.83367407235141
Mo 14.779777440606466 11.621551148875321 8.300179718873915
Mo 15.93616446971963 10.807793294486643 13.092180934305862
Mo 12.307021068662639 12.00174908709434 16.412699325105496
Mo 11.961205114948882 14.479970382371823 16.057476318449424
Mo 10.733531989638694 10.329898515615527 9.488323925868727
Mo 14.032082215073427 15.601993340611404 9.792050192934127
Mo 11.388492643054867 16.46715901892541 14.111648209869067
Mo 12.242051131504407 15.235326615308566 7.998458554002588
Mo 10.608331384994376 6.618043610798485 12.225506325768805
Mo 8.857914466216391 10.203913801022887 10.936377465051573
Mo 14.615388022860229 11.457147906280925 15.422538706776441
Mo 8.746958823722883 14.146219656559426 11.937577472287122
Mo 11.204042866174827 9.439299667034923 12.124039010242692
Mo 13.057068325414114 13.133585604600121 9.597336731435098
Mo 12.510398242852629 8.35357742607585 8.378659215478132
Mo 16.0357052936367 13.552890165162106 10.166379446133245
Mo 8.916478867591831 8.743580226233393 13.242171544602753
Mo 14.247314795307835 14.296492180013699 16.252185122544894
Mo 13.793326029182897 15.631151285692328 14.177180411137051
Mo 10.404063905710533 16.418234664834877 11.953501961517546
Mo 8.51851516027242 10.276935970972112 15.581127455641393
Mo 13.228627445241306 10.40657959078798 10.363707491315886
Mo 12.780500387746667 7.734182177643222 10.804864750147043
Mo 10.551097688355227 14.658618183580051 10.124952162379806
Mo 8.744230062550587 12.386546263397552 10.09825822135585
Mo 10.7732723200149 12.753242165393925 8.565738167373807
Mo 13.333632257780419 10.535357174104018 13.171778981217752
Mo 9.558904118588933 12.8142164066046 15.770747818862693
Mo 10.13778544989313 7.44176297396185 10.555404687399815
Mo 8.550183957666329 16.2280684744319 14.151989735993261
Mo 10.455006372098042 8.34874976785285 14.635880399852779
Mo 12.905789110847447 13.032072437144041 14.058650793407029
Mo 14.806146382998548 8.758032971030843 11.87228317013198
Mo 17.187488677477294 12.876800149145817 12.174209019899706
Mo 12.744899113689597 9.502498218629984 15.620017152443713
Mo 14.306949422148586 12.63432232174752 11.827940743145547
Mo 14.956262537138231 8.996343161056625 15.039781935876222
Mo 12.582380213301741 14.817180229661183 11.914153882266708
Mo 12.188005104133337 17.253487201089552 10.28648507973596
Mo 13.14308907719248 17.488629055620986 12.081697675314574
Mo 9.268179143676305 15.634475465376727 15.809073073595211
Mo 10.436519662411238 14.060212208223549 13.701572506382691
Mo 13.056225141815927 7.959473974769259 13.399734237186161
Mo 15.82423392637602 10.910632638237852 10.554838923426335
Mo 13.033469010931661 13.606046812583308 6.776566531748204
Mo 8.723240407079608 11.749872023742979 13.132466366231863
Mo 14.976814228363152 14.289124300451856 7.814111969543453
Mo 12.69112783564006 10.939728520672455 7.681361463330742
Mo 11.134960195781852 12.2104046596885 11.47443274185357
Mo 15.27013445618467 15.123862751675981 12.11055374007361
