52
Energy = -483.56872255 eV
Mo 17.525598551276044 11.589123035622091 13.739553080866399
Mo 15.532663483721553 13.01973502214498 13.674997966569386
Mo 15.500192257323562 10.641749092797916 14.774929459391563
Mo 16.73852762866236 11.948817152212776 11.425914621012659
Mo 16.755243430534033 9.7638904632194 12.241442310715975
Mo 13.324535285714225 14.533350038042373 13.927489960715251
Mo 13.169897330740557 9.675835739678073 15.568599963642505
Mo 12.980565856601366 12.034162610013468 14.583485707806837
Mo 14.661048963694348 13.876889929716402 11.449117426565174
Mo 14.311775671209379 11.136139455343464 12.275472705209742
Mo 14.605405853178723 8.926702594133246 13.351844292400669
Mo 11.154587904487839 15.549078753712113 13.836480427160515
Mo 10.745945090257171 13.224082253574442 14.059903519740203
Mo 14.856747497308547 11.71497104514903 9.611336536739808
Mo 11.030836118828711 9.061129863368263 16.597060644230123
Mo 10.727819589303195 11.070722542332184 15.88951283264426
Mo 12.701295826882744 15.630838928086375 11.608073789834558
Mo 14.78752643040894 9.224606817825476 10.335502707875976
Mo 11.946571120208782 8.014949545547438 14.098095631476689
Mo 12.301550088380946 12.827436545400223 11.846749644843225
Mo 11.637560763848457 10.30065152506304 13.058014158870423
Mo 14.260319481354312 9.695154944657576 7.999187546295518
Mo 13.246942397489992 13.742694366419009 9.409754037907524
Mo 12.722305432530003 8.154034503142753 11.564014069601003
Mo 10.48867461594953 17.348231282478746 11.752420375200426
Mo 12.4845900980796 10.7691287957321 10.176463219163505
Mo 12.532995762404335 11.4582842745592 7.7591565240323295
Mo 10.292922873473952 6.8174466234399995 12.253400789820839
Mo 10.72642435400084 12.932830297266689 9.37188534028394
Mo 12.316613293904703 8.62690409823331 8.803351700439961
Mo 10.364714070031026 14.469922413895938 11.56752779840023
Mo 9.671171205689747 8.8110233679802 14.535155340668627
Mo 11.292312690950949 15.57853725192071 9.353907173907636
Mo 11.072150157242204 6.420638784212044 10.404312705831224
Mo 8.881630750927693 16.583076972993766 12.509282972364595
Mo 10.425686708892805 9.019404191348501 10.676002505364945
Mo 9.663141138030538 11.470584212787406 11.389581430257783
Mo 8.994352263645354 11.162952819722051 13.845512907095594
Mo 11.741252633839146 14.030200114481659 6.929303545244711
Mo 8.301645870449192 8.935963088033724 12.105111384394302
Mo 8.797236014988352 15.915169774236151 9.879619852181236
Mo 8.357903005948215 13.601370937194849 13.04816554412292
Mo 10.353707836778408 12.698334580074032 6.519457037359065
Mo 9.13935496471404 14.571195700255384 8.053214143858252
Mo 10.268195009502879 10.367647788349212 8.264475047292118
Mo 8.280739103085516 7.149431657275266 10.021606172178842
Mo 7.985564492490169 13.66378712212329 10.611104579488174
Mo 8.341148998440053 12.123493169473818 8.674284034878477
Mo 9.31722267846315 7.730454767929258 8.50959283357804
Mo 6.8034993037286 10.04743308492276 13.621965634785628
Mo 7.002610440151505 11.447261032814383 11.857441466095889
Mo 8.008130386805755 9.999503307555713 9.780318916740097
