53
Energy = -494.82176926 eV
Mo 11.77747729081339 15.400003389513836 9.490802710471726
Mo 10.450611211185219 13.03019905011627 6.784250415095549
Mo 10.567764582429179 9.921414214881775 13.71963878515689
Mo 8.950714081014786 5.907855297703501 9.386612929500707
Mo 7.386055999242703 12.671350225678188 10.970420331442241
Mo 12.940048022697969 8.816143383432276 14.316137196590203
Mo 12.291666917115037 11.099726986054504 15.500206657211146
Mo 11.069651010439165 6.749294685240968 10.384141546585388
Mo 9.342765734154154 11.760363744514049 15.78691677330942
Mo 8.685393828303061 13.47328792196239 15.213179912131679
Mo 10.798299606567845 12.704945780930128 13.745518108610334
Mo 14.172366926343877 13.16796604647079 10.96350639389492
Mo 8.04097988972048 11.542404126411494 13.256316532435697
Mo 7.130989073256748 7.774430992891132 9.72369949014872
Mo 14.183413583129905 9.65235353150135 8.402472816766815
Mo 12.74657315900934 6.080506488744222 8.32847590802322
Mo 7.924120656815441 15.273843752019049 9.864955798453373
Mo 11.605267846030898 8.773459435310176 8.807773296885566
Mo 12.30247052471615 16.19107120737343 12.298220758489629
Mo 12.180372250586618 13.302148126737404 8.25035787328824
Mo 8.078893583534212 11.139498062100559 6.65085395802672
Mo 10.900063870398403 7.237162516192747 13.038454195989104
Mo 8.409908087938195 6.654244875599325 11.44040446313081
Mo 10.489622891451747 6.845494024270397 7.569076406737659
Mo 12.7701401588927 6.628180631879613 12.513592800467896
Mo 12.336750865721337 11.2140424553165 9.894099919216076
Mo 8.312231743386805 9.133417540198147 13.078244672757798
Mo 9.506886459588483 8.947666305918904 10.708363610483415
Mo 10.1649186586811 11.040909090698248 8.421377101602323
Mo 13.207760844995898 14.0501453975499 13.500443040658357
Mo 15.305092016222497 12.376904160158901 12.555940242366725
Mo 9.965438280415436 11.28131701314846 11.581460635097452
Mo 14.730009802362673 10.468884214333679 10.649495028968063
Mo 13.913352523401809 7.8063893504467625 9.811271578743987
Mo 12.209715400274224 9.185102625860031 11.55906279555936
Mo 12.966181531735376 11.337420333154412 12.84617584692819
Mo 10.860727311214726 9.411809655524554 6.186231514120274
Mo 9.719880265195863 13.270079933395788 9.644135442778296
Mo 14.97123135776586 10.361341098277524 14.595978433890904
Mo 9.606131774286109 16.0123918570719 10.848653727651925
Mo 12.210015233048704 10.718498173153716 6.709722865083492
Mo 11.807661749338775 13.687994012712485 15.596235409978494
Mo 11.60863171073151 13.703765635464187 11.390644779057348
Mo 14.563146372846264 8.89626054463717 12.449532196504718
Mo 7.818047369843556 10.652959135258529 9.49643295758181
Mo 8.748271240074688 8.664765872885074 8.10021020488553
Mo 9.94346704454005 15.143959210267742 8.009855939217106
Mo 6.750501667170584 9.632571870925695 11.368298338231035
Mo 10.786298045947945 15.558835880711209 13.479753048184186
Mo 8.858982486780766 13.994736572525326 12.27543346290935
Mo 7.730554739408392 12.69424705524838 7.696714201105359
Mo 14.201407272088202 12.321217772001315 15.326479208685592
Mo 13.203168118311037 7.738370537219204 6.973254083450248
