50
Energy = -464.64278528 eV
Mo 13.943724960144618 12.02078464270981 15.039223811174253
Mo 10.90209647485213 10.867874654206167 15.895214134236742
Mo 9.076753269561827 10.551486551491294 15.490671917235161
Mo 12.246285531430985 14.296237786248843 13.91094056186621
Mo 13.152535619881066 9.337710939946055 14.474275911168506
Mo 6.6422633634383725 10.433271851028403 13.953304794998855
Mo 9.83134770622189 12.936081414530383 14.184911271069522
Mo 15.228037439767014 10.949990027375872 13.937821673643898
Mo 13.903280903909335 12.609789188760413 12.283720632891836
Mo 6.996051334032659 12.388127508463334 14.005623661404638
Mo 13.102703793009558 15.204331830204678 12.350279683719712
Mo 10.670185582703516 9.071670926293589 13.653516057465234
Mo 10.212753538390967 15.502158342138822 12.315327578407212
Mo 15.012780244329777 7.702419592112507 13.256931617136821
Mo 8.303607902420572 8.245513628729215 13.560072058355969
Mo 11.866684767248492 11.515855092431128 13.487728894878696
Mo 9.728799044623075 6.514055351900874 12.953609729401405
Mo 12.182500778635912 7.482491269757754 12.597543125056337
Mo 9.05914393453075 10.99747962044838 12.737790391196228
Mo 15.641581460612887 11.70977163558985 10.852054870869777
Mo 11.118762052879392 13.249130235726994 11.407506471565537
Mo 16.314325865747847 9.585058159031295 11.611678647391626
Mo 6.4565337563921155 11.673267092126055 11.399886418195294
Mo 13.723236914943923 9.77253308261118 11.95130979219345
Mo 8.496315762546974 13.568841011506612 11.957607505432575
Mo 11.319547108034287 10.640640091333108 11.090497009788587
Mo 14.606244357521328 7.043940849002327 11.506539831430382
Mo 8.334955353205075 6.935078058001953 11.082905424072063
Mo 7.452225391063853 9.141576640828278 11.321477649191918
Mo 8.966745828920283 11.278565391974546 10.178484019303543
Mo 11.287889252000909 15.915439660998628 10.401956458637372
Mo 13.427672510553496 11.333388438870344 9.579302041747374
Mo 6.961566686905648 13.459742154454284 10.08864031698136
Mo 13.085015265859807 13.828871000366497 9.915826171287245
Mo 10.321465556145943 8.351867360006114 10.853508550301918
Mo 9.556328221353542 14.545437758291515 9.529684602458618
Mo 8.312797287083596 9.078294245644631 8.84728943668961
Mo 12.760150849822757 8.46487155193791 9.871552006972538
Mo 10.896036092111606 12.414287902758131 8.714630356262155
Mo 15.23979832175857 10.966355896298124 7.7034760848627055
Mo 15.161286334895047 9.20997931237196 9.590478525743256
Mo 6.688857782554798 10.654094506390232 8.982125385474141
Mo 8.113398147004725 12.726417014735382 7.924629121664477
Mo 11.594448974901026 14.909038699419241 7.71172357741572
Mo 11.16265008195649 9.818452607407172 8.49017303409901
Mo 13.60399301280971 9.855725694455314 7.1753679954707055
Mo 9.154686377278262 10.917050624611022 7.192571170297999
Mo 13.115659522128345 12.774113911673023 7.205832413113474
Mo 10.373206363284508 13.797856942827357 6.50082986059066
Mo 11.648434850452393 11.41461952707262 6.194136545054614
