50
Energy = -465.7035457 eV
Mo 12.789863837604331 11.19199204298914 6.0854158455180505
Mo 14.623801559401217 13.387984512590334 6.375837799499901
Mo 11.997536511617797 13.88139812216842 7.447042089294051
Mo 12.11935460866028 9.450563330860724 7.812692716389713
Mo 10.695496801077962 11.849404847206253 7.414891369012005
Mo 14.687895916300015 10.58832553324105 7.1301358356267395
Mo 9.289644546265302 9.797921023912064 7.841427979847263
Mo 15.928009772218772 12.955411480712787 7.715869327959611
Mo 9.281578234241167 14.296838431973221 8.474020515918928
Mo 13.387102994934882 12.1900458682307 8.636644487314696
Mo 13.932524821345208 14.993666056874051 8.708855535221009
Mo 8.60484161281668 11.501401985330132 9.006250643615044
Mo 11.833131927005905 15.645860990305874 9.588886678660492
Mo 14.031279313636004 9.647480858361526 9.494284082743679
Mo 11.219217337582133 10.3611679274674 9.91158937194005
Mo 15.684639838580615 11.283394398029325 10.161680286968602
Mo 10.624532914109002 7.38337775534975 8.971022403904362
Mo 9.005990662956957 9.361594937626535 10.538616357987015
Mo 10.036355034367798 14.998816362711855 11.463834829717683
Mo 10.996357970522793 13.096388475684954 9.939497566972275
Mo 8.195605486552607 13.969859201266022 10.247457947376889
Mo 15.000345217712084 13.633773506397814 10.3999454848614
Mo 12.367927215770926 7.186921491153997 9.592371170450694
Mo 6.949747016611984 11.11266337315522 11.67090335950613
Mo 13.063777425313736 11.667371170557786 11.270695258737739
Mo 9.190732265406313 12.063306714714274 11.82016619892289
Mo 12.978226303728702 14.71747189358617 11.423276011955698
Mo 14.755427798738376 12.68029882320178 12.919946035581107
Mo 11.646555414828661 13.219026981203063 12.814018144528946
Mo 15.059195799738475 10.335060564227486 12.463681946364725
Mo 7.771708361941649 9.537565410067872 12.734547173777104
Mo 12.95016550765774 8.872665937474196 11.874449555827157
Mo 10.755821448465342 8.035986989113711 11.785303285555155
Mo 13.004999763450247 10.945713849434899 14.05547895189185
Mo 10.685006773747244 10.329149660042209 12.772440577515367
Mo 10.913830101351426 14.991809907042963 14.403250427716488
Mo 8.959628992225133 14.16749131064588 13.560962124392224
Mo 8.392698458979597 11.531629066856173 14.308408391157677
Mo 13.386556017204299 13.484161646900102 15.294609380413474
Mo 15.629159015710275 11.28460616719868 15.227018819635713
Mo 14.812463678113449 9.65266638434579 15.628297623375277
Mo 12.362151871114214 8.634292989978205 14.380995021498876
Mo 9.717591204402572 9.355400424987362 14.870571490458548
Mo 10.75571909141625 12.081534798192996 15.107348706772212
Mo 13.277504531164354 12.019921016439946 16.620687513944425
Mo 9.029642703671485 13.901719095029094 16.21205326950654
Mo 8.870677499020372 11.061380448720062 16.981672714935975
Mo 11.504428609460339 9.864368091654978 16.331030155718217
Mo 11.00871822496189 14.205249747945823 16.844892566669472
Mo 10.444145159189393 11.803211569732829 17.874338139735013
