5
Energy = -38.46646845 eV
Mo 7.351693971658512 9.47847516283603 7.700803285740378
Mo 9.479161727774573 7.340247003546489 7.628173316352352
Mo 6.678428532715061 9.273577142463736 9.429644324373303
Mo 8.713670278695236 6.1348031146756785 6.4246543926090105
Mo 7.120205578080486 7.116057665401799 8.159884769848572
