50
Energy = -465.40905683 eV
Mo 7.397323593470322 15.509791897979058 11.93648853605216
Mo 6.779745478016012 13.478382629020826 11.682698280783324
Mo 10.203419152661633 16.80658337134708 12.00451249004228
Mo 8.206368141040766 13.203166338036604 13.706375743475789
Mo 9.69837412456169 15.67948736432809 13.512282396395596
Mo 8.787480102282661 16.09748732930087 9.47347090351098
Mo 7.57991774409683 14.483161440178785 9.229361060535448
Mo 6.8983296848959945 10.780322145192347 13.314124931265978
Mo 6.6605242212895215 10.745943877740798 10.754765963157844
Mo 9.481787723775463 14.23845775792236 11.213562048395847
Mo 12.036515102629586 14.790131920776199 11.985218821202134
Mo 8.94274356078581 11.64172205327807 11.858378573913699
Mo 10.355379193761102 13.941130597190142 8.444662844097586
Mo 11.03833291460383 13.055304336327348 13.443809029075684
Mo 11.58085767582266 15.335301346984199 9.616427879381318
Mo 9.723343085353969 11.219482368630633 14.506649109078522
Mo 8.775131064589432 11.97989669095946 9.26453147191293
Mo 13.242890643235464 13.161816756043395 8.545646704139696
Mo 8.608592167754884 9.232097936580168 13.342859576068268
Mo 13.504220890683847 12.109707739697157 12.751305021682581
Mo 11.456217479272018 12.647114063762547 10.624278755630751
Mo 14.05640707448239 13.6284397612089 10.44136794457205
Mo 9.426964809648478 11.195932984378032 7.033517431597069
Mo 11.143772351762804 10.476021830946777 12.201295576012331
Mo 7.447469748067883 9.851818017735207 8.622003525326905
Mo 9.130378783320934 9.32935608583754 10.526572127355436
Mo 6.950324885428076 8.45681889100258 11.566377640249875
Mo 10.816312070027092 7.697903753972719 12.25504865216859
Mo 12.651634605841403 11.020398968121723 14.745216331668557
Mo 11.7007183883221 10.055940027580622 6.060682778741214
Mo 11.263112554292075 10.904229296368081 8.666528005672165
Mo 13.398358955422378 10.85282014967795 10.353618546715431
Mo 11.2989816192323 9.11534656475204 14.534473237340077
Mo 15.754012642226023 11.433556850199611 9.172233284483971
Mo 15.961867146691674 11.670469012499195 11.127932857065057
Mo 11.89387289485391 8.581641868542082 9.988845492631919
Mo 13.316755446748331 9.196623691657395 12.51733944566565
Mo 9.694622022145387 8.873241040988441 7.775971005939797
Mo 8.735863496339475 6.768687710484992 12.01720685300837
Mo 7.962836839437496 7.1936588746800805 9.267783164548838
Mo 13.635811403736161 10.753549578995816 7.497829358834242
Mo 15.31537163101082 10.294621409107744 13.759560712836093
Mo 14.250482153801752 9.103350882453936 15.1256658268093
Mo 12.093758847064297 8.30381266365042 7.263279803042977
Mo 13.428007889965734 6.716332076285034 13.499773191356956
Mo 9.90547283620807 6.755912366451138 9.613502032834402
Mo 14.256385335544612 8.786390905665483 8.842137164595202
Mo 15.458732890024926 9.111016339557008 10.991878537679648
Mo 13.693652096183701 7.212223221362286 10.902536882054942
Mo 15.28118734932061 7.336637900143583 13.265140852451562
