52
Energy = -484.91018228 eV
Mo 15.427742482047561 7.867331661668778 13.00594193977747
Mo 14.344041413815608 7.288301361280077 10.52410850128516
Mo 15.83494132168736 8.55724949053384 10.095606202333917
Mo 13.492571011208788 8.754769514980422 8.467838276330786
Mo 16.59828381267017 9.460122302846809 12.852349177720995
Mo 12.4517726144463 7.569129558831239 12.72420910831406
Mo 11.690990218368082 8.435809192967396 10.412047888962027
Mo 10.327566380977194 7.580027876377034 14.093808145034263
Mo 14.02490766613818 9.557240228219227 14.26549650304356
Mo 14.05141118433239 9.939099375381344 11.622847606486706
Mo 11.053501812785143 9.662178401563098 15.56694423230548
Mo 14.621177433096204 10.790305791576127 8.833066042478565
Mo 16.132623508752896 11.46745415938082 11.251251016589556
Mo 10.88896413529795 9.253135077439698 7.9421398953047735
Mo 9.618205066840266 7.825705219690794 12.015713095337208
Mo 12.166807964244876 10.859701537979669 9.993724471662901
Mo 12.480689321985144 11.009014788738911 7.1466905315766684
Mo 9.080908067228105 10.840745553977671 16.196030285460733
Mo 14.87349708853055 11.886132507147579 13.356900383164724
Mo 11.645972742488375 9.818353797518846 12.935995543752192
Mo 9.698267609060917 10.543317696153693 11.228292995533684
Mo 12.6864486523041 11.399120758292804 15.05223144879093
Mo 8.813774991841644 9.002872742214276 9.486382795761445
Mo 7.246009314188664 8.000409541079785 13.159427490579537
Mo 12.491444435489557 12.312159816795521 12.3517876195616
Mo 14.38313054848541 12.753424730142688 10.354557240287924
Mo 8.892097231885836 9.954536824635621 13.812822211751374
Mo 12.798607237647829 13.980406032930816 14.532518775047212
Mo 13.933574457945733 13.029563413805386 7.29397945811134
Mo 9.986294260413613 11.581888646983131 8.573559176237461
Mo 14.243785358348356 14.247114187493402 12.539008369201653
Mo 10.451804702257956 11.689574757967256 5.992057599213639
Mo 10.251195143335938 12.2977053126724 13.821225623150882
Mo 10.77590059495593 12.761298148910797 16.35648147003984
Mo 8.296931182855946 10.005416870862907 6.9354270078133995
Mo 6.5881424731132014 10.789235762429435 14.168128737470425
Mo 7.0451367301189345 9.298056849730296 11.68631321255111
Mo 12.18421368789719 13.319349092843476 8.803354401759519
Mo 10.35704114629928 13.128981107303705 11.037820109499654
Mo 12.384873706279725 14.979461576680979 10.87950097852013
Mo 11.867054704264863 13.51935538316949 5.92172749658826
Mo 7.774913864855811 12.467133131002823 14.940731754162941
Mo 7.491735942943186 11.128325021257298 9.434737942608605
Mo 11.269060170563908 14.958718096277256 12.997398575517607
Mo 10.269610343590612 14.561336445413149 15.334868716212048
Mo 7.7754175397658365 12.05489305405912 12.106859476294483
Mo 7.697719247989832 11.90730250144643 6.966957591237424
Mo 8.396092687144275 13.471294919902647 9.716429425990048
Mo 11.53099221105111 15.705662255590553 8.207551099625555
Mo 8.693214797772521 14.106736559482709 12.74369824464559
Mo 10.105347292964673 15.618561698761564 9.842180267078051
Mo 9.946942420828027 14.013803152923641 7.4455320086766745
