53
Energy = -495.34695924 eV
Mo 10.668222636465 7.751103371446844 5.259074700791467
Mo 8.876308914698562 10.079045087623523 5.029041607792012
Mo 10.183107832093366 12.155617780017643 6.061875181579111
Mo 8.021801257013907 8.327761650358346 5.926374202984181
Mo 12.259242406628543 9.894166496100214 5.530934641719311
Mo 12.104452157516683 7.051127943503795 6.9534735199675115
Mo 7.87365598550802 12.942762258304416 6.258607985307217
Mo 10.40535537462435 13.878173029913905 7.618798720569611
Mo 6.141199536844415 10.54582458064693 5.650311213768139
Mo 12.381955466514938 11.736985487773785 7.301287059540447
Mo 10.506832080783601 9.376127592240511 7.242531668888568
Mo 5.716746654348623 9.380912969926474 7.12145866225114
Mo 14.323923381836238 11.644533011574454 9.083341600527728
Mo 7.240056571528475 6.037369619746819 7.806589994625575
Mo 13.371065232996454 9.09986783151922 7.4260639445692025
Mo 9.596429957848171 6.307147094116637 7.200732667602184
Mo 10.794348587545333 4.920289217964545 8.996495727836948
Mo 8.10695808117135 10.755168693467764 7.555937801690906
Mo 10.094746385789287 11.901236035546534 8.842786279892776
Mo 12.183149782657905 10.083125400221212 9.448363540948824
Mo 8.048089604926641 8.072455176171065 8.614417589952312
Mo 10.751965264982946 7.675572380734842 9.296816194002336
Mo 7.8710227257642815 13.447730914738875 8.623173436237979
Mo 12.722628826710329 12.93890186285802 9.752598961987538
Mo 5.8978029276244 12.120104594258198 8.154878425888812
Mo 9.255308725573729 9.730513825064639 10.12380522205867
Mo 6.446080273341516 9.903808519596112 9.824601554880173
Mo 6.2447463581071165 7.271227880443848 10.594263698503825
Mo 8.912357803694032 7.543992713581299 11.488076634354002
Mo 9.98396937890612 14.166989767913062 10.643373902584473
Mo 13.36703653814813 7.385052946791934 9.895215543895722
Mo 8.676922888749775 5.507231894058918 9.760655736590307
Mo 5.876179047558681 12.197141427892259 10.517081506226775
Mo 8.206603526984713 11.93599080713007 11.069078471778177
Mo 12.258002658318874 13.574646900204003 12.706393862265275
Mo 11.67346898500313 8.843791592123813 11.759543229539748
Mo 14.34468176516242 8.972198795234446 10.615154983075193
Mo 10.9660369291004 11.53657194932098 11.347986872410473
Mo 8.071408104004739 14.40537482768398 11.479384635334565
Mo 13.537843383663098 11.341834337004164 11.644662592332017
Mo 11.148598788106453 6.097529238599136 11.134233005589703
Mo 9.581296657602989 9.99937083973292 12.985095169731363
Mo 6.9669215593067655 9.617900657701579 12.159689764343637
Mo 6.5751088399599595 7.148783384205511 12.598280331729582
Mo 9.564400456169757 13.08059392760191 13.144442745272785
Mo 7.668776692663821 11.682358180817438 14.116300034331646
Mo 13.322299757640206 7.269077318366346 13.090460256169237
Mo 13.916045658092912 9.1129672360332 13.44922716938877
Mo 10.42501265155759 7.274919933392054 13.64687779142985
Mo 11.962290191600676 11.825397952731851 13.756625653525898
Mo 9.275124773847823 11.239090466099512 15.209712720506765
Mo 8.366697798508428 8.318324215087694 14.231810356522924
Mo 11.514049061827684 9.142545272436474 14.5003381123298
