50
Energy = -466.10496157 eV
Mo 15.781553454880145 9.72367796969692 12.678098741583065
Mo 16.222015579786564 12.374098155733208 12.2832166613188
Mo 14.82802576016897 10.680948418384096 14.27240893277777
Mo 15.934521401635367 10.360388146560279 9.839053954450566
Mo 13.650605599371586 8.512320809767157 11.10242409547535
Mo 13.195457029157481 9.008131415332155 13.489944473778927
Mo 11.97704349820675 10.191185102514686 15.573923598145878
Mo 13.944812798049238 11.345599305560208 11.588694615599854
Mo 11.275038082631388 7.3240505015779975 14.937169155000463
Mo 11.56057044799463 13.169934570205632 15.689715891335561
Mo 11.501114362717958 7.696315448410756 11.781249760636841
Mo 14.722011213722341 13.317850488905943 13.479818590473952
Mo 13.455252928303269 10.106645824882072 8.984104040522757
Mo 15.459720351942968 12.286517939392832 9.561282238041178
Mo 11.32245769404638 8.369643701040266 9.317356043423496
Mo 12.300140654541764 11.8948876270593 13.728523019722113
Mo 10.563299114695436 9.634343451494232 13.623070939856701
Mo 9.886095125158226 8.254452838090014 15.808699533360489
Mo 9.943728854540293 11.705322683845015 15.511458357427406
Mo 11.639900617051175 10.441580027018116 11.256793997398288
Mo 13.952175380815238 14.142751249846023 11.31760974256887
Mo 8.852158373058465 7.401416110543403 13.035940000414364
Mo 13.155367396599056 11.34300970483677 7.051195913923216
Mo 12.375767496258923 15.21078724453246 12.830819467603135
Mo 10.311102348435544 13.90506737348147 13.620210341656069
Mo 9.216056081443696 11.692816029610496 13.004384349367543
Mo 9.307483604962213 9.442343419087175 11.154721172753517
Mo 7.852476627939049 9.00581769887787 13.458625364088435
Mo 12.808963275800231 12.811662175807415 9.189389007772307
Mo 9.05007495356179 7.193442046725402 9.886937090247498
Mo 10.610214774008263 15.802150566915717 11.484804849979467
Mo 9.630653158913542 7.129902753432599 7.145387868768328
Mo 11.411076591397613 9.500253049051018 7.04851094065205
Mo 11.242890758951996 13.056509437542893 11.385440467742459
Mo 12.058110656700638 15.24789909403578 9.841257753921226
Mo 8.933200303889361 11.792945603921936 10.342957463999415
Mo 10.838505370718917 11.296971768212286 8.742709206577297
Mo 7.119197852803092 8.446535275681956 10.43311578065333
Mo 8.11602220061045 14.109920890289892 11.656953393943013
Mo 8.866097792044085 9.547412205997547 8.449271913946381
Mo 6.973937929390819 11.096736775319211 11.527859317671874
Mo 6.706935358772938 8.141831654258466 7.741193864390908
Mo 11.151489716295297 13.474475663308638 7.202841176650211
Mo 9.943978450124145 14.05476497814361 9.021762977110956
Mo 9.069303525688333 8.404647804205094 5.887646494940563
Mo 9.718243376462981 11.369701581178322 6.2912314882750975
Mo 6.573668755799221 10.690538655921868 9.140551070886715
Mo 8.325417005331358 12.27391982110826 7.727084651104366
Mo 7.121604835981033 13.79801548243425 10.11814930379106
Mo 6.821134717705653 9.89506983726241 6.713645654496483
