53
Energy = -495.54582893 eV
Mo 10.772041669512868 8.145367432434975 7.5004665632636
Mo 12.515111766440654 9.592925611756279 8.107374066651728
Mo 14.63275667648907 11.151323144012743 8.38688042772256
Mo 12.438395835278195 12.41023435559586 8.100965095020443
Mo 14.194111036150856 9.719965367489312 10.302639205094279
Mo 13.012656978750208 7.226171211753402 9.661405409847477
Mo 10.248489886517719 10.92007573105696 8.140595299943095
Mo 9.757643527970242 13.502489769091747 7.455645731859364
Mo 8.271079307328385 9.338163073021933 8.16731146885774
Mo 16.20131329756991 13.0615658677189 9.385795671941235
Mo 14.207610949318127 6.950694779703503 11.060689869657125
Mo 7.533533946208999 11.420595053234074 7.723198909229898
Mo 14.18184714964168 14.24885498603991 8.7035551783264
Mo 10.388924442307669 8.402206635842159 9.703910100257392
Mo 15.784068853280296 11.411867169305939 11.307135655032978
Mo 11.628572607159468 10.570232578238183 10.431772105884646
Mo 6.121435005516807 10.696718506882467 9.724526836028282
Mo 11.375283074553924 14.708598170873325 7.730936639609723
Mo 10.651719258806109 13.168163328928603 10.109206017893554
Mo 15.169635009572028 9.047888089545593 12.853882462826013
Mo 12.35855001339011 8.539859744832917 12.184435267138536
Mo 16.81494867484062 13.782234646346568 11.68203165509126
Mo 7.649888911731994 8.559450077851062 10.616077309198308
Mo 7.796121202465055 13.187411179696502 9.554183372957088
Mo 8.796611353703849 11.052249120533185 10.329048603181699
Mo 13.590588162697065 12.673219917160923 10.5018220757346
Mo 9.42742369695993 15.29968070806025 9.69724175438058
Mo 9.843162194097305 8.861128534772261 12.158908839382946
Mo 13.275162043938872 11.05179377434744 12.782519437400476
Mo 6.323927667046767 12.225200322665389 11.335027623318485
Mo 7.6816530662724425 7.554616076391292 13.251718546967675
Mo 12.327301694562685 15.262680465763053 10.361407244588461
Mo 16.135874322455052 10.92651608694211 13.65889211212062
Mo 12.817089190159171 7.1282310662345 14.162167118498518
Mo 7.381656289077011 10.218481278214695 12.322080261867463
Mo 10.112889762446454 11.351168735703821 12.827795462319582
Mo 8.770606704809865 13.5375931740173 12.056099826417146
Mo 13.768426573083389 9.559914959958988 14.795754142709738
Mo 15.131919438745024 15.137442087531014 10.924793290275595
Mo 10.72700544553707 7.111016414326597 14.032286544014402
Mo 7.891820686066805 11.87968594669385 14.386674449359655
Mo 11.271966996318383 9.468159280121336 14.592944612857801
Mo 14.565050910006827 13.391752304161674 12.975651226276874
Mo 11.785270890761176 13.524267480413334 12.56846843342995
Mo 8.372197457533275 8.871516509642882 14.496033191656352
Mo 14.41593830473047 12.044071534232367 15.249815326026217
Mo 10.120670800721316 15.5735537202177 11.901103141398298
Mo 9.396908353390911 11.437863839484006 15.572535802980978
Mo 9.986540373601217 13.878923454970542 14.396119164494701
Mo 13.264347227774621 15.83735738644655 12.44903914773216
Mo 12.057031652769771 12.020777005621266 14.948919226937667
Mo 12.867704254326595 14.40833717848211 14.91970868274096
Mo 11.341383303701212 15.859887957109573 14.258498058672986
