55
Energy = -513.75122646 eV
Mo 15.258088302922493 15.516399207906213 14.82000445268382
Mo 10.439779739356975 11.245928039266726 14.028250550126254
Mo 14.670469043414299 11.369419046816262 17.037705758866228
Mo 10.75680672164158 14.960103468600936 16.241566785497113
Mo 15.15404658598079 13.96481220684962 12.493756869012918
Mo 15.162564268688435 14.015309058740893 17.417600208188176
Mo 14.89349567757063 18.25214004224667 14.634105565523004
Mo 15.272475501485014 16.995438094726435 12.484204515148571
Mo 16.814592745390332 17.57168769302909 16.1311806595369
Mo 15.30672764900149 12.535302755874152 14.892081923228654
Mo 15.20723183174099 10.89742034034043 12.723804823755687
Mo 12.684182541279535 15.439390678677992 18.09053754201037
Mo 10.418865946902015 12.69899473402604 16.391838780642
Mo 17.441770326052332 15.421023818065045 11.932129458492932
Mo 10.984796369362432 13.492616044040648 18.934009613557865
Mo 14.957391061948442 9.759622694845095 14.835110231983482
Mo 17.394473802228497 12.551543014713324 11.93189671123871
Mo 17.461138992215524 12.702906373602351 16.512671990790864
Mo 13.02254370375237 13.972957006094259 15.599635052559004
Mo 10.559148278697997 15.187036534871785 11.53525384044884
Mo 17.017436825958708 10.359350504659256 16.162078666442984
Mo 12.737185533955643 16.71843137951871 15.368458892155285
Mo 10.51800293246448 12.61486743883854 11.582503641524124
Mo 14.635226342121749 16.624781769079707 17.146817304542562
Mo 12.55195801098337 11.472052543991289 15.434205702087205
Mo 12.670070130705573 13.95589271106848 10.408204742871423
Mo 17.43167992272325 15.229132487952203 16.468042180632025
Mo 17.57063757720735 13.974483196887524 14.097783288651181
Mo 17.103531505226776 13.964120701830083 10.166967272397558
Mo 10.568045263909848 13.774907480214532 8.859931584135298
Mo 17.392878583627787 16.808445455120175 13.966198628100075
Mo 13.065092734123992 16.932447377822935 10.735058447291447
Mo 11.178616781059503 16.410924792763094 9.19161310343972
Mo 17.454322834766387 11.171944113130968 14.03792350442699
Mo 10.86721914115723 17.55820474093814 12.036118738047575
Mo 10.796507084896655 11.754700829051018 9.313252148553781
Mo 12.896776022829542 15.479139278894912 12.90411832187664
Mo 12.950031771153986 11.040454765782044 10.768182289063343
Mo 12.799390032120805 15.516760546158105 8.246692954292323
Mo 12.9614181964605 18.243186886757083 13.374799358569014
Mo 10.840706089115677 10.177684237342433 12.131964217404418
Mo 13.167868511819194 12.495229751215582 8.13642780974454
Mo 12.890794656298253 12.501794174449227 12.871125314423569
Mo 14.958579060363007 15.506238209766757 10.315049759834928
Mo 14.79424583294137 13.60636761598552 8.274254190371819
Mo 12.906076369101285 9.82373415641268 13.467607806766848
Mo 14.934980078696835 12.303990825125865 10.449964813572297
Mo 17.17341965448763 14.165339635059405 19.177749091020075
Mo 10.769683229583737 13.964481063362214 13.897031372489566
Mo 12.580207741854926 12.688511326897187 18.224812428887105
Mo 16.66692532618077 16.093964684065746 18.842122088856687
Mo 10.535471578808925 16.658012898007545 14.014273534233133
Mo 14.333014987333609 14.983232330380376 19.61143292641295
Mo 16.470174914500916 11.530336161680722 18.834022200505903
Mo 14.948310424615451 12.343877849243906 19.81294111587295
