52
Energy = -485.1122379 eV
Mo 16.92005124257065 9.938934227320903 15.670262040295297
Mo 17.61988062165399 11.99498896848008 13.567911941144876
Mo 17.560916440993275 10.020793890016348 13.075210699360333
Mo 15.972097668794243 12.049622811771457 16.160139028442934
Mo 16.23101241374145 13.448247760889709 11.744183863012372
Mo 16.031355453925478 10.950042022249296 11.343478989290686
Mo 14.9779599905536 9.315440749170486 16.07664913454377
Mo 15.295427240252986 12.931354023499086 9.408179222407407
Mo 15.232017069150979 8.364046501139338 13.291832671176113
Mo 15.478938771480014 13.930560862030704 14.161912043439726
Mo 15.02432906879278 15.606051621181214 9.973131152497405
Mo 14.691827665305377 14.321395963754712 7.318600456372686
Mo 13.732274384033541 9.987075297086973 11.634905972033497
Mo 14.954019307879587 11.231574955060387 13.935918956678625
Mo 14.422464571101056 14.161501912764901 16.453295002629797
Mo 12.783891955769242 9.144939842254564 14.455837966412826
Mo 13.604171196742 11.045278202148863 9.414472703992573
Mo 13.868882190043747 12.689047855055561 11.875186732547833
Mo 13.94830389694391 15.28300940810178 12.450301821339515
Mo 12.075587592012939 13.275648238659175 17.38558449043401
Mo 13.631295238750159 12.653084112938132 7.158814049013103
Mo 13.581817424547078 16.431288545952302 8.679291277743813
Mo 13.46459622614615 11.406386091817225 16.09048256979907
Mo 12.866395777070737 13.851541551076235 9.731005030410548
Mo 13.884443813028367 16.142571820346333 15.228359129021442
Mo 13.759295020242728 7.434315257774274 12.508443212474265
Mo 11.35112188601156 14.110894561044216 12.1664273886541
Mo 11.78274927671165 14.850189664350491 7.141230374585336
Mo 12.881834594196887 13.600692096341648 14.53177790144028
Mo 11.56961468879752 15.085251856120248 16.45093762768513
Mo 11.925706301349942 11.299830563093286 13.608128297763873
Mo 11.251390014341725 9.947634593775751 16.18891094665181
Mo 12.09437316136516 16.360872983174662 13.800580559846944
Mo 11.18609078784484 12.403216046476349 8.415521604786464
Mo 11.4680346456988 9.676742302594155 9.608308676085025
Mo 12.353326235962404 16.33989561324909 10.826174951895077
Mo 11.340255605764774 11.66121629795002 11.012691541416327
Mo 9.254792997686108 12.321450890112839 13.050856744670966
Mo 10.580468655826646 12.359782666243515 15.564718781685839
Mo 11.292579240192927 8.985167954380806 12.061437145777333
Mo 10.012212825767968 15.990807211039478 11.485431809223723
Mo 9.358108065750315 10.933656231177633 9.047478662012635
Mo 10.711781787403819 15.299177677688593 8.6456024103226
Mo 10.170678037693326 14.661963594306785 14.203817739931802
Mo 9.88663502332203 9.71215638265977 14.254800890159672
Mo 8.256066061852563 14.472807529614945 12.250767192839406
Mo 9.203348196115087 10.141698589261225 11.500235664990907
Mo 9.416768192819475 13.323027192616278 10.334614989360729
Mo 7.23957943211499 10.216053213065782 13.380286371951614
Mo 8.05658495794061 11.11904912850722 15.094108937295694
Mo 7.228712023217544 11.983194020964634 11.095815924421586
Mo 6.472904911971896 12.646760662057526 12.909532445909715
