52
Energy = -483.48641045 eV
Mo 15.618859885883861 12.86719448331244 10.844955872669228
Mo 15.26300825160212 10.619231873009221 12.419613295097035
Mo 15.125044985307797 10.582770613978257 9.386529106482376
Mo 15.483437995694798 15.140594588305895 9.015610468321276
Mo 13.784747018392427 12.868248609693318 12.788770488368819
Mo 15.470160146589807 13.4784068562631 8.044283888014405
Mo 14.883161744248989 8.861841919169942 10.522049922979553
Mo 14.314924390261048 7.537232538946806 12.78609252854564
Mo 14.948347793173877 9.50473406245713 15.13010020995232
Mo 15.175248637137834 14.828399366652262 11.797665640832463
Mo 14.245847967085975 11.417216578298042 15.10496619965089
Mo 13.629599114982017 14.957168551246793 14.487274312114423
Mo 13.310562220463495 13.833260282223 9.877157426052714
Mo 13.701538147141042 5.932493757094375 14.454749678835382
Mo 12.285151651545817 7.821087831670107 11.2489426555263
Mo 12.78157312866839 14.99390460590111 7.79421964999706
Mo 13.030536434125853 11.215541312070597 10.88135914344093
Mo 13.092893084263821 12.096628515472533 8.058129426196095
Mo 11.89305300697186 10.403244721267232 15.657510763592649
Mo 12.573690973436777 9.505905751578219 9.013991993430945
Mo 11.163610977027014 15.549061181474373 9.541474436991189
Mo 12.78641818248199 7.87646072033138 15.166931613288003
Mo 12.605731260870732 15.622796662910554 11.70481388432875
Mo 13.090328268297524 9.601071297299121 13.112890466525776
Mo 11.307069408285676 13.550452930772718 11.672484827933216
Mo 11.819130527034963 6.147326846514475 13.124906087378761
Mo 10.536346897095166 9.859789821335772 11.548098270397407
Mo 12.432839522383196 13.682627005657574 15.195429208280412
Mo 11.108272667594562 15.76814380645126 13.538917086325702
Mo 9.490154666362018 15.694927112048658 11.716275800001641
Mo 11.510155970851583 11.556474281283036 13.555861367408953
Mo 10.693783442200065 8.367840785009637 13.692402013040201
Mo 11.258415664895411 10.530044959939318 7.0238114458543235
Mo 10.63224504313012 11.469030949545566 9.472159947601838
Mo 10.128672919930452 12.0798688053298 16.099858175025627
Mo 9.139160411226536 10.767137261858837 14.577620495285549
Mo 10.963948172412403 13.339279365861593 7.730292275972904
Mo 10.306000709430682 8.573946886806885 9.227511291186008
Mo 8.191623626736234 9.20190653638161 12.61050012440478
Mo 8.997660809309771 11.931706358796154 12.035471726573142
Mo 9.289897199807108 13.724264107467006 10.059910288454459
Mo 9.832468781517873 13.625477257467702 13.861825324534705
Mo 9.721379244836047 7.066062444379572 11.667237590378576
Mo 7.591498569588107 14.171729976953658 12.456088263216758
Mo 9.20227924657477 12.14659802389848 6.175976612320197
Mo 7.430910116658639 12.510490150086182 14.392801488861505
Mo 8.149589559140525 12.618129577086082 7.779513919635061
Mo 9.082738259176038 9.884625251558095 7.591711311841984
Mo 8.115858306504558 10.834230500423454 9.845540611538567
Mo 8.120237882551582 8.239129437040459 10.489417854455898
Mo 6.739038033390674 12.902449211771792 10.451817190331516
Mo 6.616084469179936 11.42794283860763 12.398881758422998
