6
Energy = -47.48409527 eV
Mo 8.612345080141946 6.463150584047033 6.699740551704733
Mo 8.638446438443527 8.25143508918244 6.824835100442743
Mo 9.156370702420956 11.041040591928095 9.045160736390564
Mo 7.076570749485468 7.3539259456829935 9.057216936806915
Mo 7.998672843032331 9.923045897535154 9.668556730770769
Mo 9.005895838345074 7.45570354349318 9.19279159575303
