6
Energy = -47.73879935 eV
Mo 11.582669676363263 8.067081239629584 14.236612517973331
Mo 11.916444993165028 8.820927968110762 12.750973493274335
Mo 12.099526639831714 11.031378489169134 10.735792752875014
Mo 10.666118815770265 11.518804658536618 11.631440165696796
Mo 11.538095533751573 13.8091798343056 9.705234137278154
Mo 10.808953841505774 15.345942360711959 9.647279131988258
