6
Energy = -48.18337067 eV
Mo 6.265641549805166 7.68586275960116 9.039210812358833
Mo 10.522237328578667 9.097250983894785 8.13428658226751
Mo 7.494440895247226 8.743830791362809 8.524608833885026
Mo 10.578578704302538 10.749034527294976 10.558603019828931
Mo 8.884683779651443 10.899921725753341 10.194509317520245
Mo 11.783407674649613 8.348607689500506 9.071848857329623
