6
Energy = -48.01736951 eV
Mo 12.087365404761199 7.795847795319381 9.978825385627454
Mo 10.55246900424807 9.935145634130434 11.416532565287762
Mo 10.399060481977392 12.913286088810462 10.623213062786878
Mo 10.413267813464905 7.34875509349574 9.780135397533384
Mo 8.861177863487638 13.241782602840605 9.878173389470634
Mo 9.465588046944172 10.198699190473677 10.047564587672078
