6
Energy = -48.12060519 eV
Mo 9.888339414585323 9.101133254260933 10.858871213666603
Mo 10.439915793246465 10.242398608364773 9.63895928857177
Mo 8.015511642512372 9.17635596702142 8.499788853223327
Mo 6.180929746245395 7.356349910592372 6.953526286697357
Mo 7.637727112693297 7.295627473115372 5.949002766272946
Mo 8.475350400329477 7.458084994533595 8.751149652873755
