6
Energy = -48.73481853 eV
Mo 6.602839804756115 8.438666854683689 9.497401885858375
Mo 10.928397645227403 9.12636149800118 7.683739521775841
Mo 7.219416492217121 6.451197047973259 7.396082354604093
Mo 8.749218670390347 7.203756925382949 7.2064274598581495
Mo 7.388635307702777 9.763755690554829 10.249357195816915
Mo 10.053936943198506 9.958706983403847 8.909436582086622
