6
Energy = -48.24903759 eV
Mo 11.578395775082157 7.264958633562745 9.197780626627054
Mo 9.791437877326286 9.70189078210406 9.629526185236505
Mo 9.405710114659394 12.282491346566527 8.076693410080258
Mo 8.5702363370574 12.2859130720486 9.614201350132754
Mo 8.733038972606106 9.57051597706608 11.06931575081364
Mo 10.44120464852842 7.077447230815584 10.512157034936514
