6
Energy = -47.71905767 eV
Mo 11.411485332968795 9.191054488342317 10.575530641218597
Mo 14.042824245581766 14.455517020832849 10.927733787935638
Mo 13.028282622682346 13.102691031907927 10.895200393429121
Mo 8.701399781076171 8.65121436071083 11.767186815001034
Mo 11.058528038808515 10.72219045887442 11.319098857720236
Mo 8.118160007761146 9.97776345900307 10.80010180604409
