6
Energy = -47.54108898 eV
Mo 6.923515651336463 9.224567005671727 7.256777657344332
Mo 8.364341030070856 7.429303925121505 6.234522694722132
Mo 7.279589416604694 9.221891774801225 9.29565411804957
Mo 7.480509596566936 6.712169385481083 8.53918378465517
Mo 8.944231274429635 7.391552251056489 9.757230612961942
Mo 9.449540362120207 8.550849014615721 7.515151027615058
