6
Energy = -48.14327083 eV
Mo 9.187762019043825 8.948482774195512 7.732329026896934
Mo 6.693296725509735 8.079272704282072 6.28657711252118
Mo 9.744056159344378 9.560304416885092 10.554967184025752
Mo 5.902123007738867 8.472748102481763 7.8044647517195544
Mo 11.019793005740048 8.446140827111337 10.01016391035528
Mo 8.521046229300982 7.572452667054004 8.687022074490319
