7
Energy = -53.17746261 eV
Mo 9.841334265765145 8.078088203517716 10.910583313132593
Mo 8.6945013 9.965948980526685 10.970816026315942
Mo 7.5476683342348565 8.078088203517716 10.910583313132593
Mo 7.5476683342348565 9.310914396482287 6.478419286867409
Mo 8.6945013 8.6945013 8.6945013
Mo 9.841334265765145 9.310914396482287 6.478419286867409
Mo 8.6945013 7.423053619473317 6.418186573684061
