7
Energy = -56.80216481 eV
Mo 8.589223255981022 9.637149530804862 6.995460784587988
Mo 6.689509686163388 9.435827709046219 6.978852679831511
Mo 9.58258997479291 8.652556237692142 9.3802087508121
Mo 7.261669671516139 8.722600707079694 9.455978612967284
Mo 9.770912487814114 7.227184131823018 7.661520719015019
Mo 7.483421522214882 6.929488586266346 7.280101729980342
Mo 7.8126918226676745 6.555069081222514 9.441516100121758
