7
Energy = -55.81966906 eV
Mo 9.188671119706306 9.890380037626763 9.409802096182336
Mo 9.481699575537684 8.188986758098546 10.405358452784549
Mo 7.053633453151385 10.012399015449635 7.375409899890783
Mo 7.734406088465172 7.179672942646992 8.335915057098045
Mo 8.461658225389186 9.396124750855597 6.472798349406219
Mo 6.6090169985838525 5.981977405167417 8.803781945174297
Mo 10.436584040485759 8.359225903567246 8.246284913773422
