7
Energy = -56.92802903 eV
Mo 9.615101014451007 11.204039367679982 9.713689868718342
Mo 10.890463348162491 10.03588714909539 10.18956660314529
Mo 8.63643952106447 8.678965688785809 9.84300943866796
Mo 7.22551931166222 10.336040409490984 8.215462353965645
Mo 10.648379590232256 7.33761598292718 9.081841622694718
Mo 6.895364606457667 8.628102180788607 7.803879690688919
Mo 9.122375150737831 6.793795635329807 8.194013451900801
