7
Energy = -56.94415642 eV
Mo 10.406717990475903 9.669520637646755 8.00038533479595
Mo 7.846796042353212 9.874987928605217 6.635265608015911
Mo 10.640072541824425 8.251626470304556 9.067128736608202
Mo 8.02821927672786 9.012937600427216 9.02639690178187
Mo 6.468934125035956 8.716047710780053 7.041058157575232
Mo 8.436415606208366 6.42498405146718 9.753415086510792
Mo 6.793075040369673 6.654131215893646 9.077181794727634
