7
Energy = -53.32849696 eV
Mo 6.6962999577737135 9.608019937479877 10.084013002996384
Mo 8.59866351262134 9.251580713862957 9.749539961323157
Mo 11.034655301335512 8.907929455187139 8.479002888709681
Mo 10.680372390534897 7.520715644971376 9.535535928140968
Mo 6.443182167740586 8.829121563316425 8.105357613713851
Mo 8.865681736484483 7.655082972446161 7.389341013014581
Mo 7.3075875218115085 7.848388243240315 6.27323378612006
