7
Energy = -56.56202202 eV
Mo 11.956791847819915 10.966658756738656 11.408973936475654
Mo 12.706748504472449 10.74656626156268 9.4759376470081
Mo 10.54844356016373 9.252074786293637 10.644834564015905
Mo 10.539804425451605 11.700903913475052 9.29227962161687
Mo 10.395228069797948 9.798615166688279 8.38098698943464
Mo 8.428965256114958 10.57179095624076 11.161540656585561
Mo 8.046977039098213 9.068034526950386 12.013118064763134
