8
Energy = -65.8010927 eV
Mo 7.353888412371385 7.883956393470438 10.390225820024826
Mo 9.432745334713754 9.030678875562112 7.137021689881404
Mo 8.773670676616847 10.819295631150496 8.549679459117248
Mo 8.360574940421271 6.812757973599691 8.527538029344012
Mo 7.4092498093869406 7.894952597473285 6.642638673812263
Mo 6.970004131183109 9.281765847266694 8.5157159758566
Mo 9.387951421404097 9.024876036123883 9.969754281826175
Mo 10.614147273902853 7.553948645353278 8.56965807013772
