8
Energy = -65.93791346 eV
Mo 7.415383362247141 10.274235658201865 10.62836540448214
Mo 10.740826356425341 8.498918356770867 9.263072551077105
Mo 7.868314373791674 8.96868300027237 9.599364879067378
Mo 10.99264072384861 11.812647136225959 11.569148169880425
Mo 12.984976070731449 10.41576535526163 9.903542341841941
Mo 9.331060324460664 12.207055128826783 11.78945629291391
Mo 10.470745288112106 8.96235571513094 10.974831498584088
Mo 12.152527796110963 10.96017163794934 8.43960199258419
