8
Energy = -66.07046264 eV
Mo 12.159329843976762 8.444447365717814 11.655454038244326
Mo 10.85726495398763 10.905565532081898 7.160015650915587
Mo 10.25306904439719 8.778351477391055 9.28348616570873
Mo 10.507892795447333 8.464935175053 12.282040397034386
Mo 8.016718482295087 9.819542172262942 10.966885539566213
Mo 10.68145452154325 10.41535805272651 10.058813235491883
Mo 9.189749719851497 11.128513220292815 7.695619364833924
Mo 7.789847277843667 11.446907940266106 10.348149412586011
