8
Energy = -66.24386353 eV
Mo 10.26727115719897 7.698752856060746 6.846108506458383
Mo 10.837771754796997 8.845816841352484 8.213178156567661
Mo 7.284550588437857 6.848706451494304 6.6723718178443985
Mo 8.581398260718942 7.495041560343661 9.003444027429026
Mo 8.793922538273742 9.901150717301379 10.3095496452293
Mo 6.05351402133983 7.482507174844176 7.935235939798249
Mo 8.163955645287412 9.228389105660803 7.724170082832662
Mo 6.995871237757278 9.385842087103581 10.202546078217729
