8
Energy = -65.77242401 eV
Mo 10.998763413875393 9.515738738469972 10.01051958739356
Mo 11.382281357972234 11.307137183069683 8.564123000336906
Mo 12.617777210177781 10.718707445559577 11.001749415802522
Mo 8.908782809636744 7.5950254269147415 10.398101459290192
Mo 8.579260860734426 8.958131927070852 11.446949427571662
Mo 10.229829465557348 11.367773975388232 11.961997023222168
Mo 11.865226278247706 12.696874209561352 10.134226380077028
Mo 9.281208520942549 11.652602270922499 10.261184059339097
