8
Energy = -65.48237315 eV
Mo 9.15746058294887 6.776711404202404 8.574004165594632
Mo 6.72511739965209 6.726135775969354 8.59576277709798
Mo 9.816858650491023 8.5621734124686 7.173488761327102
Mo 7.32113323384037 8.474650245486329 7.162278901427143
Mo 7.921767059025978 10.310678937571156 8.50552434377264
Mo 7.263934552980298 8.525429329540394 9.906873944703634
Mo 10.354983353963204 10.362045377880419 8.484093886710795
Mo 9.759876871810116 8.612603751423327 9.91658812454058
