9
Energy = -75.28835157 eV
Mo 10.045039318666237 12.378387960936871 13.447625679476948
Mo 11.76566992757044 11.78919622285053 8.664416064769993
Mo 12.26082528791104 11.149921103749055 13.589098859664224
Mo 9.269652007451562 11.771504058241065 11.76188762639487
Mo 10.707451461734149 9.99570822402135 10.642247424279184
Mo 13.322121892683118 12.658850398305578 9.030672385273432
Mo 11.707371378551688 12.59463196923559 11.289393746844933
Mo 12.86717696288875 10.669287005234185 11.18464693456655
Mo 10.93513573831761 9.651688717629293 12.945216542805174
