9
Energy = -75.1902255 eV
Mo 6.435742680258441 7.298882487766068 7.817265305942811
Mo 10.158944832883305 7.173502889965418 8.479862618670124
Mo 6.897375944652284 8.94792152303093 9.667353641036375
Mo 8.023134976652495 6.8559011425210725 9.730334892956396
Mo 9.238714071553517 8.857826659330167 10.070862502477155
Mo 8.383521427406906 10.510391170698725 8.373322955276517
Mo 7.2892635935524455 9.203635163034052 6.759512642906523
Mo 8.507052570308426 6.912254770733052 6.810700622898968
Mo 9.847555249492231 9.124444007245865 7.184409418729684
