9
Energy = -74.66959211 eV
Mo 10.897584655795729 8.974200345971559 10.155732594065583
Mo 8.32819631601154 7.829042615466989 8.994391909692483
Mo 10.862496710829927 8.539152659484984 7.346196042346579
Mo 11.676677521921595 10.139121897310975 7.752532386001948
Mo 7.51828475758695 10.003905568981939 10.570327437375814
Mo 6.536318163472301 8.583643086552105 8.70745378593728
Mo 8.990180948102703 10.151905423809671 8.346074188981477
Mo 8.706359206041562 8.67332738562814 11.535242587633908
Mo 10.212034606661495 10.855216054274647 10.347130368852008
