9
Energy = -74.84500364 eV
Mo 13.072656877122725 11.740818186700722 9.098817335716769
Mo 11.42429158070559 11.788471007950584 8.318278194623566
Mo 9.654609127444386 9.349009085544845 8.954085334828603
Mo 9.724249142073626 10.316230065957674 12.342470941559833
Mo 11.509066918339176 9.800077026067864 10.29000871864216
Mo 11.25418228039639 12.092947356437678 11.22316182793294
Mo 9.293859213868215 11.47566404182883 10.365246093169993
Mo 8.174968447984819 8.787006949351763 10.572603483527097
Mo 9.98155794274753 8.089892159981181 11.478184932851025
