9
Energy = -74.95346081 eV
Mo 9.531621254614267 7.148716485664852 9.230603627499498
Mo 10.928865719159669 9.688669146997464 9.014420813051325
Mo 8.46341067437251 8.899231666672526 10.283140768098175
Mo 9.6746110537022 10.989416428124366 8.70905394157825
Mo 9.105563775154984 8.793382164974746 7.161196796746333
Mo 7.06841671374795 9.709371341758107 8.636062727139281
Mo 6.905320355263744 7.160298473256771 9.25376187781718
Mo 8.375438192547167 6.432405668428873 7.3719132877748965
Mo 6.714082326610662 8.159343206656281 6.9706287555427995
