49
Energy = -107.00058702 eV
Ag 15.907728484669962 15.588405069296616 10.400002708114183
Ag 16.424749951873956 13.117630553758042 11.625344274861902
Ag 15.62972143120318 15.194559234573559 13.3345575411188
Ag 15.52631036199881 12.617836214604816 14.445805675698834
Ag 15.201797533549689 14.763095162362246 16.18576359396518
Ag 14.582559122340582 12.162515395322384 17.048207263427926
Ag 12.521901817879874 14.134881854593655 17.009300969577563
Ag 11.86928523556091 14.312019101357022 10.361805916530288
Ag 12.603575686785367 12.193864526491234 19.01466331478407
Ag 15.474747919455492 10.639905629297584 12.47748547815317
Ag 16.129585810158584 10.996961409011062 9.74344962100721
Ag 14.582412884619695 13.264686325299708 9.46542724579664
Ag 13.034893111596682 15.114505603494747 14.397509678811224
Ag 13.646891258203208 13.085406292447736 12.334833835043309
Ag 14.534254403056162 10.06686283447658 15.101629065777063
Ag 11.446322579720155 17.113704106501565 10.139093306314361
Ag 10.431856549111256 14.132539237431066 15.020781172617045
Ag 12.569397363473366 12.211880537607348 14.853577295417272
Ag 12.850861580004146 9.931353723739845 17.347541784051014
Ag 10.89793347775978 15.682784461713132 12.675609005644972
Ag 13.778496381797893 10.702077623719019 8.127664565007647
Ag 13.519431722139798 15.76964055587558 8.69161086437136
Ag 13.553692176436577 16.12715832161693 11.7397078023071
Ag 10.730731886114661 11.884943701495422 16.938189833247094
Ag 12.382071650704663 13.130371313982305 7.748182532508951
Ag 14.54262349644167 8.073953471630901 13.09741074513704
Ag 13.131650685332175 7.68933314888275 15.630752174629524
Ag 10.741991435577342 15.41226310271021 7.932284121173729
Ag 11.132597781496537 9.641913106362185 15.157799095191816
Ag 14.16346444743837 9.154000462090297 10.482215455617867
Ag 12.650841797148848 10.313384149404557 12.76631139770239
Ag 9.229473458870926 11.66137030972174 14.559755917048575
Ag 10.802544718931971 12.632273893955913 12.42515597061601
Ag 12.263314969350573 11.518214685208026 10.263779222241114
Ag 8.490644407214733 14.199070811640658 12.893554850527725
Ag 9.673802977126064 12.754297179629793 9.639387243859906
Ag 10.891088782333897 10.648214371201574 7.9841806671896105
Ag 9.164149788160048 15.46916858231847 10.403166921538725
Ag 9.835112622472428 12.916787460961938 6.684552000594924
Ag 13.501117263386304 5.612257003865792 13.797244716994111
Ag 8.048579712585695 14.600147840704421 7.94931154596193
Ag 13.202956368922408 6.561720564897769 11.104698695578321
Ag 11.65524886306076 7.61932351780738 13.157749266058396
Ag 9.8426549155163 9.656022523087909 12.61460074573354
Ag 11.422570431125965 8.72476769322277 10.433365024870005
Ag 8.020166989918238 11.61893878769886 12.006643004888964
Ag 7.0365993487929 13.599547087248343 10.35972400157997
Ag 8.988618478339193 10.02335379858201 9.953111041554878
Ag 7.6992469037415185 11.700059792560076 8.063760888727657
