12
Energy = -20.93111218 eV
Ag 12.04145748273767 11.30562761421445 8.488390523591116
Ag 8.85849162367352 7.67444846839393 8.034420456854724
Ag 12.83668889319451 12.49896126648033 10.862359527107811
Ag 10.159984741277873 12.720346921520981 10.161216827674174
Ag 11.077191759337248 8.261282613547873 12.734634481155615
Ag 7.32935045734271 6.467263020649672 10.006190959739966
Ag 7.588057757494028 11.747551974043487 10.23698694953884
Ag 11.1230003480107 9.030487166644248 7.249000662537551
Ag 9.275982434716411 8.256203312835368 10.760654709926646
Ag 6.905983002643174 9.169116525750415 9.5649048858948
Ag 11.249629183256472 10.256502143119699 10.9684604086646
Ag 9.340640354094667 10.401780147504232 8.713507651980779
