10
Energy = -75.61989157 eV
C 9.118717062571939 10.995715079108706 5.545498567932409
C 8.768789318295655 10.336103074569738 6.6128067586699375
C 8.62626412405615 9.798255879983943 7.784922327634532
C 8.630162007816974 9.36205465354547 8.984755145139149
C 8.962172719605697 9.167072920613316 10.21329844163367
C 13.470376992970536 11.791739904372822 13.10178101056906
C 9.591010721543585 9.252693770380183 11.322260360827611
C 12.465669494145754 10.965723006410848 13.054503728220839
C 11.445739873656603 10.243856732780305 12.716618373610363
C 10.456603363395216 9.622290656292767 12.199060963820537
