10
Energy = -76.83539287 eV
C 8.882674684512688 9.857994953849964 10.393475616472992
C 8.96692146476794 11.133372927625143 10.328204666349883
C 9.69424481144038 12.215766876005237 10.304419364279775
C 11.341667660097787 12.096693698887535 10.356075650568817
C 9.43462611172306 8.6784971407446 10.440964683681008
C 11.80585241622122 9.640910574364886 10.42451712167037
C 11.895752822577798 10.916374793001559 10.403155016068531
C 10.598471161761239 13.241008470286774 10.296733265768216
C 10.173747337154065 7.529833053796054 10.474609889873472
C 11.075266014268442 8.558771480488328 10.447070240741757
