10
Energy = -75.03441887 eV
C 12.510426840804449 10.976528436389215 6.399579052878614
C 12.920580547938307 12.130301175283181 7.0033178657170385
C 12.292650735663615 11.135198096179892 7.8123073165694805
C 11.799104950300698 10.684164986022466 8.952630226989365
C 11.197245630321731 10.305598013053055 10.003723684087397
C 6.421349629328783 9.503219222748816 14.078609966756533
C 10.45240606733347 9.979182088940817 11.005573763454631
C 7.577329381223568 9.43783472144444 13.489253223692021
C 9.601437421465825 9.705569520438228 11.921529109146123
C 8.62384318958434 9.538778133464238 12.729850184673147
