11
Energy = -76.0822363 eV
C 8.523333518221989 9.362470428647438 8.141147860065841
C 9.056646918659743 8.16842891617051 8.07173896773949
C 7.478133776240385 9.585443915320422 9.054057906174826
C 7.393824849916445 7.282643920501298 9.991514192511142
C 9.072312051114853 6.927346414062969 8.439628699084427
C 8.246994829432705 6.396910625322614 9.413443421591303
C 7.121848759821464 8.518044526915823 9.784068495599124
C 7.864886159933965 6.550788719646133 5.6270550621872255
C 6.2885396655640635 7.705395568745426 5.931807332826685
C 7.170034512940442 7.514214689392375 4.802932041810457
C 6.561984379807048 6.310488402668465 6.198617761175265
