11
Energy = -78.62618576 eV
C 5.338493181476799 7.223818975310249 7.355463787584895
C 6.602235836104523 7.85831114216967 7.81332852335274
C 5.499608255256445 5.818012891232505 7.894418448671409
C 7.771669321272128 7.1515170055476585 7.103664597032401
C 7.859891454929097 6.852291033823876 5.764379818769189
C 6.832058706615511 6.228136418253338 4.891132348893168
C 8.058157247215695 6.690228213653099 4.406141301298714
C 5.582127662460154 5.927377173288847 5.28141904391582
C 6.7645603020151395 6.436604043953513 7.966805947208762
C 4.636693514361491 6.620649102350163 6.106915879018064
C 4.963347311307427 5.3098560837193896 6.584963140773783
