11
Energy = -78.38954363 eV
C 7.59755678768826 7.464959697403365 5.353542866555189
C 7.626285404221293 6.043791165854457 5.520860765781489
C 5.3706857569123905 7.863803987123263 6.276501923100251
C 7.6274113013974985 8.134727575034193 6.622535328457964
C 6.51231957852515 8.36840545909903 5.65890408134988
C 5.760187006281571 7.0091288371429625 7.341552342567172
C 7.684273675577863 5.834238747278653 7.013465842150687
C 7.196569793547652 7.1313135010766295 7.538487072472234
C 6.492749707221843 5.21299672393845 5.88387014330641
C 5.496005463249066 5.557076340486294 7.034597880480263
C 6.7172269506861895 4.678949253378672 7.173430685635529
