12
Energy = -86.8667339 eV
C 5.600577579849787 5.103397331008749 4.902480335078031
C 6.123163162231538 6.70544114056831 7.731526619701487
C 6.796738609113038 7.244430441749041 5.5595863279323146
C 8.044876306095984 6.841088285612444 6.0832346726021225
C 5.977133983598824 6.534139188244008 4.629611841243773
C 4.72613796301015 6.193649165951389 5.24465918250231
C 7.356748850278795 4.714449313343165 6.6725524531180485
C 6.351020350077217 4.509105905832436 5.916683338344154
C 7.352631755807123 6.09075232888583 7.09734862709831
C 4.292495420742138 6.916255858774676 6.389840610069517
C 4.930991952054482 6.115668944434338 7.394062330138367
C 5.6729606926265035 7.572105619262731 6.631124707509474
