12
Energy = -83.61167592 eV
C 5.906471178850298 5.204538171500115 6.321666482920996
C 6.156701869206368 7.900377346234793 8.129337948979744
C 6.25980693310122 4.163335216175622 5.459072730715906
C 6.5789023415518075 8.608092343534024 9.397909044653012
C 6.639575213493132 9.439514066469393 8.250262451578216
C 7.092671490203181 7.279501677328613 7.1975782712122
C 7.5219449142772055 4.4160156728186 4.9565618822436095
C 6.987630356816716 6.183420034988875 6.405956073665151
C 8.0410855491083 9.64556779200204 7.820742031106977
C 8.209440233416506 8.192233107364418 7.428758856205732
C 7.974536589062964 8.761967131981413 8.927479001438122
C 7.979781393109937 5.620674810501768 5.493290134148843
