12
Energy = -94.05320945 eV
C 11.888219238869652 12.728966613620003 10.694676
C 9.501132761130346 12.728966613620003 10.694676
C 10.694676 13.237478449203618 10.694676
C 8.414646561411784 12.009854772791051 10.694676
C 8.492959066055564 9.423606838703776 10.694676
C 8.335496014588584 10.70931506990749 10.694676
C 9.528705269371894 8.64509247962375 10.694676
C 10.694676 8.064961487332534 10.694676
C 11.860646730628112 8.64509247962375 10.694676
C 13.053855985411415 10.70931506990749 10.694676
C 12.896392933944437 9.423606838703776 10.694676
C 12.974705438588224 12.009854772791051 10.694676
