12
Energy = -78.57696105 eV
C 10.830631615836309 6.912343256787558 10.095741811996916
C 11.052303989526047 5.916939457563431 8.978612524524104
C 6.235839938005949 8.599663248325717 6.678026085127469
C 9.89759876937101 9.73587932967225 9.631263654731697
C 11.197880316015889 10.024586001724382 9.599836392718743
C 10.359434486992392 8.080225965106365 9.356082920179594
C 10.90117635026504 7.225153982436783 8.319973774947279
C 6.79265093900934 7.021352709292488 7.008397450294372
C 6.645842554298826 7.494055617566269 5.755423974623183
C 6.871008691406202 6.722022508627635 8.321965596456096
C 6.513341241481168 7.7810608915722845 9.304425400266409
C 6.320334871649112 8.251722421761672 8.021058044879137
