13
Energy = -95.58892619 eV
C 6.0878011102789085 7.3348799178596895 8.158122046713423
C 6.108178366657279 5.91905528006072 8.13044810415765
C 7.380921057682139 6.766762038970802 8.185971608774846
C 6.540093433516858 7.93147428879714 5.8447473634499305
C 8.504849863735679 6.482012952234331 5.939936440483636
C 7.987984136287954 7.875535828814135 6.034144536549184
C 8.323736749817787 7.107885204451985 7.216610875045611
C 7.862675260874361 5.310653822698475 5.702666014798233
C 6.473489808682741 5.4491318829496915 5.880151602479561
C 5.518546544708643 7.809766404066256 6.9183865777908204
C 5.867299670125836 6.7209908392750535 5.4974306516421505
C 5.49728507501748 5.4197782884593355 6.956894621733305
C 4.67159279011263 6.696128554293268 6.35854485931281
