13
Energy = -102.7125728 eV
C 8.09109289028404 5.691825679166845 4.5102097026465655
C 8.72723471396302 5.204697172363356 5.4996425554370365
C 7.15983681940243 6.340185077795629 3.8453474306867736
C 8.622019956966241 5.076418880566691 6.79905941465808
C 6.027313972286847 6.906455070470822 3.879964704993776
C 7.335112616094297 5.762513592302181 8.740605389915816
C 6.298239288485481 6.400456597353752 9.185487208235442
C 8.26751595765132 5.215561287784281 8.022451727101089
C 4.982975189097238 7.443204831900001 4.473296266197655
C 4.222476526782306 7.72484975552014 5.449039514252084
C 5.26807793509291 7.02761441383245 8.746005433729808
C 4.339002733665667 7.553152919246072 7.989867268273288
C 4.095130957694058 7.755371531029123 6.755530095281106
