13
Energy = -95.63048104 eV
C 8.35099267849155 3.3451236817258962 7.146627921361858
C 6.3168464887251465 5.851275378720336 5.090834609135752
C 6.37951837982736 7.9462799503206565 7.917230692556762
C 4.904118134405071 6.264587598686384 5.338211097999605
C 5.400881298783018 5.830881969025108 6.7382512323598975
C 7.089937827852564 8.05792585189839 5.558463392969529
C 6.492847833546693 4.9691269537180105 6.302927868920573
C 6.137148771913658 8.477286168289675 6.5225101715366245
C 5.368740087000399 7.101457479343884 7.362953068857584
C 4.27329899130779 7.457411115019331 4.978339988109549
C 4.788311445129975 7.950844748683983 6.172039137390706
C 7.399707332037318 4.111205179737656 6.7492830979454075
C 7.160548966990922 6.964274899624734 4.950766163727868
