13
Energy = -86.24869866 eV
C 9.376151574847146 6.838040761842171 9.067488465922988
C 8.703968190381145 6.148917644086541 7.95314737300512
C 9.722062652290962 8.246467953606604 8.75211926834553
C 9.78919487123076 8.22544677467796 7.24677674380341
C 8.008759130684792 7.0130340373077855 8.955805437398023
C 8.070090541814551 8.453234284955691 8.622911331733052
C 9.178786577565509 9.362228912728606 6.550080316285676
C 8.914396843341912 7.071488365271437 6.787144038339546
C 8.193911007319011 8.399191296627514 7.097918644911741
C 5.663648732766437 6.6849334172558725 6.930405518546962
C 5.314861542421613 8.256635136494111 8.026360136223264
C 5.909415868186067 8.093439642706274 6.705852517471762
C 4.544593464709684 7.085602180149568 7.740852930157901
