13
Energy = -98.0813924 eV
C 12.032966466454187 11.396347278115426 9.650237837825596
C 11.12653257754862 10.750899681893278 12.085313905517644
C 11.774550864131248 11.71143042192067 14.034933128534782
C 11.757522567101372 12.541288739615853 10.479869355255849
C 11.297022042611353 12.109358343247118 11.782811853953243
C 11.558088946232536 12.776539521049529 13.052728201859722
C 11.94932180292894 14.108872852185307 12.871754773383623
C 12.106080199830481 14.52363364744461 11.639353259228018
C 12.110433193831566 13.907404380253999 10.499580666033921
C 12.098398549891373 10.23661774166983 10.14440832964542
C 11.825576710336874 9.710033080601393 11.412136232764984
C 12.52977449174901 9.578198117954082 12.707320285306182
C 11.664728633776615 10.480371694048902 13.470547670690674
