13
Energy = -94.02132331 eV
C 8.61064678317386 6.311276868102528 8.569192110459154
C 8.931631933855858 7.628002575485389 8.208606908583288
C 7.398891081773443 5.62401841803848 8.31872184130822
C 9.296423829235913 6.537527513827324 7.285210317792266
C 8.162078691785641 8.599686352663154 7.533545192780498
C 7.0829117692640535 5.830899928450638 6.957893950809023
C 7.626821078230741 7.934866704403859 6.403543339030131
C 8.20502851826496 6.570036248324359 6.350346470063207
C 5.852698681254573 6.379542908444724 6.401323085470213
C 4.464507025938659 6.367163412974169 6.577459538972871
C 4.262552526343884 7.704039037853916 6.638537475071964
C 6.238175979624184 7.831538073748137 6.024862482786175
C 5.0388052758026936 8.579460549546939 5.982744623207038
