15
Energy = -113.21354742 eV
C 5.687740462243092 6.072005052733627 3.68400951591943
C 4.409706433232576 6.722612713271663 3.897019117705073
C 3.609796517885432 6.706075047660283 5.098225388987241
C 7.142109149862246 2.5308647015062045 5.17637664334981
C 5.671828802153287 7.367110835575766 4.266248612280604
C 6.447197537737551 5.178552068134935 4.520802675579247
C 6.798800443551901 3.827441566694446 4.695773469440051
C 3.6869666301320776 6.10269052887942 6.423333057666555
C 5.905572576418725 7.204927404640859 5.687166324306081
C 6.506131995700273 5.856426160056167 5.813016689779394
C 6.492654418169675 4.750798015840028 6.81919205334845
C 6.841067917706175 3.569778575044278 6.095709817478085
C 4.520285340751146 7.207606859269313 6.084473354435654
C 4.033146197783142 5.109361584836233 7.295410437778948
C 5.252607762003215 4.799361071187854 7.4488550272754654
