15
Energy = -119.88782504 eV
C 6.254891762284599 4.003404262579038 4.238291958927497
C 7.3267586360596235 4.403042141082326 3.6513950946819422
C 7.837838121524193 8.773600801671023 7.234020699288161
C 5.18610785884014 3.7054104545699897 4.919013675140146
C 8.095745865282279 5.449710873782854 3.924868948264995
C 8.47347038488533 8.258806768277417 6.1897413446548395
C 3.938580662284126 4.706958829440646 6.944626323419949
C 8.679041361955958 6.479200633020475 4.363338436270161
C 4.523251224120853 4.173146288172406 5.927568112954763
C 6.9290853681034665 8.823726866068522 8.098252813721855
C 8.712906966381697 7.4653312155768745 5.246132198934862
C 5.841456198240494 8.54290623103252 8.813046386796714
C 3.9664613167337954 5.672986292778723 7.812074986378837
C 4.089692549083011 6.663344044639066 8.620914083253103
C 4.927190478868349 7.660903051956017 8.799193691959568
