15
Energy = -103.72682295 eV
C 6.550725493487944 9.902623493418819 7.315468191693421
C 5.394245210713569 5.813165647289315 7.138676533287086
C 10.095643795974288 9.08989073998861 7.8982143767474335
C 6.976501933268826 8.17616404466013 5.353910829788877
C 9.610272401809144 8.679663780498032 9.053149019042085
C 9.852095356681303 4.902953907720414 9.506891013787415
C 6.873128218323642 9.292106862666047 6.050810534701309
C 8.97226181146399 8.260858301697152 10.101709360236859
C 8.764010653636245 4.918218704346779 8.803390981986041
C 8.24343763272968 7.823026398940629 11.110904661703213
C 7.071565713221548 10.715024978863203 6.10838989573645
C 7.634512342337654 5.120447689786815 8.210760840118716
C 7.209718534129816 7.055555566756416 4.755649843189765
C 6.773713153297245 11.327370110332266 7.3747360116786975
C 6.5086926293961795 5.38729283564456 7.651204517887052
