15
Energy = -116.8546683 eV
C 11.426079914112934 11.562146240510607 8.627241781902873
C 10.507969755921062 10.775129930672039 9.059293044682727
C 12.389512512556244 12.390499320932378 8.797831201836736
C 9.724327260729448 9.998650511171475 9.71349728122072
C 13.250872539843819 13.222378921026786 9.265444406103105
C 13.65377273505449 13.955538207310047 10.236111314213426
C 9.31789258826748 9.223619925993937 10.645916985019944
C 13.81904412128952 14.616253393027906 11.327710723950284
C 12.511555234430913 15.766434503449629 14.751618172960445
C 9.102823580208584 8.430479036085444 11.636208077233398
C 13.530734503351942 15.074013554089465 12.484380698426449
C 13.118963363877553 15.479014923131386 13.645951530079934
C 9.23107600868806 7.632922124208464 12.621736057955685
C 9.46306984238258 6.811976428420601 13.598084913946613
C 9.863895843834358 5.972532784519487 14.500563615016658
