16
Energy = -125.7531784 eV
C 6.361382700131934 9.059712857999262 7.556697214822681
C 8.387060115835183 8.401785885548158 8.737678124051095
C 8.347436015986155 5.2660288943856015 9.086735866127006
C 9.446567510609501 7.517369220010909 8.434955977719703
C 9.124996647246363 6.223267782980342 8.852189849537917
C 9.72165000638135 8.32109504647685 6.045454921482494
C 5.247528967604317 5.968565675119316 7.6096196031059975
C 5.437064221467389 8.261829455679578 6.852717742918738
C 7.429702775241186 9.053295992675784 5.277319511741969
C 6.35086891888679 9.06355608358456 6.135110703459125
C 7.315397029615886 9.008888531042023 8.544107826184195
C 7.115714082932335 4.937097456082932 8.695390811705803
C 9.967670424234619 7.809300178705188 7.160971015870706
C 8.634855321066054 8.7295369431116 5.370999366594927
C 4.861379568775275 7.023535782062621 7.052343863889825
C 5.93345636347661 5.0366435531421665 8.276206241575611
