17
Energy = -130.74412661 eV
C 7.449483777779399 5.113142337626348 5.401329399389591
C 7.411268268243087 6.510591949502263 4.999250916725741
C 6.32015958895754 6.231751645380402 3.9380359476154467
C 7.294136610987895 4.7504886385291645 6.772093583713172
C 5.132517004871627 6.945378458840975 4.2427607859239655
C 6.309029905757821 7.050989039288033 7.132003464407817
C 6.231465681796755 4.9446806694578065 4.56817571782657
C 5.567591413447722 7.7757654903291655 5.356698788277062
C 4.807739071299278 4.885170951184742 5.120136043396477
C 6.9647351603825385 7.527520367147712 5.8460277131980884
C 4.9450198093916224 7.377394719365209 6.58316170468136
C 6.558840818242318 3.5678949941675646 7.2120695178456895
C 4.048396452326656 6.079636733195876 4.690136030371792
C 6.539553241128259 5.777160244078589 7.540431558827799
C 4.142948223752907 6.241327559141861 6.171329121221035
C 5.583609009711322 4.63606861981769 7.421673322511917
C 4.481176731721555 4.87583902391334 6.548020701227254
