17
Energy = -134.66195286 eV
C 5.367593771613875 7.666714855623739 6.8792168008768675
C 4.818853257022896 8.476944749349414 8.14435171231559
C 4.0406805812059305 7.901416843351586 7.164830256246726
C 6.664735182916891 7.508369878194454 6.692188781972256
C 5.6539988523039515 8.995224307781685 9.025317440511046
C 7.492295261313726 8.066298219248582 7.613717022467843
C 6.9782403126450605 8.806042592002779 8.7902953201618
C 8.901533101871378 8.322342144067697 8.063912047299292
C 9.021126236793469 9.657763680036082 10.268926895077648
C 11.425024380074271 8.201862226447705 7.9312727587841945
C 10.18015921940007 8.094199265747921 7.708059431194446
C 10.074613019888112 10.002322606201526 10.883391149931494
C 12.527415492132198 8.532137676451176 8.550680402565604
C 8.371104033161648 9.061520809638813 9.25491830424256
C 11.353435156921293 10.106952586528454 11.12024005823125
C 12.485589330206382 9.776381380426958 10.628445053916534
C 12.954546809755138 9.135345327042051 9.592251732279472
