17
Energy = -128.55045859 eV
C 9.255115654585696 9.80084913867328 9.278972556328133
C 9.685153134596423 6.008364530232615 10.606041192644664
C 8.594801989803086 13.117716094009792 9.513441636890843
C 10.62452975963347 12.571441463671597 7.967466005884859
C 9.01320672378216 10.927536796940966 8.43758755881642
C 8.246454073251673 12.019454190269787 9.008727619519627
C 9.538160239398051 9.754795870913442 10.673657929933713
C 9.527637904931423 7.208637059814541 9.851673688281586
C 9.902255199710865 13.546094251430949 9.921652354961653
C 10.135795866355052 11.37297127772492 7.749778273139461
C 9.454603280099468 8.550727896153047 9.89300627848041
C 9.58100131638924 5.997665220120143 9.090662100996687
C 9.733204722118487 4.784623642470786 9.853430378989499
C 9.708524143508763 10.661202852965113 11.651967296272561
C 10.010907049489099 13.148235737218647 11.268071142326482
C 10.878913998163322 13.427140240709075 8.904027619265598
C 9.992974167192113 11.92128551804221 11.677294021377161
