18
Energy = -129.90021616 eV
C 7.191288323933245 7.902072440553811 10.011510701760999
C 5.81884445557235 6.512635934862701 11.519574380923652
C 6.90991197133807 7.418555897021904 11.376144044545931
C 7.445497146976396 9.14374637415268 9.237134448112593
C 7.774934374297081 11.087973937037056 7.617421587423966
C 6.0577600181751325 6.964794823861179 10.196557603823559
C 7.228188259753589 9.820680397112051 7.947467242988276
C 8.732450208244165 10.934426979156543 6.681518084058872
C 8.28974278276649 8.100529131983603 9.051019950481896
C 8.42279944695452 9.477664653762039 5.893400538078035
C 9.45350612201573 8.91189188087623 6.75014483740253
C 9.921667082705042 10.255249124813268 7.021313805342286
C 7.639004008007457 8.866223770236244 6.9424594048199175
C 8.50032635900264 5.111261915338167 7.471361184797233
C 8.62790065656585 7.83735112474333 7.585987989440283
C 8.6100397643228 4.1841417418875775 6.337255056358766
C 8.777265954261454 6.457442108708629 7.18035074452892
C 8.888690450651255 5.583430442932527 6.078216600652965
