18
Energy = -133.52670272 eV
C 6.095771474679381 6.2536431597304665 7.100954450923006
C 6.165810331966655 7.462205865499962 6.365582484349166
C 7.058506245144788 5.980126289450293 8.02881167771728
C 6.014526897197681 5.0233073353779245 7.847723487892905
C 7.521978838494476 8.08557723261414 6.368660517498421
C 5.7818655655162825 8.763822422693439 6.5336221146502105
C 8.104139331171952 6.88117990926502 8.484935849715987
C 7.931593153117147 9.113223085836141 5.298754703190837
C 8.276151855746843 8.036028474071697 7.680361784685954
C 8.69295361112078 6.69691419809603 9.725618173825847
C 9.24833037339127 9.569471713527566 5.5411391839855915
C 8.697194276135836 9.429482331337153 7.950831018451036
C 9.597774978336417 6.42483134433779 11.961570949052353
C 7.7853816249117695 10.327254913783543 7.2792988467461734
C 6.92156490263793 9.63047724605096 6.309426302884042
C 8.777852562393768 5.894905322905403 10.888094984159292
C 9.180776935376306 10.134212740714746 6.78721219881817
C 9.50379733774899 7.230023479350931 10.766051392346569
