19
Energy = -140.87802532 eV
C 7.397186911428709 6.114794715994751 4.173266285133091
C 5.938514543265358 7.9580473931444855 7.267633141841477
C 5.117223982395314 7.37309755270462 8.217525119576031
C 6.21576327146655 5.197896186778267 7.273995484036415
C 6.965981563186294 8.810627629248122 7.9955539186769595
C 5.639559978774957 6.542866234102321 7.218370337428708
C 7.395288679069926 4.998896324905511 4.8850722614570925
C 10.24272704784742 9.300040874637537 6.010832043984551
C 7.995601851220118 9.37161641456125 7.370338912985675
C 5.735482208748575 7.63866408660043 9.593728276958792
C 6.168669809966402 4.75796635620094 8.584410362753054
C 10.885105198022243 10.276749759314642 5.179027169851069
C 8.98867699913274 9.717646866684934 6.618826349731313
C 6.708589639315333 8.586566320612945 9.403341650324275
C 9.65682515686419 10.68656697651449 5.7892174774944
C 5.902232044497209 6.440269115299743 10.322752208223333
C 5.865603451504341 5.2760925179495 9.728134212810119
C 7.606164855773649 3.671851130863497 5.498824754428095
C 6.905643046984959 4.603931469832689 6.199778100585047
