19
Energy = -142.35988304 eV
C 6.3424221044153555 5.896993351747831 3.859261052025743
C 5.440034575165528 6.772724391046414 6.2950165595259
C 7.5740925303634645 7.7417543434896166 6.739685253892814
C 7.05011257578901 5.815071674078712 8.432044319078358
C 6.018492243394235 6.766108636412247 8.551466125212649
C 6.5982211127580666 3.8933419113901526 5.295104252273628
C 6.640084963410759 7.439208778357848 5.787336645033159
C 6.401161166297354 7.253678850873002 4.3207367350588655
C 4.579744163359047 3.9173073053618275 6.628793022493534
C 3.7377635677370527 6.925518940474616 6.596125043953649
C 6.864089545171751 4.715519764747978 4.171215777325277
C 5.095585940525632 6.673101639766975 4.107225851960401
C 5.295624179786486 3.470716527020041 5.671517437715342
C 6.660645668485519 4.664765474282989 7.61008644353767
C 4.396120914745867 6.53083900957719 5.396012604345035
C 7.250368188677895 7.148909713108988 7.917127517198533
C 4.913631579556234 6.313915428310151 7.578042506912774
C 5.177733939701628 4.81350284777953 7.496934455995353
C 7.289190916312928 4.114115478317706 6.511065843549695
