19
Energy = -144.11143622 eV
C 7.046183516468244 6.771654156593871 8.427502594142739
C 8.382671608998198 6.593522287375863 8.078787280925683
C 8.780326424820066 5.6697921281986 7.315595862759477
C 7.287746680895758 7.380613136529448 4.186805070574968
C 6.611659542608246 8.24905513589443 4.82262933579427
C 5.525594627152535 8.544885834365127 5.645955865340554
C 5.197281658320061 7.661379431140348 6.80744865552692
C 5.790419274494497 7.106911847426668 7.867249345258448
C 6.630652691949406 3.765963005044481 7.717059751422585
C 7.784628513693468 3.947521659876932 7.045851728100409
C 8.9467953780645 4.415088192256136 6.754739590496552
C 6.732057651073929 6.209516437845089 3.8437378242892515
C 4.215477434445218 8.672314600003801 5.033111291439684
C 4.1720657208121645 7.38604572080482 5.793007798907763
C 6.137278265754883 4.677462921570159 8.436277716559179
C 5.939541344876672 5.995587692643001 8.846072888167168
C 4.843098120351728 5.585371786325254 4.430455039423828
C 5.95542361844226 5.192388662423516 3.748752367310673
C 3.983987653806903 6.145978803540994 5.172256490574811
