19
Energy = -146.19824959 eV
C 10.658232561147702 7.865156127162662 8.29212828108812
C 9.29137704361045 7.761345858720749 8.408119980448774
C 8.152536602260328 8.632844577312369 8.583127282735598
C 8.701575951742296 6.3747995514255225 8.054656997207756
C 10.836933871999628 5.6901444569722175 7.6258027909580655
C 11.358807818280964 6.863818457590252 7.894984750897041
C 6.953931473223145 7.800283435277734 8.642873765747641
C 7.263763430641603 6.501185959101822 8.132391903432909
C 9.586095689766784 5.3940191269924584 7.648639447366326
C 7.771192025135639 9.797558850907231 7.91429299483047
C 6.159377918855845 5.92364928834595 7.426074368248572
C 5.906249076428243 9.779545089497221 6.134062740008306
C 5.105176808306077 8.560561747501223 6.088732975459373
C 5.845418776394192 8.548156893847022 8.151290682810915
C 6.425240965129094 9.752272031442212 7.443689061134167
C 5.5193856275965 7.456569728040077 5.3321322743563675
C 5.56491477818963 6.32845432536312 6.17873242965702
C 4.894919279014253 6.5855417001364875 7.4120415500989285
C 4.759355756144894 7.985583102181536 7.489649760238357
