20
Energy = -159.60769969 eV
C 10.65792281973649 10.01288896518317 7.119821972512303
C 9.528109363193888 10.362390250467948 7.64581040995703
C 11.912115142565444 9.786000708478785 7.063551289826283
C 13.138567492951251 9.725873850622467 7.469549202798268
C 8.670186436449095 10.754444512005469 8.502909955064768
C 14.122376220945315 9.845490136244075 8.27267139352628
C 8.157958433282852 11.145760904331386 9.626118675110284
C 14.746286189637484 10.125212740733533 9.370799100590887
C 8.016943880822401 11.509692886639709 10.836300248047698
C 14.948069192275495 10.493400554285083 10.57413289064692
C 14.710550703970776 10.912869872739979 11.776519374886595
C 8.270622004661796 11.839062559422132 12.066119469391866
C 14.131862191038703 11.326113635809262 12.830529530515019
C 8.76527778208281 12.145022905729519 13.189006191027538
C 13.221143260496437 11.7219536595099 13.668684761368603
C 12.179519032218156 12.084600198188625 14.287547555905288
C 9.612106570028123 12.40529502805612 14.170106070627229
C 10.928742696857254 12.388145594711345 14.600142924907775
C 9.92651074022106 12.979696408163104 15.50194737695041
C 9.507187068932891 13.58814185104579 16.579788828706192
