21
Energy = -160.03016867 eV
C 9.57405237345842 8.163680923301154 7.584773488128234
C 8.868270006583495 9.298174090762345 9.522880583050263
C 9.01353810300108 9.337675062690751 8.0702317393309
C 9.839911767033087 7.3006837259145305 8.70893687766413
C 7.687683349553894 10.068294862669458 9.724451888923914
C 8.754549520184861 7.726537460789054 6.443143485183728
C 6.492389032447072 10.443249088568196 10.376429468391038
C 9.375883572147535 8.027080736097005 9.879853095716376
C 8.940049827454823 6.376970067786208 6.142369492805503
C 5.4266531024645746 10.377347474830138 11.289018735498336
C 9.487217860382684 5.49348483572971 6.97053744349742
C 7.811206468882144 9.686345156922103 7.3491080519531335
C 7.69930830997933 8.677500089885264 6.342651511019303
C 4.294157843587247 10.499390574154246 10.586192632732724
C 7.02427093431273 10.311055390925167 8.359293858286854
C 9.915475855699697 5.932324979898645 8.381202219133504
C 5.825785326977111 10.683527702674844 9.00702148795086
C 10.221713660758322 3.3644941188771917 8.282687554578462
C 9.842483378647376 4.110752998700165 7.233363962181834
C 4.446981001224942 10.729724028213237 9.278709420059332
C 10.294465833920494 4.662853646526195 8.787379768990213
