21
Energy = -164.13995858 eV
C 9.834713472206445 6.743246293280827 7.03074632494708
C 9.222014750306814 6.013901217515167 7.913577593789785
C 9.822807698850593 8.124778913316344 6.794335032460089
C 8.94753979434443 8.719715160017046 5.820367345631834
C 8.337205060379336 5.786055722997348 8.821765032929504
C 9.69153042900783 8.967785788085383 7.989706498938823
C 7.551906926052387 6.611354313357813 9.643316980170768
C 10.208260549673069 8.573964229950365 9.246149335341862
C 8.391529636119765 9.69542689622837 7.871147063862989
C 9.58002177169737 7.9280646833187705 10.110483197715448
C 7.6014224916256 8.801144199954312 5.416609650502276
C 6.490640568849841 8.114262875610123 4.968637304992993
C 8.25608630685185 7.621699066865228 10.428610745913582
C 7.477402180132022 9.510625612633566 8.943806076660197
C 8.066727204111546 9.601377820518033 6.47932640668221
C 5.247757525348258 6.741830283368606 6.730840979129257
C 7.492927349345289 8.846625231799944 10.210195732680347
C 5.763791110866453 7.360564809481474 5.659832392066395
C 6.429202831790896 8.603979393653741 9.323968568093008
C 5.680734170369704 6.752150298254516 7.912266488102562
C 6.320571892379526 7.184243130210115 9.046079956249255
