21
Energy = -159.84930748 eV
C 8.07279044932503 6.807359492303653 10.42285378068772
C 7.882234897815672 5.6149137764004005 9.528015531847764
C 9.810159547947466 9.697415986240227 9.169918988633238
C 9.597871944491665 6.89151810833715 10.277685765225907
C 9.363787296188626 8.264567064751319 9.585217934852606
C 9.40482113443804 9.73376147783691 7.834121293678768
C 9.25061879613018 5.884471839093294 9.328849788174725
C 6.918362312114149 5.606088296729837 8.499950345939048
C 7.899783889251802 8.143624908278442 9.846335449388574
C 9.64375112302319 8.393560676482307 8.109079745863996
C 6.8158669942778545 8.64102742744169 9.16627224384419
C 6.026310208273253 6.602376272222857 8.018074379370564
C 7.1666591412073535 9.849261558195861 6.900753683820159
C 8.565955089948517 10.233996282633854 6.776907620828052
C 5.911986241562711 7.951006662481621 8.315868305757217
C 6.7489076599549485 5.802869555847492 7.088980770283682
C 6.481039359006557 9.20350646082425 7.890775497657967
C 7.9432823881105765 9.417115172251643 5.769295072632093
C 7.355631029111508 5.931167452714174 5.867514672121298
C 7.616951620691743 7.086649059589336 5.334923226640639
C 8.071949326508472 8.275730172223394 5.07053256288071
