21
Energy = -161.38687825 eV
C 8.37780317111114 6.271902129842734 4.5163704479701074
C 7.2592196546344585 8.047672927578896 7.758684547446821
C 7.702255347196332 6.915213857740631 5.721722671189946
C 7.54109302110935 5.72189271901526 6.5727088316031015
C 8.084381082104716 7.947956015783999 6.778053187307413
C 6.878127741091999 4.302768869552047 4.1453434578115465
C 7.754784509559518 5.27747003854325 3.9963986745405897
C 6.862431064655596 4.853948383329588 7.111067686842858
C 5.186299328350249 6.853519781529279 4.483745758452005
C 5.0248137355892135 7.751282211036455 5.696459073479127
C 4.706974122219615 5.530534926160622 4.472726707624664
C 6.310451596510036 7.4944644595589285 8.488625931418548
C 5.151440774735967 6.900791285301788 8.111494545446597
C 5.4812416541723445 4.493664651459064 7.2011507680022415
C 4.3917382966558876 7.295887999308695 6.870431679696935
C 5.611155417641237 4.334022484410221 4.623195140063471
C 4.664162808938508 5.504221607762419 7.854876441895638
C 6.264190596680121 7.372819635029311 5.190478849316861
C 4.913901487402257 4.0826626369023264 5.928368493248414
C 3.8036299829589773 6.000439877256505 6.765184594027307
C 3.9527290704306126 5.161247740376871 5.625635275121458
