21
Energy = -164.83124634 eV
C 10.365603121289043 6.796883599209275 10.349541442859687
C 11.339101732006801 7.758502117787254 10.175269820426323
C 9.082703158846144 6.770054510300775 11.046726757414817
C 11.565686817227176 8.75725562591966 9.462436504558433
C 9.551619138959394 6.584638467806798 9.166385417269717
C 10.868914000173334 9.514378349128824 8.527078394794394
C 9.235385087019077 7.50350898190344 8.076827507514825
C 8.329745071497394 6.238180679946587 9.921386747225315
C 9.824633589783112 8.759532053203225 7.727845339937066
C 7.226156542884532 6.7672296169698445 9.200904961267497
C 7.818582699977044 7.349947278327804 7.948875715061677
C 8.97327588403736 9.753729895570002 7.19909123966735
C 10.48697150557884 10.862167154387754 8.507487638308284
C 6.098834247709527 7.5708124726061445 9.46104933211274
C 6.993872606765779 8.380379935427092 7.500486970090599
C 7.588239175888112 9.585232153196754 7.138866218786942
C 9.256457214693091 11.071751164187962 7.87534330074547
C 5.971638181971708 8.651105322057546 8.570252927439547
C 5.9469879247620145 10.060020947399245 8.668307608817543
C 7.997710103876578 11.603062843785994 8.181362301144059
C 6.951143139958537 10.689113658114424 7.901413157846429
