21
Energy = -161.32630578 eV
C 10.668844012744135 7.414847176408388 8.337966139660665
C 9.444619248089406 6.906602672099897 7.786310442096875
C 10.56537580029453 7.716882702060475 9.575374827226584
C 9.07853224298201 6.660384857858804 6.45465746985261
C 9.895436737707554 7.8241847218096865 10.779315147957302
C 6.864844088813236 6.52652384359664 4.970398383302198
C 4.647727548638153 8.129833717847953 7.010373770300057
C 7.816607442768631 6.307290335605325 6.068529498565214
C 8.385801519351528 6.832902979745122 8.83008708004264
C 8.963261968748112 7.337440586897657 9.99419399521972
C 7.060748010339332 6.482409290557786 8.45880878630059
C 5.754454596692307 6.970535649078865 8.820123418506533
C 4.923751694176909 8.83025550266723 6.0198423110266495
C 5.379277259954344 8.629959017603992 4.682314047618741
C 6.913405938762972 6.0203624470855965 7.135138238669951
C 5.450441358044089 5.946793553315623 5.289550551761668
C 4.358561783625371 6.324464445401848 4.444371960159742
C 4.889453067590883 6.942050084415832 7.745242974662674
C 5.536253367691335 6.030948316866447 6.701908291464379
C 6.416418065826036 7.696551325432273 4.39778103677823
C 4.895306266904821 7.487818313760907 4.018840177375202
