22
Energy = -174.46152248 eV
C 10.618197993109108 6.023746062632172 6.769836631263295
C 11.279195934701557 7.060273429665531 6.329646754090275
C 9.57352201273485 6.0343750512988334 7.702018338492587
C 9.362932605581651 7.350033587346038 8.082150896499938
C 11.565709002929065 8.313338812281263 6.25781316652436
C 8.627134313516375 5.2743947277748155 8.461658829099777
C 9.414847239917995 8.565442255080791 8.220573730489393
C 7.725234016219559 5.440214872236279 9.314603358047343
C 11.383327608173136 9.573223098320955 6.603554773102134
C 6.969995664334822 6.202849731735431 10.120715073262764
C 9.262863368952184 9.873010011121938 8.556950321315467
C 6.494953220266068 7.203691691298129 10.70109968269624
C 10.961294579176688 10.653099294085957 7.137965013137869
C 9.98171086178242 11.034175296106586 8.077372131111776
C 8.292113243836654 10.247000377594446 9.49479216582133
C 6.585865386557886 8.588987761562962 10.819668332179315
C 7.43070222193918 9.480972578997847 10.177925683192834
C 9.375537950146727 12.123951016264114 8.779516355437316
C 8.350572185468723 11.739089799036735 9.653307894520719
C 6.435181904181667 9.948150988036968 11.14960489507786
C 7.367994041327826 12.1120314452239 10.595125003006954
C 6.586387096506567 11.306298397180246 11.196284329537688
