22
Energy = -171.21578698 eV
C 6.975091952406917 7.071717804479985 5.216132569639818
C 7.263300791424618 8.34088856159334 5.167832820798517
C 6.887039789188458 9.436392888655767 5.754967785290748
C 6.679215040177781 10.088056359225765 6.861214463300686
C 6.880066986630695 5.985907736383671 5.928800711660292
C 6.111616057375673 9.94587286688264 8.014927855735724
C 5.7787959827783615 9.176023221877404 9.00177721540245
C 6.257480181570818 5.589778454985405 6.997817252032756
C 5.978907215814082 5.778730846706414 8.25457383560325
C 5.58594576647801 7.96266388842428 9.398435307524887
C 5.579355048470398 6.713568844918451 9.055184636826697
C 8.653867704583375 9.548026954830533 9.605133979553777
C 9.276454509643383 9.944156236228798 8.536117439181314
C 9.555027475400122 9.755203844507657 7.279360855610688
C 9.9545796427438 8.82036584629562 6.478750054387503
C 9.947988924736185 7.571270802789923 6.135499383689317
C 9.755138708435844 6.357911469336799 6.532157475811488
C 9.422318633838662 5.588061824331561 7.519006835478477
C 8.85471965103642 5.445878331988303 8.672720227913382
C 8.646894902025611 6.097541802558301 9.778966905923467
C 8.270633899789717 7.193046129620861 10.366101870415692
C 8.558842738807153 8.462216886734215 10.317802121574374
