23
Energy = -177.83532442 eV
C 5.921627388949908 9.40484878547045 5.570213266180242
C 6.443175581214318 10.38086457400077 6.1901813585028735
C 8.880716720999212 8.273246072242356 5.687105112227651
C 6.574284457927531 8.222841590589825 5.984638276425301
C 7.133889556598194 10.510085197508046 7.376205676848405
C 6.58021281175691 6.85528497154228 8.191182709071304
C 6.470822432670517 8.071493790148335 7.48741749600188
C 6.945797095590046 9.263566603609503 8.155708152666739
C 7.737290462225269 7.734579391016362 5.390361162660535
C 9.806371710536075 9.048557430488048 6.181399532454517
C 6.9619428404386765 6.918860892751878 9.593532441348671
C 7.01862867653481 5.511820959359908 7.854408349454326
C 8.524626247674881 10.82870142243807 7.5886118366070665
C 8.093128869958663 9.008990281673132 9.051570887561041
C 9.59838863547468 9.933365931631148 7.194738491413215
C 9.098930904425904 9.928765357558422 8.523922641510023
C 8.072777805605709 7.839586672141973 9.783751768868854
C 8.316435677718847 4.915848841466655 7.870068513466093
C 7.490107659441391 4.815489444633236 9.02195817948411
C 9.708805278304062 5.2995559307862665 8.005227131692989
C 7.641534872508794 5.696122390658966 10.090848353524413
C 9.784495669463098 6.107569345263808 9.021440270895535
C 8.84651314438834 6.588514599043127 9.937625795044832
