23
Energy = -174.19160673 eV
C 11.054798762236615 8.92161711044227 8.931339399091279
C 11.985610450055965 7.939682905802686 9.200660682872124
C 11.624503452207582 6.549405543840018 9.644866437624508
C 11.30309211679927 10.237181032256517 8.475534541352062
C 10.352450309438932 6.283369336682155 9.803234488475237
C 10.368641989991124 11.1670121847162 8.176672758484369
C 9.610308566796444 8.520232005644528 9.116387223880123
C 12.93194334292299 6.9887143140168835 9.458587545272337
C 9.22811982041561 10.54991766055211 8.434161065098532
C 9.309973872197265 7.14078756315574 9.584630278300645
C 8.627420809470197 9.46443766310736 8.824172316170257
C 7.925168446774513 6.815754555776657 9.750715497886683
C 6.707864923246701 6.8289218305054495 9.155327505364086
C 6.370002057395088 10.193787360596945 6.641882244262205
C 6.7742503723342375 6.5213164295273485 10.538342083427908
C 5.166109825580335 9.555228213433956 7.1112872935824605
C 6.845864061733986 9.793435051607284 5.442733295822966
C 6.0303385237999185 7.15808475302755 7.939286523542329
C 6.365859615944208 6.778101746509053 6.653003102030283
C 5.068247388344018 8.247597530936279 7.777301058682961
C 4.695118324510389 8.413721723249267 6.403661155059536
C 6.3890709877402045 8.613275406058856 5.099748989145196
C 5.657690037662793 7.601934456594853 5.64377113227756
