23
Energy = -174.45769594 eV
C 9.81062124798935 4.545133967848079 6.719726975728835
C 9.619089750221796 4.942136933887172 8.072285484216339
C 9.35285056649503 5.973367276670219 6.256245951743706
C 8.696455381115033 3.951469238710653 7.536558225939893
C 6.300330825112637 5.947687718162381 6.340617055956719
C 8.33348333826729 6.4784494109801125 5.590490224270974
C 6.573459035701344 4.804128799711349 6.86141001386324
C 9.314654073699653 6.368293537050657 7.745575271558341
C 7.111140104803012 7.013558288846732 5.939148379154583
C 8.745416221218584 7.516958506521405 8.150350744013243
C 7.368747320898631 3.9389721415381325 7.40470575853878
C 8.46657053834365 8.661325271684358 7.119591750759941
C 7.689745597196943 7.979403729566982 9.060158992117312
C 7.037503100650038 8.383650363381797 6.567030630413488
C 6.602307614116819 8.343211234164265 8.150897298342327
C 8.857278941125152 10.61366792647021 8.597354531308854
C 8.876605186059045 9.887074454732868 7.55667024655344
C 7.639081564619951 9.00776900664845 10.021158898166162
C 6.187875012058025 9.558627295855603 6.128669662302965
C 5.795660070741521 10.18661846164165 7.143797325370318
C 7.998179281186205 10.335323886420607 9.654350895733087
C 5.986874868569917 9.62005510867676 8.440256608770971
C 6.604496281081012 10.031137402093533 9.665159221604851
