23
Energy = -176.87238571 eV
C 9.0472975968433 5.874068203735604 5.9184864624843785
C 8.161510587188621 8.034920441721061 5.7381669113408424
C 10.329367736128363 4.495237903582809 6.762773158892222
C 10.36140093256638 5.927368852729042 6.493246901966054
C 7.096874152074584 8.929427349301012 5.9941888211702015
C 7.918239037963569 8.486847173142783 7.063943344668148
C 8.05592502878165 6.677195619595117 5.2874279283703975
C 8.941036632162 4.939667110620494 6.972073763072924
C 6.295978031386421 8.420292725205154 8.828487007228306
C 5.323400636082131 9.35306092867137 8.352548093105192
C 6.670597366399517 6.262216232817429 5.24894025945024
C 4.8918615518285975 8.073653685261618 8.847309159770516
C 7.477728323373253 7.8238923342698286 8.308203022361887
C 5.698308682496196 8.579280345775436 5.934533140729636
C 7.623465705889097 6.446004153195034 8.409283356426824
C 4.8152656071300335 8.913837700358439 6.969040173448445
C 5.593004229747376 7.145993552054636 5.626902186541156
C 6.307934703627304 4.991325043231729 5.880839685194737
C 4.34623414659764 7.635274263962162 7.53082258593744
C 7.78187753141254 5.220249167371276 7.902619059517377
C 4.786665636751381 6.562129490626367 6.707159237203101
C 6.559898423186598 4.760882051015571 7.235660898080896
C 5.268971961809063 5.238184803294169 6.872369207621564
