23
Energy = -168.12716674 eV
C 11.718468350301759 10.241598813506064 7.070854178756644
C 10.926710755758185 9.215819288443944 6.842735363751938
C 10.458938989357831 10.584493025819588 7.8156101542468015
C 9.764652711794547 8.975532061222008 9.495438166920955
C 9.390763591577208 6.47983192352559 9.339393758111607
C 9.495251785769296 8.965736321016719 6.7890479212734265
C 9.31252174699752 7.762268813785163 8.92493544447842
C 8.993450709649633 5.282416051877389 9.441102058292174
C 10.103680237233949 10.124292644697165 9.121615282539048
C 9.157731805875674 10.323641285890517 7.143377078122316
C 8.688178513256034 8.055256742830771 7.518978994614003
C 7.945615502628364 4.540832424751882 8.989295437075713
C 6.682637468308588 4.077636201993679 9.500257402496358
C 6.666800593799019 9.553624404625177 7.130933102377674
C 7.25161939226743 8.278086765418289 7.269998995659329
C 6.363175649780422 5.9485687858503145 7.794386552756133
C 7.562780622191106 5.322335194669036 7.763979248715291
C 6.031546482828524 5.033765718856391 8.8309023394539
C 5.040580049588335 7.4848516730891985 6.163325759793293
C 5.837713965786334 8.527131075193392 8.17441993200579
C 4.602022539553188 8.727157212148466 5.9731643592117685
C 6.013575452964965 7.250348782983898 7.234098058845713
C 5.300889727130557 9.42586824844229 6.981752589539705
