24
Energy = -187.91055996 eV
C 9.648715208962658 9.394358216212996 7.367307955653661
C 9.746679919557604 7.950053857356239 7.139584318675715
C 9.18966736000355 9.042702456208412 8.686550718605407
C 8.91302142300185 8.023528721429228 5.947420176464304
C 8.85557274247127 9.484780843688755 6.08026210791315
C 8.082705321120955 9.632582101565697 9.419893784712018
C 9.537091897270015 7.571190831053797 8.511333213826786
C 6.376697989448805 7.951204931246833 10.401313194736794
C 9.148381163635769 6.3457602810682205 8.952385103093112
C 7.24189727438722 8.822033253461305 10.194373349129418
C 7.557964743354099 10.77434474311336 8.832206473139399
C 7.964801941940563 7.048974594403539 5.656118428068968
C 7.185625334379851 6.083337332353469 5.748490802010899
C 5.784113404220139 6.898411671582146 9.83047166101537
C 8.710592742531668 5.162202388939425 8.998848742221822
C 5.5841424321127295 5.986319830660877 8.996217417445003
C 7.396297177220803 11.488740502281177 7.817047539476955
C 8.078811342387281 10.518474964926446 5.635174087150428
C 6.778088361592111 5.155843086038684 6.714365043376082
C 7.638344645046224 4.644162915579823 8.28335036335404
C 7.379518292817799 11.504813572871589 6.478828654572511
C 7.427285976391002 11.625035162126954 5.091100983323373
C 6.369790898284951 5.344023603992537 8.076803845102251
C 7.446140330750691 3.879971710125874 7.066564716520576
