24
Energy = -186.57288984 eV
C 6.299573636613715 10.048834427339427 10.315588030403722
C 6.252979093923021 9.252188083089118 9.016942631247325
C 5.213551628809048 8.561517193363972 8.311962431728173
C 8.48950580092952 9.090465792230262 10.204164819818477
C 5.238651813090481 7.701373838724013 7.420589883327181
C 7.004282609648129 8.594026238518502 10.249891040768217
C 6.1003036535443105 7.0827956455019825 6.505824264991274
C 7.392289912163206 9.622793010077604 8.125356415924202
C 7.75767872659472 9.113932641382275 6.84669373844799
C 7.45881574988781 9.952494626820766 11.040085310582805
C 6.609270454761578 5.780283602977488 6.454305403850213
C 7.216739287887651 7.958983476332597 6.111575124609534
C 8.597024342564913 9.75448341667188 8.90458244495965
C 8.010134673765952 5.761246181563939 6.1556149377480285
C 9.21974494431587 8.947920406448876 6.848188506046058
C 8.303400226094341 7.143143085869716 5.714698704328137
C 9.655139790549175 8.197183501036609 10.261624929852728
C 9.718024008521946 9.336922500803901 8.130902274616918
C 9.650243887404107 6.891815279424777 9.811870226654687
C 9.49464582411677 7.65525123045589 6.364143024779658
C 9.06649579664871 5.495370959532932 7.006301731725133
C 10.427293023210495 8.403027459943281 8.90678602694914
C 9.964497060959795 6.602143304226074 7.268875756374904
C 10.42580206663084 7.014853805464145 8.545909936350144
