24
Energy = -181.72004578 eV
C 10.066648172128884 7.228612433949087 6.645363000089092
C 10.1939054943151 7.690959909361102 7.993879231949648
C 8.785247340637083 5.681095896923333 8.0957707681456
C 9.387263172578349 6.8331194084408855 8.84281381318115
C 8.699539402872643 6.433093124514617 6.8121864367883695
C 9.150823425690854 8.392338460482279 6.623174314727971
C 9.529454132619275 9.030578057791104 7.878609006154815
C 8.445233678590725 9.01069679663539 8.851631521854596
C 8.301082863042296 7.633323654621026 9.305251721712766
C 7.181529495032927 9.662795525965793 8.865758735217916
C 7.920920655992149 7.577377066887095 6.522303538488405
C 7.090192766289285 10.790373595405296 4.148979963602207
C 7.007774928072137 5.137975375625913 10.422022762349833
C 7.812548199222368 11.57917109710906 3.4217527033877557
C 7.9528348136621485 4.275301253920078 10.098554209922536
C 6.622659348901274 9.949575438629953 5.031511111853722
C 7.887410495550082 4.849251177396476 8.765397277848372
C 6.270591975761405 9.196708758040637 5.995462059630969
C 6.862677799039497 7.172714392628644 9.137939051320176
C 6.115573887786726 6.082690565487482 9.977835751073892
C 5.889748969612636 9.5635556102746 9.029166842397432
C 6.637459847663404 5.76635958133193 8.667831765666573
C 6.628952867241059 8.242583440972092 6.894333728788963
C 6.268027828089507 8.306564434482569 8.322891184092526
