24
Energy = -178.068358 eV
C 8.732072144662906 6.671954194403193 5.132749258259818
C 10.33848609133808 7.050288124831859 7.714830983280785
C 8.971765435904665 8.814773209576256 6.487275316309199
C 9.479866395158227 8.133696605673165 7.711355148339927
C 8.443840744245056 5.795767007062905 6.17942404987365
C 9.210384132707762 5.378174942237417 7.289701200726921
C 9.014195624208474 7.872921401623644 5.447127928150799
C 10.501566759133093 5.792373960836614 7.7515271040860085
C 7.709684503732647 9.41991101979797 6.779024521054789
C 7.292755657121833 8.867578263557851 8.033896111257699
C 7.884155876377008 5.803190088829357 7.497699923982085
C 8.329396864400723 8.048402398222699 8.586897464360435
C 6.9187007698015615 7.130121298728478 11.743007373064076
C 7.34115804397239 6.898277203595388 8.28746438861003
C 5.7622172774843134 9.08869402872325 5.039248359816485
C 6.641864068497905 9.799955175099997 5.882769165842255
C 6.391126436379992 5.82215126987982 11.429602121204466
C 5.375115729450891 6.500689336866416 10.65615879210048
C 6.24151609660051 7.735361715041277 8.031325441787619
C 5.534921908645341 7.523363246988263 11.666230220935434
C 4.347733114055395 9.298395736981078 5.3887875220392045
C 5.350977296609587 10.221367786506864 6.09521374431873
C 5.035405655913351 7.726219785245923 7.370449720052667
C 4.461344590118261 8.341629380055483 6.4394392980932516
