25
Energy = -196.24420958 eV
C 7.455211004756405 5.77302467727302 3.8103015537702407
C 4.978187904491385 7.367048526305017 4.473866208092074
C 8.235229104075849 6.029927073622275 4.962385152347349
C 3.6947443555805437 8.116999253908496 4.673187823636802
C 5.229493872966842 4.773159977731776 4.740151264845229
C 5.082732956910451 5.97164543543841 3.9929275544781246
C 7.424728028560151 7.068992632781171 4.42827385318259
C 6.188080681483669 5.168339861671369 3.7290106899067044
C 8.5175747468547 6.831597516087164 7.158102053254189
C 3.8868495043654905 7.3966694858930335 5.742968873931465
C 6.334979898498247 7.765589103704057 4.983759319738249
C 5.184188060229498 4.435456650921003 6.086008620259906
C 8.478008700217798 5.672630710257676 6.308201497314165
C 7.804949998707021 8.036366363912377 7.04451108404864
C 4.461627867467188 5.285036212263698 7.074313662859386
C 4.4215753197213115 6.752232292690432 6.841282669371346
C 6.503163058081844 8.029878593846265 6.419471863285459
C 6.423652815051321 4.036398068753664 6.757104819431386
C 6.4257765670973725 6.760571887721686 8.461972808034519
C 5.635431866823211 7.382070239968477 7.3803532414154285
C 7.71884727778471 4.608820794089543 6.881185502625928
C 4.712174428392445 5.053920914373891 8.402471711840056
C 6.858848781503636 4.484334344446068 8.01726192143977
C 6.033041754649838 5.409592175492385 8.803590077798706
C 7.758054545673216 7.236850306791502 8.274489273036734
