25
Energy = -198.88025946 eV
C 5.189278039403673 8.808428541543014 3.56841381923279
C 6.478039846778052 9.018358839029265 3.6833603934584764
C 8.18530087825046 4.3906226701295 5.051164882018819
C 4.111660914757857 8.344579630282915 4.078045922351765
C 8.675239144206875 5.55763019538291 4.776329145210261
C 3.4278454589392657 7.598738145418598 4.886873259887548
C 8.441591654294319 8.0908195089393 5.043966350680571
C 7.6174222770510225 8.771712714094367 4.170570655680856
C 7.417901135558866 3.585978148059372 5.7013816369031725
C 8.804684472578758 6.818264483800697 4.664517339216934
C 3.4402747179031405 6.961977274631626 6.013315914551324
C 5.007718128473369 6.3662396629040785 7.890250017369986
C 3.935761742085084 6.382028060140878 7.03879485356039
C 6.501160945430426 3.1723981893885704 6.498365981745707
C 8.290989858233853 8.1646860556147 6.542503642598266
C 6.054795593068054 7.160936805585593 7.44478432707603
C 5.362362028523286 5.373030102465159 8.997876539278762
C 9.224788066892385 8.131296916704468 7.571280792045649
C 7.010794575883143 7.74966004181527 6.923400083121988
C 8.96053935131144 7.732545179870983 8.78305123900409
C 5.219247015778381 4.101895366387995 8.458820530153417
C 5.727018559010849 3.4200868717417436 7.515723904327456
C 6.267591557990974 5.7544865992059995 9.967474176715639
C 7.301558593682644 6.495783270757211 10.022071466038192
C 8.429911087040093 7.131292369232064 9.791138770897978
