25
Energy = -195.5486199 eV
C 10.651155041672798 9.887018840571027 10.572014916884893
C 9.249171593044904 10.614395438932796 7.582372427431311
C 10.208340668864551 10.118388686128673 11.8802536047129
C 11.80620008047042 9.695547608845718 9.763140927350838
C 9.494144497806674 9.59308891047369 9.75336511082503
C 9.032690437764876 10.042203034401416 12.329759551325647
C 7.98851486737212 10.478572710322371 7.656413869110074
C 9.896463313191196 9.490431933603242 8.32570532987435
C 11.824120657614042 8.277787623723716 7.58493427471063
C 8.213152040637375 9.45255060389108 10.217852756390316
C 7.882836646988647 9.685782445783738 11.628753555232214
C 6.88199178372382 9.815386742302957 8.078428616158455
C 6.459741921372205 9.49349207434731 11.676731416219514
C 11.525833641407223 9.268659082354036 8.487763785113312
C 6.9453219379940885 9.199866384141211 9.432345876582309
C 9.512442659179065 8.21910391489411 7.654995072990023
C 6.956019095644342 8.330789391664913 8.10106669855864
C 10.683528778300392 7.602983136812015 7.068512812158334
C 5.944506159518495 9.184128885152244 10.568878908819118
C 5.9709340643148225 7.276753495018207 7.63705521083886
C 10.261573676776063 6.500873311124068 6.315763543044015
C 8.23705076620928 7.725969666267736 7.573165407138856
C 6.5020236476738225 6.404261288818275 6.9005139982041355
C 9.092364210972342 6.048874527079318 6.181019772153778
C 7.928436255102478 6.534602225312968 6.773814252540867
