25
Energy = -201.49344687 eV
C 10.130245553164546 10.129243186162972 7.345161250656396
C 10.060333140795047 8.745567895346541 7.528314197009527
C 9.096227146511596 10.896002040565927 7.953200041646162
C 8.779963695929263 8.059993082485978 7.799923802671778
C 7.68696951486424 8.884796334775015 8.24901995300299
C 11.111664313839036 10.682208723820741 8.345227788141752
C 7.854581414710862 10.32803572497884 8.327091823357579
C 10.066742005424894 11.46185949278479 8.98183789425726
C 11.016708616449042 8.4265316128019 8.58979473894027
C 9.044335629025616 7.1729389181192404 8.867830052331707
C 11.823517298408355 9.597326721710433 8.9174209272914
C 7.1991235615772045 8.442987726081466 9.59513626008588
C 7.377463971370975 10.727781256455808 9.630461821151066
C 8.182229958040079 7.512434837869869 10.019851380103516
C 12.976754667550017 9.718057143880745 11.465639127512592
C 12.398295575258954 9.722888571242041 10.199063372154217
C 10.265190224345893 7.607337431767972 9.51632152542277
C 6.900586160137489 9.588417526548133 10.395544221156134
C 11.637023392309459 10.153346095864963 11.302094467528974
C 9.653969492681556 11.450815566347652 10.36327436734098
C 8.247612129926972 11.337805711801773 10.617874875957627
C 9.377278746002018 8.06325521134512 10.669535176391143
C 10.278269229334594 10.40504071133451 11.198807370755143
C 8.016315270241943 10.016864948333579 11.239505463091666
C 9.280151890560493 9.330016126033321 11.343620700500663
