26
Energy = -203.22527942 eV
C 9.725158921682981 5.475289847216934 5.94800337865991
C 8.618030619462113 4.910831939540315 9.351989401539218
C 10.905919568557925 6.085141423674968 6.1599665952458675
C 9.435599881022021 5.717869518129985 10.023710974337147
C 7.654042382999972 4.864020815406302 8.508719664075269
C 8.735410850792203 6.164935769177242 6.767943302435376
C 8.019206995092798 8.312095481454625 9.003086810673034
C 9.77555256505693 6.914770981573663 9.832107543576395
C 9.410857851460502 8.18227633026669 9.409024983547058
C 9.702355568732528 7.165983031436773 6.566368501115164
C 7.748423756664453 6.088882651928596 7.751127147628164
C 11.07563000871905 7.445266160651861 6.510124584099887
C 7.230327277252342 7.367874475392908 8.285929064831635
C 7.363603347136054 9.627626096269553 8.934192702096379
C 11.374215057546799 8.989474476282574 8.341171498445776
C 6.110375368564342 9.483409287481201 8.24816094326384
C 11.773049606905229 8.268181472576359 7.402931487410781
C 10.297080822479638 9.344353471450296 9.165004134684702
C 8.33055314889081 10.567591724667901 9.186607427881125
C 3.205554675124393 9.416102680970548 6.281306430267238
C 6.029609685701738 8.016599466445642 7.845137057137475
C 5.148136799384586 10.375748819596522 7.837510394372985
C 4.968990749808937 7.574670699127288 7.072056578434998
C 4.146478272139716 9.990079854874155 7.092539760648906
C 9.588354910463659 10.536008938450454 9.316790311188548
C 4.049060399834677 8.390913475297188 6.663647293781254
