26
Energy = -194.14565132 eV
C 7.829855636913934 10.802014554335013 4.487424588424981
C 8.89093653375621 9.88187161164157 4.529410455314301
C 8.592356755736487 10.788602631195781 6.0352790295207965
C 6.908699008187666 10.47291253388269 5.480627334105842
C 8.731877502619541 9.020544363693253 5.666430244793224
C 7.494508568047678 9.459303332509425 6.308691413623833
C 9.472630178122031 8.113938483258565 6.541785965434184
C 5.4436835330843465 5.70654196224017 7.578699107511564
C 6.191475172544876 6.085016540658913 6.51841420582494
C 7.304989192649808 8.699034322966051 7.597459251073194
C 8.864846902725338 8.293549117362538 7.871217696019561
C 8.619966690177 6.976708211505741 6.9658778165785
C 7.090995733814415 7.191658251669792 7.075293016222779
C 8.523059188830896 5.947357713633809 8.01837113103755
C 6.475719988888341 9.17419539855067 8.710785619527396
C 7.016151758181495 6.113680400661359 8.112672483008572
C 5.309324564282901 7.149022613038652 9.589945771818885
C 9.517319615424842 7.802196774245004 9.107498210272958
C 9.317414024325053 6.313142218091033 9.199954534568977
C 5.655144379024007 8.361371068700207 9.734998359764424
C 6.078732041674603 9.764049186356164 9.820901662700733
C 5.760613371867054 6.046557452062581 8.885460545206634
C 10.750292883921633 7.664147002679127 11.045356067915801
C 10.279850120785577 8.388196005651833 10.090508260851752
C 9.85927779378832 5.660837853751676 10.29019145000318
C 10.548270871356099 6.369909735340363 11.1131706438641
