27
Energy = -211.39867051 eV
C 9.31431313588834 7.163023000722244 6.01273270730857
C 9.498842375917484 7.044953205866724 4.5762582614558385
C 9.306049974803237 5.61554252179713 4.740831074105048
C 9.88460650424954 7.859471121134852 7.095004706468254
C 10.543755142221364 9.094269686716498 6.934119007785843
C 11.217115218470994 10.302928225095831 7.179264242137803
C 8.34811719543446 6.157516671767862 5.706046477311325
C 8.991106543915848 6.684281013895329 9.118095700939227
C 9.437278059032824 7.833164467650101 8.510222996562113
C 10.24001987303445 9.9398831494062 8.105647008534717
C 9.42464487144257 9.221376859209082 8.996114220972617
C 5.329365471148513 8.898678444866354 6.78691462340625
C 8.443382712697533 5.573470624602914 9.32942153616133
C 7.4737643595599 4.792242373486306 8.874556806791267
C 6.726477350215881 10.6322000673949 7.773558754887301
C 8.189940348943624 9.750696125134922 9.544253076729344
C 7.3105484081257135 9.059285966149183 10.383060452921619
C 6.300859201531558 5.2260658388885926 7.038416463809962
C 5.824527136847977 10.02761124308022 6.993275229153229
C 6.597982433894658 4.352914348651596 8.072547700824968
C 7.557702443106319 10.691391256840893 8.706736784651772
C 6.96391479211855 5.9891640501467105 6.068413618161587
C 4.865601035406722 7.479457831826687 8.573721636437837
C 5.781943925750801 6.472005805517567 6.638145687430334
C 6.284210005212633 8.349255063176265 10.338629572894643
C 5.073368880016989 7.586069337805356 7.18869184842355
C 5.254366524494127 7.748024420085187 9.729728666885658
