27
Energy = -212.60633951 eV
C 10.630037426380143 6.585708996834593 9.7421199243193
C 9.435506794915403 6.1981210244814005 9.165562360830581
C 11.394481372924826 7.730501751999722 9.377198149983101
C 8.259950609711057 5.569817088552467 9.652009409014099
C 7.029252877437036 5.7301545089682895 9.50092730968178
C 11.111935462049715 8.206468562343861 8.042379235301171
C 10.210309778497225 7.502084874816882 7.189639725905892
C 11.976908959036633 8.62873155645049 10.279346087940795
C 9.166533418409113 6.852866471931702 7.880797018983009
C 9.6544220099267 8.699949165743543 6.479769060740069
C 5.993165431770887 6.458100186758111 9.067156386424042
C 8.01717762659373 7.577094316067955 7.456957248182614
C 10.352992887971277 9.405637527829157 7.520303410116679
C 11.992150499058157 9.798663756882558 10.709471542684742
C 5.590267426987529 7.524070926269911 8.554004638409596
C 9.503391707028246 10.278888006481765 8.288544372060892
C 7.351215743021918 8.97076678577535 7.739809152721636
C 8.216715554323793 8.569889472299804 6.519003961452591
C 11.416655750646484 11.003260632148748 10.710051255552946
C 9.392451138081569 11.38406500363541 9.341244684015141
C 5.859403043323527 8.833264707643918 8.133082589960274
C 8.139710547084983 10.061019581309074 8.389759025206573
C 10.395544927591951 11.573477789332465 10.245745272825436
C 7.9402095721288815 11.262629832795646 9.274699827891968
C 5.232358945238264 9.966589394286643 8.62229259599709
C 6.708458262657529 11.745674825615609 9.644744757762647
C 5.718429980395978 11.00180564899896 9.178447197360828
