27
Energy = -215.43726755 eV
C 10.006413054273274 9.861512198730843 7.109292429814442
C 10.632644700422063 10.573872733880478 8.16601192132588
C 10.846135304531535 10.145204602525013 9.318006777600093
C 10.577270505300847 8.849976811859182 9.836598473605655
C 7.918002549675118 11.330590657325995 6.281076650487385
C 8.940564439322753 10.246481177509013 6.267116347939545
C 10.089101215642883 8.433466555523458 7.394189457121162
C 9.820735646315864 8.464466580299936 10.954787951046173
C 10.546669644612523 7.942758602204883 8.666854199720198
C 6.854041124848927 10.331396323654044 6.06574096146588
C 5.698380980608349 9.960773495352448 6.6553614444762585
C 7.936581699271832 9.303789282776028 5.9309006452971555
C 9.08915477839743 7.308987058395154 11.027041169652144
C 10.02695777596211 6.6270549442937075 8.84711737200838
C 9.06742435380256 7.467801870198166 6.922542269119904
C 7.840316868585573 8.00930765043529 6.411679613917453
C 5.63839374019534 8.738292550957732 7.3578673055149135
C 7.6405597337388755 6.951328124645938 10.783128267810884
C 9.033037403902785 6.3716451844116495 7.798723314502137
C 9.404987852351917 6.291125022229628 10.032732258800754
C 5.187667280037206 8.694662534790861 8.670872031398083
C 6.587681695468425 7.597280461308604 7.016255694639126
C 5.726234731947498 8.207932798483945 9.75060658228608
C 6.534986562622485 7.740294016110716 10.626615079113877
C 6.612093774332145 6.475663547929186 7.804612935157355
C 7.765890108670232 5.954832090785734 8.398534440659297
C 8.01370969444341 5.870943477406809 9.823637375909225
