27
Energy = -214.37014469 eV
C 5.7300401119322 6.854735782050166 9.975536962032603
C 7.238778894127217 5.595062837990667 5.597324676003279
C 6.025571851492134 6.286875510282815 5.35635490060341
C 5.704196354392675 7.627411288493928 5.759000681417968
C 6.308163651093683 8.692593452859983 5.117322317813703
C 7.308417424315884 9.395117826669159 4.811818863586172
C 8.553656889883975 8.94619561803894 5.337086959079729
C 9.445226247663657 8.11822330105739 4.612508690728779
C 9.120456450608065 6.91584549431325 4.8557114795281
C 8.60598222727553 5.9878103929362805 5.725601877227219
C 6.276754824885226 5.9458505658099385 9.105535575534613
C 5.36313228966114 8.04533783406456 10.219114724231199
C 6.182237076657738 5.482428645679886 6.5287785120552995
C 5.882451463433634 6.216319329741964 7.708439802249668
C 5.630465850758845 7.564303817933133 7.248136322496107
C 6.227271635007255 8.710990122565335 8.022250397476753
C 7.386613981940454 8.993874152647635 7.41601648749735
C 8.557824638273118 8.752430274552884 6.8086021863204484
C 9.19402989661103 7.628035854105342 7.583166645813885
C 8.844635608227117 6.337418233622856 9.475040848118434
C 7.657036919585316 5.602210670402667 9.233869600750726
C 8.717272946039856 5.527772257975089 8.30251701251736
C 7.452451168998123 9.398128161809051 10.019202787665403
C 6.223898195480081 8.904761266223948 9.4940826771059
C 8.47668432580778 8.731857267130687 9.71370916366382
C 9.118125939180956 7.688419368568775 9.07226659113759
C 8.990565102718978 6.271932638524808 7.122945223394989
