28
Energy = -223.81628636 eV
C 5.771179766788586 7.5614813288687115 9.885892165056251
C 8.253164596713608 5.3953257653902025 7.376942376610646
C 6.460229758597049 7.792518242639339 4.958055565464876
C 8.981251803920323 5.958572210301554 6.263183952936357
C 9.99362468178537 7.727698797165043 7.697770391089274
C 8.790054000164684 5.730296704968681 8.641971270460969
C 6.991252604871945 10.527561301593844 6.798757039467594
C 6.106475160948702 5.743642918225121 6.084429387373759
C 6.047234308488167 5.853233428845127 8.405795748084316
C 9.603133861496495 7.30894035268822 6.3910899402969035
C 8.052394490480943 6.389122006779953 9.676736740829334
C 5.777669308530104 10.047425732301512 8.978188532128804
C 9.16248985986494 7.443650690068709 9.784984295047012
C 8.78101838351514 7.772709981723934 5.2686736582176446
C 5.253950039212922 7.831566854029229 5.678701664622769
C 4.772668619493108 7.652129416089375 8.869299603790015
C 9.078785331569774 8.30197970198665 8.614876940051444
C 5.055794252585691 6.667723433551054 6.458180920591449
C 8.263584322816126 6.393927127029399 5.1045351517827235
C 9.932828490475442 6.679448283086711 8.750590459211061
C 6.804328005449307 5.3530413042070295 7.2744130474053
C 6.649486260877656 6.465471858067341 9.584310053876356
C 6.891130873015082 6.393307437727056 5.04625704172951
C 5.349512910081971 8.816166800928118 9.431307662544226
C 6.364428197198977 10.506778565231327 7.979137252039988
C 4.9358365641644975 6.644162787618439 7.905235736615329
C 7.466797223739103 9.82787258139725 5.8865849990376695
C 7.6481803384390155 8.64868627046026 5.169371098402673
