28
Energy = -222.33136794 eV
C 8.148901815142551 4.057596380351621 7.4856917517729835
C 9.386852144857274 4.806871553806524 7.522814988386998
C 7.321305879074178 4.443936303642272 8.606481902958153
C 9.387249451418604 5.4469395769094255 6.2487713786638714
C 8.057978551549049 5.346994062019327 9.41845274553187
C 6.373480300493921 5.171567435601152 7.704085672076593
C 9.20280537850107 5.7901401729672655 8.581150557008206
C 7.208976000835656 4.762124212871454 6.552850315415791
C 8.077333839849977 5.562587249614627 5.742830160647694
C 5.756941801459194 6.401977661686156 8.052935494037621
C 7.42028678353639 6.4626468066448925 9.95523677072134
C 6.235134917504095 6.983498703161301 9.3033534507406
C 8.952870802009649 6.728337536491518 5.968619443220774
C 5.230899645360748 7.341746560017533 5.629837774371513
C 8.104043067884986 8.884506083930978 6.574359457826756
C 8.840345256999106 7.770457681896336 6.970341845508329
C 6.221347958759853 8.047243655253128 4.839148042507714
C 8.016257338871753 7.654783651545344 9.361540287769737
C 9.003693636809349 7.223898374615401 8.355005560220135
C 5.259752282284847 7.38049174118621 7.1005652468379425
C 6.7545119000396685 8.357141259120052 9.18628665336933
C 7.189534477171085 8.955343910863682 5.359393885839564
C 4.836856426218236 8.570605724182824 5.055523820459334
C 7.218321292536003 9.80711106387543 7.244257603122336
C 6.3767311557367075 9.95287607204345 6.005180866040757
C 5.1698824411760365 8.790934453838638 7.38404228068316
C 6.34425503109765 9.227501638884114 8.214566079956596
C 5.021781855127811 9.523956432466775 6.132637624331271
