28
Energy = -216.91596606 eV
C 3.3876206163795994 5.828357598459815 8.477690589998113
C 9.806293742563419 7.569247928416197 10.198096729671397
C 9.104564611365287 10.770000924621916 7.206332678383941
C 10.615532056553171 6.327755761632325 7.627128004444122
C 9.522654770490739 8.2040679349352 6.813017104688873
C 3.994734169822554 8.020159561799922 8.041301777649494
C 8.027824330162503 11.470622036640723 6.965603520208681
C 5.563321631908135 7.742593388414723 5.888769273499966
C 3.5323590555896063 8.442372140412443 9.308042821367522
C 10.291256120734513 8.195074856600577 9.19600539157528
C 4.454977728096162 6.078953330171567 6.5492300273319275
C 8.855669922684253 9.428415071149495 6.689206111644305
C 7.475768073221683 9.462739554566229 6.157526993516395
C 3.8244845303518984 5.197266019065702 7.439929380392362
C 9.684534076306981 5.250861962282147 7.933324735686637
C 7.026867505930622 10.798260915348388 6.385629467883965
C 9.015080188344182 5.57262220443616 10.091759633452622
C 9.700458135672282 5.8740697486271305 6.662167778189138
C 9.226892967186911 6.5968086261262995 10.901265617512973
C 7.695839945408371 7.034126210715406 5.6014506325245135
C 3.393734162208865 7.068296765856815 8.963859673170873
C 8.976621059343122 7.0193711941644015 6.126372903120632
C 6.859667729479205 8.247149692170314 5.790215281613501
C 10.403925855010922 7.766430000581822 7.870773172701054
C 5.5589339898738945 6.2163823578140045 5.630483528505588
C 4.507394201681607 7.563623476064985 6.830948564897281
C 6.844308291168126 5.883366758807414 5.412722790184156
C 9.053789630026062 4.80051968765457 9.058710438990767
