28
Energy = -213.42645777 eV
C 9.688785055786138 8.393770574473397 8.86630873574259
C 10.869992023816554 7.687266776798439 9.31624553520802
C 10.464310365949489 6.301417432927044 9.28601685071067
C 9.448210167793352 9.776521177018509 8.978803493344376
C 10.545983563921638 10.51183194539997 9.532986130190062
C 11.89510826035292 8.543265985028258 9.686150630445566
C 9.178518593078115 6.096390658868752 8.851689038084933
C 6.747126853963767 7.5178875760486035 5.16250259304109
C 11.620325192453793 9.823539649585788 9.755875195606487
C 7.727508850778556 7.912035705396598 7.535853810393332
C 6.857474777492373 7.0876517576686915 6.618556155434173
C 7.973696200279181 6.971768309421527 4.523141590175358
C 8.185275760537253 5.136198303781745 9.137150065735174
C 8.738043305598733 7.4409592610320185 8.345888795495169
C 7.525250600343233 6.092278264930589 5.631895402251936
C 5.544320866005042 6.294203528084189 8.706898665066928
C 5.69690430758354 6.49044668335703 7.3425005883136185
C 7.354428183332073 9.290000295178237 7.689947084546353
C 6.678851783051639 6.21919090623014 4.425007924960553
C 7.00710437543142 4.770039717965075 9.235346045390822
C 6.125186218514648 9.675335615273017 7.16641305279576
C 8.105381982154421 10.194585610707058 8.623111342448754
C 5.5685615622204185 5.141823819485648 7.650359244493944
C 5.5705710002185596 4.81760020874319 9.046874125245404
C 5.464978977433825 10.66991751837054 7.679573825160581
C 7.42797170991866 11.25119649918875 9.193080335027346
C 4.926077808905188 11.672094372978988 8.428612385600088
C 6.208587508263164 11.557901767276784 8.903150888868998
