28
Energy = -214.57723007 eV
C 9.907444233932317 6.39103101870624 10.835398657774704
C 10.635544491679708 11.743261610163684 4.475016720247518
C 10.369609061568717 10.780422643858085 5.410897404499811
C 10.14542886010434 7.324965587315901 11.98873944803833
C 9.915181190498418 7.4603578102637265 9.795333405120427
C 9.714128234417773 8.312728803969144 11.0214426422691
C 8.830795115364749 5.581147876799715 11.228339780285856
C 9.511432912219451 11.091479688607613 4.0195770327731415
C 8.679330265765126 9.01031158232186 6.496905180410399
C 9.556189655332084 9.644591264351156 5.555185596960598
C 8.147158947742458 9.320665284382972 9.008528831602115
C 8.861061437680371 9.818784210494877 4.231495645552331
C 8.394310672261863 8.780746867117147 11.354613619072982
C 9.181370200258346 7.170121656286215 12.986479948640406
C 8.77576431345834 8.76875090182348 7.94847392442324
C 8.021587135694157 8.00357509416506 12.534014699166093
C 7.591937633553734 8.602193063936019 5.705891145421591
C 6.107789997245244 8.577283870800233 5.624765880872488
C 7.561149640009496 9.138944556914213 10.240228975511691
C 9.485628444208803 7.700400100852344 8.552795277384591
C 8.24453421856073 6.1272460231503745 12.410273401545313
C 6.165040091864264 9.322672180663382 4.399922689136197
C 7.6259756552204445 9.239388736247006 4.354885992264462
C 5.346486546994406 8.60678978255817 9.151427745487162
C 7.035299612500042 6.961137680903747 12.296121660388255
C 6.1915215592118304 8.888192964155639 10.021588030354827
C 5.253769289619113 8.36343833657203 6.662986616616004
C 4.990098011867186 8.409492300924882 7.889451080915707
