28
Energy = -221.0480006 eV
C 10.93908552379279 7.698408599927091 12.013050907355883
C 11.745011596213718 6.7252652472496095 8.837361794628842
C 10.002835360001729 8.611679192395274 11.439465684378227
C 10.459721055032107 6.95108578109119 9.392561269536387
C 11.853539663071299 6.9223890950390485 7.555202311342722
C 10.432844503234644 7.495917607627907 10.72015355745214
C 9.128740488112047 9.636428797080944 11.294852121573868
C 9.350301248019267 6.9098110132628685 8.479479479145414
C 11.708581790815396 7.345558886093155 6.333039302585049
C 7.861277813434078 6.854297032435232 8.467383594592338
C 6.871081022847294 7.945416923747397 10.30033514186573
C 8.110558519217282 10.27151923461812 10.975194831472333
C 9.363486304229362 7.275886818668929 7.0751912887797515
C 10.33721038048653 7.7106384650593185 6.1237041270437365
C 6.250942941680254 9.169529115286917 9.946209710933282
C 7.009257378469544 10.402096135023754 10.102223503922838
C 7.0241194935505415 11.358626986745405 9.10009895498508
C 9.69687435967087 8.57432502472059 5.206834474521712
C 7.901214811259415 7.427655428922151 7.0935908095880595
C 6.716954483387812 7.0041407837064495 9.25525908422736
C 7.0637044851550534 11.207610866000538 7.82106858179904
C 5.5627120062361 7.47436404908515 8.441110149167041
C 5.452264011546913 8.843187406043565 8.76100435006421
C 8.699718701309564 9.322885393145286 5.154701671651991
C 7.058313014639651 8.457242488315057 6.673194818746342
C 5.821831406696022 8.420504103634041 7.425463035812861
C 7.384305772518742 10.856620834824966 6.613889229796658
C 7.615885265609924 9.664943757087459 5.988514938798457
