28
Energy = -224.02161092 eV
C 9.866433504107372 5.926543752754854 7.484024531551432
C 9.453025485951668 6.653383123833545 8.610020705406392
C 9.692009158268032 7.342385858553005 7.358746707806926
C 8.70026825991119 5.238315347757827 6.981146905792309
C 8.105009349333924 6.326363428206737 9.037045073108736
C 8.904496627638974 7.917570939581292 6.348191394962263
C 8.011226221798896 8.601426140844698 8.904919035224061
C 8.703137707814466 6.9968470120567625 5.222656604269971
C 7.682628673737142 8.7582223050714 6.493471805546489
C 8.34582963482516 5.55158973998755 5.661022071206282
C 7.64796559746652 5.3429279304063195 8.028884734258398
C 7.200164480253309 9.026982756762077 7.838419165949819
C 7.381656062639875 7.480189696260152 9.544547199503635
C 7.588708411973153 7.447966337082149 4.517872736081138
C 7.0102253661522544 5.317216404743992 5.217140029234825
C 6.647739325546117 6.359495247054923 4.2729972828426925
C 5.851793151090998 8.696893376041466 8.344381318672204
C 6.262817714910393 5.144925439569395 7.617770003000229
C 6.8695498344959365 8.462826408008668 5.333991804825316
C 5.252657840459356 5.549920853770478 8.512900776483653
C 5.953846133145656 5.2014952109154144 6.205855865747194
C 5.991558102309206 7.760130027850232 9.497247318958598
C 5.494608644621036 8.034015073809998 5.295469392438292
C 5.347212523020092 6.787917216634987 4.506271060707015
C 5.069998995201146 6.844750945079182 8.83868804049861
C 4.750601383959241 7.491584034453876 6.421429091950386
C 4.928469324564592 6.171301414165618 5.7771813735971405
C 4.865037430806085 7.8420266072775595 7.746404994847569
