28
Energy = -211.53721009 eV
C 8.7720939206733 6.474379651102409 4.345838880768629
C 3.0282624177163724 10.712193475555779 5.885057432735299
C 4.175674018520242 11.408391557775623 6.413344796553661
C 9.729665366437029 5.898338919754255 4.921024891007144
C 7.932125195311999 7.395719679294448 4.855164922801826
C 5.112772614218532 10.619277805931384 7.136405078929562
C 9.039100936260159 9.17961587611927 7.659694797890799
C 3.9813596526149597 9.916659889503409 6.645835853258095
C 10.455825198795763 5.82415779082189 6.038395695944239
C 10.460632357407878 6.170382611459726 7.240426945153472
C 7.5532609911902355 8.11499775243817 5.808108066237626
C 10.127151548324752 6.833692228011549 8.419527863880646
C 9.838743566953278 8.278236734729811 8.543253452035655
C 7.738390670028411 8.631129849659322 7.068995649993703
C 5.794990542633977 3.8257926711761363 7.655918185082048
C 7.521614197930812 11.25868266940324 7.661092542362932
C 7.48754329613961 4.663837268260821 9.201023473432281
C 6.3392970687065615 10.498240485995968 7.7232989388867175
C 7.190922899144259 3.936331778610149 8.001791021199862
C 8.653912634890556 10.622869474274626 8.195365421168253
C 6.953872744128417 9.178872370920386 8.129743000201412
C 6.089499995980027 4.471816247328194 8.901342349742386
C 9.489587904410504 6.308135595251326 9.563816277692814
C 8.207772743850573 9.531898618036331 9.050201513964138
C 8.30638372429293 5.490767002289275 9.896439266348565
C 9.161582915383963 8.617192744445601 9.759731865910465
C 7.912458905330517 6.559949196760097 10.83761202607143
C 8.96050635853367 7.406187819968597 10.430188914082956
