28
Energy = -218.31723929 eV
C 9.335988925656292 7.028752396181135 7.342702108977488
C 9.510060957807651 9.957094777235474 10.657065770267778
C 7.438934728286186 10.134150871950705 10.80632340295474
C 6.774524044009154 7.955310215470494 8.799111666190187
C 6.30081095933835 9.834786492683644 10.091299475555664
C 7.168689267371975 8.320520357853136 7.306461400170125
C 10.070570941248395 7.596035457653843 6.271474870090818
C 7.663574296827601 11.789351569558644 8.068084311165528
C 10.197723269159608 9.641152559615765 9.450273939448362
C 9.283696382117778 9.788102399047267 7.2865983327902715
C 9.722358420723701 7.169477063156063 8.821462343101125
C 8.54035573468758 11.016028102503252 10.358062896478089
C 5.708990176736207 8.339785194688154 7.909930977024877
C 8.257485563466895 7.795026608831095 10.83521589753488
C 6.981144222945791 3.566822490787881 5.370066812701576
C 7.279746361728402 10.868905246143274 7.291931474121548
C 5.866805351318683 9.250667991460357 9.02898640003862
C 8.827628924132503 6.95287407956434 9.84688672408047
C 9.626123295972498 10.562364122627333 8.434559391197887
C 7.857339122289279 7.0241175519202805 6.89250428272382
C 8.411137834534998 9.110684128351155 11.22332518314034
C 8.64532146752377 11.460929331607456 9.011904707114505
C 10.405238602361234 8.407417967188158 8.761815416152592
C 10.146363304962016 8.617682111027788 7.274334914610697
C 7.427999995257916 7.241913366266087 9.805935124048132
C 7.110098376044124 4.763538443912547 5.849617040977065
C 7.86558357478613 9.640071106007287 6.993351655462084
C 7.393945081055924 5.912435991916967 6.375343154932865
