31
Energy = -240.8761679 eV
C 11.494636371489944 9.07753325873319 6.785046283271807
C 9.148377806763571 4.272005400217824 7.493382969067543
C 11.402520742026311 7.947855976760751 7.687289131202272
C 10.663320523152468 7.9771599859009035 6.480741417285123
C 8.717368883926932 5.339765824709652 8.062292547842564
C 11.129956929090199 10.304128293985594 7.314109475879171
C 8.127370162705907 9.875584241391442 4.9188460193815695
C 10.965991608816365 8.514717235913645 8.927030739167524
C 9.376474967173582 8.146853766882048 5.919239392420076
C 8.003883877695785 6.413203479904609 8.466041757621266
C 9.234709538115577 9.293185473851077 5.07432862471812
C 10.624788201026075 9.953050961856883 8.577222194886936
C 8.73753451846383 7.808160981738312 10.200259871218703
C 10.040996640124732 8.078300052101865 9.821862693773697
C 7.63077992019292 5.87251806266214 11.090378481348706
C 7.668265307559704 6.750212864498482 9.925155955398093
C 7.458601888366351 7.489452120647366 7.651775004530059
C 7.974602193125442 8.090636591907243 6.475456674729519
C 6.743774473306118 6.155500125272407 11.94266788949155
C 9.391391781675487 10.286023033825941 9.304912795423059
C 9.070937623817816 9.134074830006744 10.08467474417836
C 5.520957658130466 7.707528061534313 10.853205739545212
C 6.290714808443019 7.611204874863655 9.72479501058991
C 6.359322028628937 8.098144743780004 8.428369653033727
C 8.32175822535961 11.042560241730559 8.84886020588051
C 7.178310582680487 11.317960772725126 8.449415330924237
C 7.265361654479015 9.281800270461993 5.85773899019985
C 5.796570217674381 7.107679331865238 11.959809487475463
C 5.778160999916941 9.25733967987548 7.861537921059305
C 6.215644354003629 9.789047299267029 6.626472661306722
C 6.212925571937141 10.598970661835187 7.804130808274577
