31
Energy = -246.48801487 eV
C 5.112524297002926 7.599554030424632 6.421057475772472
C 6.381137730486363 6.893399399920255 4.336965788500192
C 10.995076939278405 8.808179207234287 9.00045184129865
C 7.189247963195513 9.925181818151701 7.5425795429456475
C 5.325508931947618 8.085476091905162 7.715240055632439
C 4.825990215487993 6.788698966250212 11.285869894455246
C 10.61697407105157 8.445492496875845 4.8813511293124074
C 8.479583386158092 10.418172220202301 7.277535114951504
C 2.8328004345869995 6.282119092843062 9.965069945916772
C 9.91856593134734 7.545461424473018 4.055115607741051
C 3.5115411901277094 6.855016356256012 8.838374972516991
C 10.419716595766534 10.04087643123701 8.885889525877277
C 10.664625824299112 7.664045676621155 9.898161473279654
C 9.844511187462354 9.548407173427108 5.2916438325264
C 12.160078401496143 8.047053251594917 6.9002125101153045
C 12.018058702738168 7.240993568541084 9.473789743708336
C 9.087073000848685 10.183824996416405 6.032413232715348
C 8.163930152343518 7.4403205100181475 10.375494636130624
C 11.914673535700693 8.002788977010882 8.248372291858669
C 9.459864502924122 7.422583554267187 10.348281421611768
C 8.814848958689756 7.0892358824865065 3.6989878181204094
C 4.783168306996493 7.445183194375026 8.87274675433999
C 6.28173690889135 9.117369259208004 7.753745221126698
C 2.2381941342945133 6.261783825860316 8.672974885359416
C 9.422584914197092 10.503668007620456 8.291962124079735
C 5.54506740709852 7.1996176746176 5.323251102183141
C 3.6526217737259308 6.366702928854992 11.012993061924421
C 5.547172252050696 7.3038769799036665 10.152799787238177
C 6.906865341701849 7.459922989267432 10.238200868835767
C 11.656897883330759 8.160328369472182 5.765771769408124
C 7.517292750411776 6.8192695455876695 3.8184128576017864
