31
Energy = -220.46712139 eV
C 11.90065224338997 7.026321133864424 7.68440167572153
C 11.229797558058575 6.98526496614674 8.90349020763136
C 9.409972543414172 6.851047997744245 6.519181809196417
C 10.537843700237726 7.34963421452579 6.9078161244056435
C 11.430684454384501 8.354543271294185 7.217848226844481
C 8.316209756062737 7.165135931419242 5.768397861861887
C 11.492898892664241 10.749674123757304 7.855569975744701
C 9.91746921608493 7.33630684555201 9.127456168889774
C 9.04067371756303 6.531245250371492 9.842445168457546
C 8.16599578265392 8.348004818428885 4.853444761866138
C 10.250072119731428 10.537822557568772 7.777643589750907
C 9.623406324464952 7.240665583802636 11.09477914738346
C 6.821320729017701 6.966833325299295 5.785899168090195
C 7.706024072279208 5.9853195320260335 9.846645911199566
C 6.671141581310435 8.10556184407356 5.003612699588877
C 6.559609025107008 6.6146133466447425 9.334108933280213
C 8.953103936439224 10.533744252620648 7.992314038177326
C 8.994985993750369 8.151426628990956 10.249226440929329
C 6.885431734632213 6.4338784651671785 11.007957301748196
C 8.966552131183319 9.386361624360207 4.6408399347518285
C 6.182996246591336 8.14887346910558 6.4397970238283495
C 5.547148675057532 6.687303196463835 10.498439294665296
C 7.219503453238262 8.609122009935907 7.43939160553215
C 7.711649130560816 9.874027640000167 7.756074629952395
C 7.583685825949092 8.698474535919038 10.08150950627589
C 7.918392640659388 10.302540836017222 9.108979550095807
C 6.706655199350475 7.950748297868046 11.20743527790977
C 6.725891603550879 8.158161136942237 8.90265932916372
C 5.209205574357565 10.16348994675514 7.882651335217419
C 5.140394285157491 8.853493339401254 7.180185336898624
C 5.454658692043324 8.949256077930231 8.55005497469566
