31
Energy = -228.87368407 eV
C 6.420256575718013 13.151150465786683 9.153762235113245
C 5.683561236632038 7.635475654564177 7.8846769393122305
C 6.027265041215044 8.582362467495509 7.080953885557105
C 7.185522336694074 6.22345257921559 9.211715770417632
C 11.504169826090832 13.258014669465467 7.121915304698037
C 7.210440292742245 4.4052423969521906 7.4514731330948925
C 10.716590119227481 10.271073890900649 9.333770226253229
C 11.69328022426618 12.466394186720217 8.12568511497914
C 6.907533996189176 8.78778456774391 10.997736675658874
C 10.003573474450858 8.51087886229022 8.238645350736665
C 10.867825617167323 5.409360045356176 10.532655341002666
C 8.057729314048725 9.335201266235929 7.24520452517649
C 11.555268333553544 11.254521699120616 8.676764501057988
C 9.539265378311532 5.821322177023894 10.24846043101612
C 7.501990574956614 10.981317420573818 9.142992307657385
C 8.006520748215964 9.621523285147536 8.899280060758151
C 10.279679401323358 6.7036557335089775 11.090882064384838
C 7.554097149005706 12.329816994557792 8.736104122128008
C 8.37364526499939 5.633609592445961 9.611655014856462
C 6.901511737023917 8.865971442017191 12.281392197502491
C 7.137015964797106 8.583343035434117 9.692668656607017
C 11.642709068919617 6.289937690666294 11.373654882827719
C 6.947577896199205 9.246898613287541 6.417970035358447
C 9.295723498080203 8.718333190000624 6.9851028019322765
C 11.79494219404249 9.86116805175119 8.489652579644359
C 6.555846277306865 7.403632948715131 8.972502249221845
C 9.532943853215006 9.44258310058337 9.164949333038507
C 10.613920081751205 8.960165900100995 6.472830137007554
C 7.612603763459833 4.931419567220108 8.595102017932843
C 6.371929787715407 11.739537954697285 9.504945619607248
C 11.362232048040315 8.78121641504952 7.66706490202168
