32
Energy = -249.63464314 eV
C 7.347041132603873 7.951903643128736 4.044812837779335
C 6.839618471470334 7.3258932725281625 3.0193662785779005
C 3.356367933687264 12.943129036942182 7.962374142562881
C 10.886455322540275 6.564188031830087 8.704244802383378
C 9.119467967336833 8.433432584098373 9.589363224158449
C 6.130794415342842 9.732589299278658 10.758967673372247
C 10.284852101000698 7.437867451672724 9.752722476683683
C 11.672016499110876 10.739888558236338 9.1309177570273
C 5.258864745586011 10.520957185402727 10.295446801887868
C 8.932739438177865 9.325500546313018 7.236248830965671
C 3.8782457206871683 12.153793856950628 8.863124969043534
C 11.982846730980313 7.412428798769713 9.01294611894605
C 6.359774744910419 6.646211344808043 2.0316949623745733
C 10.332395570755391 5.750653855763246 7.769367158882378
C 8.386617596348096 8.967612637885411 6.155508858453852
C 7.277223573207935 9.012819557820247 10.525412974631834
C 11.554903330167068 7.8267637339388605 10.33094644400922
C 7.902032997307329 5.329434119538293 7.2243989977036644
C 7.57920961776956 8.075431105575566 9.459786498801508
C 8.640788114986295 9.095226437803454 10.910525903871168
C 9.552372327725372 9.344164038786284 11.899615208260263
C 10.789753813496567 9.208930921103564 12.000876916574542
C 7.187404156692861 6.191465540281224 7.895909802537221
C 12.839051892979983 9.779710753404062 10.854507869367083
C 9.220078149902376 5.335310379445432 7.343791069695166
C 7.857572594659316 8.527543654460782 5.05383523430657
C 6.969532193710918 7.170585333914853 8.684622575832385
C 4.49473783979033 11.352176172628461 9.660181134736007
C 9.51314502783424 9.464138679586078 8.446984053609249
C 12.730471202512643 10.677436043821828 9.987600083706791
C 10.58724675157452 10.317964732082464 8.69962885827195
C 11.921298881364233 8.790769454722362 11.29689270396938
