32
Energy = -245.98642049 eV
C 7.6278529220500735 10.48321843375527 12.366910145441265
C 8.555947119363118 10.997200126688975 11.558783431060583
C 9.570144545541444 11.060364570377205 10.793147911840572
C 10.600819806078922 10.133480008544952 7.299351071512402
C 9.939371943617763 10.114096819305235 9.774643645092887
C 10.520429757010833 9.62148383291756 6.116297240857542
C 7.298678834449835 9.251269412066446 12.070227890204302
C 10.485456420712703 10.316740051982737 8.554117501036485
C 5.738729309909699 9.55704618137691 7.708478463222426
C 6.907383571738765 9.091626200293826 7.901923169702157
C 5.049845018909598 9.074114701876365 6.545708386721354
C 8.57658253670416 8.23151525172246 10.835323553359876
C 9.678456553602489 8.819306074597582 5.429369715597548
C 7.701903166802616 8.000483252145289 11.879386051330146
C 5.819996347056001 9.407627987268144 5.425051304348315
C 9.473601806459369 8.800472314265022 10.169446917928514
C 8.24748703776656 9.019901842682282 5.826931806384052
C 7.070662482465333 9.362565297409292 5.204362498630218
C 4.371001645515321 7.846010211614013 6.699731347322449
C 7.885881661787668 8.444301330377122 7.165784979442858
C 4.724501919467101 6.68944930930795 6.980442011087142
C 8.002233855322046 7.023649199746095 7.323106803651847
C 7.016519509163955 6.118773913379988 8.016733537116211
C 5.7396333645379825 5.768934579644037 7.211635142315378
C 8.603334398221092 6.023542550952332 6.54551532213123
C 9.876156449383894 7.464971554883234 5.091173972613498
C 9.439510599372415 6.356540559873729 5.479184584787544
C 6.399089995593715 4.783779422888521 6.545440985000907
C 8.497658271895 4.6568318155197375 9.663224527959967
C 9.137826638234095 4.366899732871605 10.744249286397672
C 7.80646505618211 4.972040040036841 8.580131128223263
C 7.764336269365841 4.862466342725917 7.109473556697469
