32
Energy = -252.04522885 eV
C 6.914694323885882 5.502478871568386 4.7381459437748745
C 11.067868000831666 7.439877261052857 8.868815365386855
C 10.41253834820603 5.696050481142913 5.623295183799108
C 3.7728225929191437 5.192633911381059 8.457831496652908
C 3.805088246341083 6.489590445476733 8.971121637799646
C 4.462788968607415 7.718898192182219 11.094948226965533
C 8.605042153230725 9.741679922143193 10.451532516554188
C 5.838906940344002 5.9170186686476445 5.495629375369675
C 5.0036660292532 5.038806427367292 6.225010588463732
C 10.674723449502956 10.072492179840983 3.6039122834901076
C 9.548955865546302 9.500450537064165 9.44487045383269
C 8.90645574995818 9.750602695859326 5.5484410315611035
C 9.438084237760936 5.4034232724596 4.871735716775326
C 5.364068232305172 8.539329537463168 11.642725959913083
C 4.883753860564388 7.64116038573287 6.935036220946938
C 10.424688906457696 8.422061565791546 9.582117665307678
C 9.789904078164 9.971260561842957 4.52251478311511
C 6.758414989061721 8.24591088121624 5.513169867711195
C 5.774435716897657 7.343950465158355 5.887191489201527
C 9.196180372316686 10.053681225823098 6.908613368020535
C 6.430194789159241 9.18037800576272 11.611489312964125
C 11.239119675832846 6.761982590195333 7.752477945531314
C 4.34027163950921 4.897516857628549 7.280737024988234
C 7.712276588275722 9.02359621240238 5.405862635292848
C 8.155563115522755 5.368045125739215 4.5967038978018095
C 11.068182511527558 6.178291218730086 6.642771806252019
C 4.194559202913316 7.393979076301665 7.926184489125334
C 7.612671628007569 9.6337682001308 11.184226404968042
C 9.368113989142861 9.96299529280432 8.120679147759224
C 10.744810415240696 7.308406405383062 10.40776920350806
C 10.876012603832619 6.304984092547065 11.232067676759696
C 3.8943490221430235 6.969853881549809 10.28419349627226
