32
Energy = -242.16477659 eV
C 5.637538932051816 10.170926699117658 10.990992844720816
C 10.586730862302405 7.786198935758175 7.000686786205801
C 12.460886317386223 9.158223297325547 6.495598982830244
C 8.503840452182633 4.622768629963624 9.090494344994633
C 6.866761105769768 10.598480002881374 11.255406847416433
C 4.70105187643833 5.734337021589781 5.945733686408028
C 5.566077324946142 6.679747984528258 9.655170795809456
C 10.727054526915426 9.683006148431158 4.7051893054977345
C 11.772727232907753 9.463205143274688 5.429202617345349
C 7.95991549250409 11.225751006995477 10.601579384364005
C 4.995236917126295 7.87033261911651 10.093195394582162
C 7.639123662393383 5.9732101177596055 11.296028432926544
C 8.059947482175689 10.373490661735168 12.030267308782909
C 4.835190396033927 5.992106929066235 7.221149869118591
C 11.039686634284683 9.491673597726829 9.828678051664637
C 9.448655891236562 9.200972490363599 5.128179891836773
C 5.139080542073638 6.250793497253789 8.434184100426725
C 9.77973045820382 6.752018332051914 6.504559909152293
C 9.661568986491842 8.067267615938052 5.995519226803248
C 11.69184288967192 8.559870830573542 7.536761990134062
C 9.157019518461999 4.121477569802797 8.101740453987667
C 9.813871799023923 3.6486230337000305 7.073759177519694
C 5.195312651884699 8.998297296267204 10.632120162213871
C 9.152403677715961 10.548099687572977 11.121558060552324
C 7.085998482408775 10.25621831309403 5.354685473483735
C 6.731959118954293 6.113367077659513 10.284343685677213
C 4.867274996714727 11.296707946190573 6.201695265443067
C 11.636763475177727 8.956998878179721 8.849972570586795
C 7.862968222207853 5.298245914556865 10.004862317081217
C 10.297227379281974 10.07707361208138 10.716189279626954
C 5.924396898884016 10.783400759630851 5.682950449066229
C 8.213680188450905 9.784842303581936 5.068778532986604
