32
Energy = -244.24391632 eV
C 7.990352075320745 5.262088984549536 6.741317218503492
C 11.028411398177823 9.177985734867805 5.197618992965785
C 10.6397774881463 9.145552212127692 10.72577156922674
C 11.228315819184543 7.880882107672429 4.9222283312199036
C 8.197448719979688 10.076166880573723 8.42973403835817
C 7.0675245142642735 9.933868369286264 10.987821206136209
C 10.16490950631428 9.641132851948903 5.997374859104381
C 8.15035521132114 3.978574431525165 6.850071229809023
C 5.184569747014933 9.44709173027092 9.353002947998013
C 8.716593866187104 7.5419044982849295 10.591079731955265
C 8.360762197528295 10.17584200289464 10.09331863287455
C 8.090999368615215 7.916966128197525 11.704209109205152
C 8.240934944726124 12.452109845269195 8.30970328460666
C 7.371113995794249 8.94608229026368 11.943200558289428
C 8.814735664387017 5.604287037037846 8.672128863137832
C 9.966499935662233 12.507125705923082 10.47683890385229
C 11.896758601979478 9.291760532460723 10.845925104757086
C 8.506557402392984 6.768644653465106 9.418996386514737
C 8.565984172500281 6.4919392451088465 7.1836953725857065
C 8.220506686053074 11.303942736106288 7.759297432161617
C 5.851820086105469 9.852256735029735 10.337293449574092
C 7.8888749295054685 7.502307479722436 8.099673356716982
C 8.328150745285994 4.368269715872393 8.279552577105603
C 9.548010363045833 7.23103779562462 6.389001108537064
C 5.594096145098005 8.458180609319513 8.530316897643646
C 10.570830108840052 6.9485004585066035 5.477991057262694
C 9.020769684107085 12.56643022294607 9.415907029912113
C 9.021279800092904 11.472040712376073 10.31523959189542
C 6.4798113815818 7.758827987418474 8.038175638302834
C 8.490396063878878 8.861618407840444 7.783515939651659
C 9.366016354356228 8.707801544164226 6.678991053980389
C 9.343738617185966 8.97973620297035 10.425309535503107
