32
Energy = -238.69780725 eV
C 10.258982553116144 6.954295869403855 10.364055513165384
C 11.790113834970692 7.945484307690007 9.290498752147082
C 9.654329061634584 5.305184024121196 5.7943091759385075
C 9.162131832424329 4.411495483388013 6.623980756352298
C 9.598554017147091 6.754347945106023 8.983558900509419
C 10.916037939468437 7.087845999239175 8.62644567331786
C 9.573662765542553 6.44292770505043 5.212458001229541
C 8.418312919955293 3.7749902442027836 7.467657866211164
C 10.330001164360189 8.277192347191871 9.598681009946098
C 7.556302479905269 4.694923300406831 7.946445289499724
C 9.80948457216889 9.135703364095956 6.491474112003157
C 8.448400237454791 7.5831659590926215 8.52654703251006
C 9.26619669795197 9.410846240386372 5.364475109239146
C 9.083794954708264 8.93208912101146 8.909814063837281
C 9.415415682563523 9.719104228274544 7.696214902569677
C 8.873199633154478 11.028993298803925 7.673970061151115
C 10.063992487498009 11.930223456193351 10.11619886106869
C 6.932772919970178 5.742157633763291 8.226678203665283
C 9.166477290983453 11.023395173564282 10.143411612752871
C 7.167935228732509 7.125647848995455 8.21723671896722
C 8.419151321645828 10.176933831612546 4.648903179467028
C 6.973599647552655 10.358022992230303 9.202085486747112
C 8.251902223700808 11.683576493299784 6.711116678993008
C 8.2745690962879 9.919131257196344 9.901756487700476
C 7.581888199263169 9.197403174471235 10.953384475735305
C 8.153395504709103 11.105522976671201 5.550330397213379
C 6.642489344272146 8.602736916446522 11.516174159044677
C 6.10055238637728 8.108028198549665 8.24345472404958
C 6.134086160098827 9.429631279048442 8.756155348858732
C 4.476728805420179 8.114010593161893 10.295693611251883
C 5.406820703553908 8.222814217078087 11.164284870245723
C 5.066299033224363 8.466290585767462 9.061195571737144
