32
Energy = -253.86860068 eV
C 5.48064886647345 6.7698365327433265 9.55092504513
C 5.222354808877374 6.706346733355075 5.03212022926417
C 10.818626715434227 6.9149874811432195 7.584612325784949
C 6.100023857984551 5.862171883390882 5.305308469163548
C 8.36217849764103 11.144306739630913 8.20054607633743
C 4.713560893553633 9.525289201124549 7.217897986074266
C 7.834865209854223 5.352518608205849 7.042636347289566
C 8.552270261886973 5.771161809682033 8.180840642367741
C 7.370300877191309 10.771338924074984 8.836670479740521
C 4.606754610192766 7.839271392653635 5.366766378014688
C 9.425641267506531 11.162162735651323 7.381741435516902
C 5.266903227322084 9.886791222385527 8.26630813152178
C 6.299064440537587 9.154091189720283 10.360239296549974
C 11.287399707416617 10.052090586634433 6.0265198211278905
C 6.2875079038330375 5.874095293178742 9.14897408974522
C 9.827177177684556 6.257291603213503 7.958200250686106
C 11.045124640203813 8.633859631060862 9.847654860480596
C 10.394385386856055 10.873043329286215 6.659124890290932
C 7.070988304848245 5.350639308716236 6.065904813296715
C 7.956494520320201 6.8000531710611964 10.539189060375973
C 11.643000046902747 8.029212783036007 7.5255147549227415
C 6.812781043675319 7.389037788545816 11.2441495731206
C 5.673730208584795 7.787350882799714 10.468371042670427
C 7.439325875288348 8.72038327138233 11.210505190552118
C 11.8375388507754 8.824517655470538 6.335192165362641
C 8.714069803759108 8.080581424561188 10.769532910391618
C 12.083434701262753 9.349847411416903 5.049773189352924
C 6.246348736984059 10.02725832325906 9.267746238422363
C 7.712865832489877 6.015434403318946 9.35135333601038
C 9.95774365293266 8.471837242777703 10.491801575724933
C 11.725449442391463 8.699074624955736 8.755628547413576
C 4.4258422763394005 8.812969505176069 6.125646730230102
