32
Energy = -254.22738806 eV
C 5.1754787660009 4.551388707917661 7.463182809722407
C 5.244858934749391 8.154941302873812 6.368952577976208
C 5.672418277175609 5.822270019004961 7.26710138146377
C 9.90549972392564 8.343824385519007 6.479501794608261
C 3.437875717390446 7.0151930525777955 7.483001210901408
C 7.580317434572846 7.195376039554428 6.533851557084188
C 9.892939386279041 8.224779201914114 11.544843992380212
C 8.142549576096362 3.8017511903130483 7.692643677271751
C 5.507365065212032 2.001178745516489 7.393473855460857
C 7.1155712488007445 9.2984496120913 3.619332204856795
C 8.596773826958163 5.686566640958491 9.088732556841501
C 8.063719671413926 5.139354867732606 7.930521593778869
C 3.1961605441480407 9.069388315576985 6.6583395566802785
C 2.7061345548265474 8.052768932942987 7.351905242004523
C 11.226855684790896 10.341369579083084 11.025977303443558
C 4.765927765036684 6.944605522068947 7.074401509570281
C 6.9380343882253115 8.755046068641223 4.766200194222579
C 10.590369234576325 9.336670473953726 11.463793326507917
C 6.790206576214496 2.0054782773073714 7.5102432185377515
C 4.37489781773403 9.237589882968493 6.189037792714509
C 11.664213570866359 10.701371929638333 9.830644624426064
C 7.99735183640345 2.548943732474969 7.4820981194609795
C 5.126403917909984 3.3037641545353633 7.5030933540915665
C 11.454173677458316 10.02263851139092 7.529905658552225
C 11.835490348507635 10.739858052575332 8.579467466720157
C 6.613384524918204 8.073814364710987 5.875373369093655
C 7.101459835809427 6.060189693252395 7.213240162609097
C 8.909052256378285 7.598669426297771 6.410220419761226
C 8.939079281789038 6.328953707605067 10.103560679571173
C 10.851912580516109 9.2268548109569 6.770699750411206
C 9.420607856900343 7.218697900533213 10.947940972228222
C 7.164209336766946 9.781495693051687 2.4094222322147894
