37
Energy = -291.50238617 eV
C 14.566540324353387 11.403309945488049 9.965990575451709
C 9.374962359190583 11.880570115498692 13.480545842344942
C 11.89430006861665 11.218592336180564 10.630724644237883
C 10.563559793456491 12.669836888653462 7.542712834508592
C 12.695061170818043 8.969358392631486 9.925477078535732
C 14.416227647177452 11.407075324637647 11.394435833445174
C 12.967786770279893 11.42422451771982 11.63522706307024
C 11.734283003474374 10.059088258611457 9.655543922819032
C 9.017646924013649 9.752734882223761 12.784449861761082
C 11.250591258729601 13.854505671886491 9.5110915079068
C 12.25324883004471 12.382989204378298 13.984877012768749
C 9.98384425203377 13.180306104662462 13.860521928113279
C 9.16603601989777 10.111158196237227 9.073230259344712
C 8.61328816786728 10.626536835901662 11.596718774669366
C 12.704775694405079 8.19993965213009 10.90470466189737
C 9.652653946342664 8.897530016274882 10.777818108451319
C 12.072165155328987 11.916752798370432 12.582660902353517
C 13.611436846346258 12.173084774125051 14.379034907626698
C 11.419116595911513 12.783604107452977 8.605472369126904
C 8.638304109702913 9.914607007524332 10.416363107393519
C 9.573318785658197 11.691866680977553 12.00912789049485
C 10.84737892430619 14.461964519477704 10.520441683997648
C 15.186580872028133 11.549188008868311 12.522045611746355
C 14.61201339138888 11.85691018933286 13.682716458018016
C 9.213049632695357 10.589704039958928 13.920129441406647
C 10.912543315710767 11.733818438411253 11.67559263850117
C 9.799945263488985 8.702190185465232 12.19336417991651
C 13.641557737092002 11.599887668923296 9.15853829365349
C 8.957865312272334 10.86618505374489 7.96921654772857
C 12.045282892455921 7.690152076667191 11.976919457289018
C 9.959293929776099 14.241772065758974 12.890696437017056
C 10.352174687134438 9.444380260594578 9.619520745725321
C 9.724941441182452 11.695438042743413 7.356701702225853
C 11.170566234473904 13.005826923138638 14.494825190015984
C 10.310233976478827 14.605494600983851 11.754411200439366
C 10.97680407942915 7.988606024307204 12.544651734425765
C 12.203701105831497 11.563336289570834 9.13827077700491
