37
Energy = -290.00399992 eV
C 6.340755109223391 8.226744647137116 3.5505850038934357
C 7.568208602104267 8.744999463977567 4.0540979346356805
C 7.37995338288559 4.633987479926223 3.9102866767898425
C 4.696649370126024 6.781719324126601 4.287744101443633
C 7.939231533919357 3.764564319571944 4.649723037381736
C 6.389565405781922 5.531730858293094 3.864739984229122
C 8.753068198367004 9.322791030911702 4.338176085978947
C 5.192268002458461 8.909442068778166 4.108424175909279
C 4.22869992508005 8.104337569079265 4.673618757807493
C 8.008932750729771 8.94449012429281 5.481714413323191
C 5.347503678705968 5.68711844044231 4.931284736358869
C 5.926255746179515 6.874322196476786 3.4498842662098856
C 8.101259096106228 3.3960222437941505 7.279127659717821
C 7.922804220099113 3.2111711467379886 5.858398487158575
C 5.1029704415118555 8.458695816447152 6.807423797053761
C 8.7909159805827 6.763258163240982 7.839650062974796
C 2.879407891036545 8.334262708453773 7.02412327634857
C 5.7431582686351605 5.360098148110519 6.32213309866577
C 7.79678484008129 5.833865425566717 7.6575989043514525
C 3.8839875987466397 8.419500914945694 6.0657881780878915
C 6.426566851742945 7.781371130913735 6.989612577436885
C 5.698468928061316 4.035964936439245 7.100115122715154
C 5.0543645147227485 4.157630208120874 8.273305798940408
C 8.512772901946747 4.538825374180161 8.074581928496618
C 7.698334888907649 8.599345605086818 6.7726442656440025
C 8.746191563649436 8.217768389126842 7.7049823391537435
C 9.860568499827824 6.261826175739123 8.76961218257012
C 3.021329525594809 8.049017862414553 8.252565633096038
C 6.606758001130569 6.255309796266581 6.9443542237974585
C 6.825886387508318 3.1750302545380156 6.826656978496844
C 4.571897529184071 5.119463379188704 9.020289677213851
C 5.30382220225854 8.101552388066839 8.090894773729753
C 9.541159885315531 8.4682973403972 8.814840746748775
C 9.633803118760492 4.873252400771448 8.799029290894406
C 10.242289308175476 7.476124535222909 9.357830791881412
C 4.198597326500025 7.541192436307967 8.839444688941875
C 4.295679049594753 6.275776222151201 9.445586867165527
