38
Energy = -305.54505048 eV
C 4.700533392351058 7.472234657714124 8.170299686438122
C 6.85204911983523 7.056521933152845 8.883024565566558
C 5.53323014595421 6.684269282388053 9.08081853179277
C 8.12864987670756 6.356945693930191 8.768008097941312
C 6.809255940182689 8.08806663690773 7.823973846401519
C 4.306939865226782 6.211811194676638 8.551122965889206
C 5.04291265044211 8.844268898860218 6.078572818625639
C 8.89328184746182 7.1073620292429585 7.787049688706287
C 7.752600919667253 3.7737927060241745 8.574713163788827
C 3.75443223745094 4.998177046132242 8.049729005262579
C 5.4853631641601535 8.367832666071726 7.381205966451625
C 8.052554579084209 8.01441084108384 7.087431474202508
C 8.479540792383624 4.988573667122238 8.64450691838013
C 9.276727675424295 4.896452399475638 7.37035869903734
C 5.8238016054754675 8.660049770782717 4.873295714628224
C 3.5837048054381344 3.5853575713055528 8.088544417118761
C 3.405958977824314 4.352278715839866 6.897050974534987
C 3.663427308879342 8.897783268712688 5.876930567862471
C 7.980356885600277 2.996335658810514 7.579490265277088
C 2.704678612144746 8.140880445879755 5.601268985444712
C 9.06269215566958 6.5886732525809215 5.528568097321843
C 8.73045270580882 3.782463435191457 6.613529424094496
C 2.1546476687254925 6.957948724569926 5.3538159161617775
C 9.471050461005465 6.20517185827656 6.83798118792203
C 5.05189760052763 8.307992955017083 3.719295542657092
C 3.2213933670271095 4.629070534235335 5.4848942572403425
C 2.4514425477928623 5.74494276952021 5.244420314093356
C 7.750074713045137 4.6514424448626395 4.2383732593668055
C 8.161037825963477 7.766062537215525 5.677575099213319
C 8.587774810718722 4.128660890718155 5.2532989328881605
C 4.205941790806675 4.2240391279656615 4.567181902632389
C 7.179682969449095 8.090377196156432 4.718879588738495
C 5.719038644408001 7.400724420547039 2.9537391385692096
C 5.293645114045355 4.299211991245854 3.9795811460550277
C 8.781274525355967 5.447201750029221 4.752417487618844
C 6.4936212821833 6.220412646897729 3.0731099030928846
C 6.506778976724581 4.892382124855207 3.5988851481419446
C 7.103739609680392 7.388227033630034 3.483901292085124
