38
Energy = -294.78543657 eV
C 10.220237558400845 6.63586464578692 12.140187205149712
C 8.758214472881575 4.878477822031707 7.925705821038501
C 12.509233956916813 12.77593903479136 12.775099139599341
C 9.182287092738136 8.927412897249095 5.556862073534649
C 8.980753751562556 6.3339768605768025 11.930965911122442
C 6.071107195875408 7.7429968378323615 9.000875574604823
C 5.090816842882116 9.079355620670563 12.253402779166098
C 8.756069153419276 10.32018784174483 5.534553652819882
C 12.876229549134017 11.92573403011682 8.431808601214946
C 13.477545800654156 12.746388419123363 11.961025304658017
C 5.923653927502778 8.06887483655116 11.923974417019341
C 9.319335778387517 11.961833863462216 11.781616703224042
C 9.42003239242437 11.52300054424302 9.274261605135175
C 9.981710434619744 11.40258970616685 8.164085328605392
C 5.360007643728066 8.802096443176657 9.607345273300867
C 5.16183850165589 9.010657349718452 10.863250979653886
C 9.163540998356424 11.72645109205542 10.552879455972398
C 7.510775148467463 5.695048943372618 10.02130982386552
C 13.874016965414043 11.861279034305216 9.473236095406076
C 7.3612930135946595 7.81973089814057 6.73855924819615
C 8.209761068377459 5.10811900252855 9.030932701678104
C 6.532710766879466 6.753289492557892 9.956877512405967
C 9.181291052389032 11.521504653110682 5.192324120313129
C 8.522522809440165 7.739669671830356 5.938485508363112
C 10.162222886207546 12.316368172369971 12.727710676681943
C 6.590653192867875 7.741022130917057 7.700852383713771
C 11.283111251223103 12.614246823350257 13.23987635522358
C 11.468916008225033 6.97719236078764 12.066432211412373
C 9.089034413009335 6.458575252951583 6.006702092201465
C 7.770548323800033 6.101200624681849 11.46054134449303
C 10.893865178704417 11.217236809100887 7.130524837740741
C 10.5195171262667 9.368173917848717 5.561222022869659
C 10.339263847437827 10.782081281568109 5.8136938409834515
C 13.522032657263319 12.592746558262878 10.613529000952575
C 12.595939088974754 12.7848892629636 9.541409438880004
C 6.605211498494555 7.0282642383162 11.381838820992984
C 12.238484972202272 11.356388027065561 7.416627245370974
C 9.103439795098422 5.4983019479599715 6.807600724276682
