38
Energy = -296.37886445 eV
C 5.09943723930598 6.106255974817733 3.959022526657768
C 5.53104845241443 4.7204105769329106 4.043650088362372
C 8.180129218894796 6.013783306897825 3.6070884273629056
C 5.874528076313402 7.255810855091744 3.5879215373054274
C 7.286006849692669 7.031209311240939 3.7697380841747528
C 6.563430233379373 8.965101944802024 5.134937525219104
C 6.71906003412807 4.21285233853947 4.594566118193496
C 7.550869718029738 7.687412624961958 5.138902036708798
C 4.37388491020383 6.572883287719863 5.1410416278899245
C 4.33392767970372 8.031135427702576 5.287773003360555
C 5.3813583990715514 6.397921947990287 6.206227855582188
C 8.802232696069204 6.918556054904038 5.722515079550184
C 8.521288429928518 5.6694869450040795 4.9913793354161005
C 5.483595945451327 3.804900464560939 5.174629163959413
C 5.443096878411384 8.426677465551231 4.4325542682899215
C 6.603700142627512 7.0918851675702355 6.180208146172464
C 7.727232816960736 9.401124910935108 7.255981601986393
C 3.812319266453548 7.283758602778854 7.592039112210872
C 5.5929897599359455 3.709050729783721 6.554017936548511
C 6.400101932263323 5.819504997715875 7.064565905210315
C 7.766613129986502 4.57291834572038 5.494930100862493
C 6.494258132472053 9.522742555556405 6.461001324169705
C 4.275527127686356 8.350307705006864 6.738666149984829
C 8.917715253740395 4.815911574078662 8.319829955274292
C 4.7567952954383985 3.9014079978663743 7.664019045698388
C 9.152272880701082 6.9841155616090065 7.087407708385573
C 9.461963669067849 5.803492608095005 7.776337168865762
C 4.224810227464889 4.952665915102658 8.445139502640236
C 6.827961544662451 7.161051109707785 7.6569505775301705
C 7.0190818954895 4.428301431349708 6.872824363234801
C 5.401894528748124 9.064598381718588 7.276353755527076
C 5.382437316364391 4.282566288174497 8.920814172394238
C 7.641855462115946 4.2233416259618695 8.33937640901678
C 7.512186054909597 8.93523062482903 8.552456746346241
C 8.171006488174251 7.864137675525271 7.7730844934851575
C 3.6637411684514283 6.215959675894039 8.227816355205546
C 6.683390499255604 4.167844311862046 9.319990545822725
C 6.121085598755632 8.388518629164063 8.389077198118342
