39
Energy = -311.03651685 eV
C 4.119620680394336 6.038980022858257 3.416929402856406
C 7.313172502350356 6.306855788535124 2.9733683864276057
C 4.759986320575097 4.672369576729441 3.271159962450425
C 4.892980999826618 7.201502536786572 3.5366512981105527
C 6.18676671666938 7.219419767147215 2.910428431822
C 7.373485548466739 4.995819586595916 3.3733563437984944
C 3.2910858538290784 5.568999164622491 4.537179489130583
C 6.114601761886118 4.268746735044152 3.4148911521039933
C 7.3383798450971485 7.614940522388922 3.5570613308941725
C 5.632222868849011 5.413308372518941 5.889871971572447
C 4.076541062015534 4.3429530579164615 4.468148192988882
C 4.83152442243936 7.954433597896733 4.829899174095109
C 6.030488947964865 8.462321964095315 5.394335862796351
C 3.1168942765646386 6.325220780111462 5.674386019483234
C 7.7090352801868915 4.404007532633161 4.726685394224914
C 6.397199117605652 3.6827176391095344 4.702806655651099
C 7.3455144519337265 8.143183320808923 4.854328086706531
C 8.346517116404652 5.033617128485339 5.846540596726647
C 8.185367629629813 7.7006215630002925 5.966312582710715
C 4.441140368825344 3.6523112476881705 6.909572125273432
C 8.560371912031604 6.416984586734493 5.663546346445147
C 3.7397132218831928 4.796812909439637 7.601999765384958
C 4.027958264765161 7.419311696588689 7.218281758749756
C 3.8320063556762145 7.582251458263902 5.795728844334129
C 7.562966513456109 8.265294855982457 7.194407471593312
C 7.6009400895781045 3.355855563049916 7.674456197504858
C 6.180037631904347 8.509875521526952 6.827515376011328
C 5.097777693818587 4.078062850738747 5.54168890152926
C 6.195921216930925 5.753623635564283 6.945231929437292
C 8.079890269067048 4.584946672617839 7.251925321141566
C 6.077616233758063 7.599152344759278 8.946228779551278
C 5.290727015933554 3.1782201804471293 8.000553633134867
C 7.491717548711177 7.849335192463864 8.529485936210142
C 3.3624359419956806 6.037345839800909 7.107945464714251
C 5.24630816127633 7.904901905798735 7.791954909503739
C 4.878088413710888 4.461739650443426 8.40960740182226
C 6.597313006775895 2.6639845211169413 8.024895360040395
C 7.0907875739287 6.579005083536109 8.923926637191542
C 7.192769014429217 5.56883747729875 7.904579357021187
