39
Energy = -315.9346889 eV
C 5.499478832143354 7.816762591929118 4.0975790043636895
C 6.164037851875943 9.047005453157734 4.4062502292655115
C 7.775994749359746 7.374240451187289 4.308927238199278
C 6.483853716181083 6.797636739075487 3.9857455511903934
C 4.683929608334324 7.976663742044175 5.3266323756691705
C 7.59316971660375 8.773047179162168 4.6240878279411
C 5.241617055299533 9.363413032014934 5.492316507829078
C 6.360365638128828 5.681831203149651 4.8410691136800015
C 8.231116565064427 9.294194697380687 5.787213697825048
C 8.478455215255885 6.477680298268067 5.216024721134721
C 7.2687297425382065 10.040687715816874 6.689697653226224
C 7.48361498442687 3.346076714075995 7.479519663500002
C 5.740792108266543 9.915129025520834 6.613496135139153
C 4.69272759202515 6.980246215231678 6.311275736495879
C 9.233153451143892 7.069540924089203 6.280873538543881
C 7.654043005868626 5.340718638536871 5.45615613322853
C 5.425672566117154 5.7669456510897 5.902676147156958
C 7.460340651806409 4.774159508677339 6.828832700070813
C 9.239765417745417 8.469370182329664 6.497275623636203
C 6.014766578538135 5.195056183387483 7.05671105968243
C 7.453529032419355 3.5544841055598755 8.713897582163666
C 4.873860807344477 7.046285559059859 7.820314961667501
C 7.121105038396355 8.743262782163445 7.517823857319234
C 5.582915741318715 5.822937044014855 8.208123767109377
C 8.363483971815333 5.447399164452145 7.909112767991589
C 9.32253657907171 6.402548347000787 7.628759133960517
C 9.403320290794243 8.653953900466998 7.956890488085894
C 5.842599332707852 9.33251871332265 8.025921561449222
C 5.426342297200311 8.029247664936657 8.661699380520187
C 7.214381474898361 10.120290951015908 8.244078647185392
C 6.473943927176823 5.958666401612552 9.314592418581181
C 7.675283379003418 4.928477309235696 9.288728229335469
C 9.682858097200485 7.457812550287369 8.614276102275689
C 7.803824054196878 8.056710731122012 9.735876846612557
C 8.129340911886375 9.029660738253765 8.638586009928096
C 8.4969971225363 5.105961834258567 10.509764545608327
C 6.50321256993164 7.369811426851435 9.562038203476543
C 9.037986753656098 6.2044187669558175 10.655371937593936
C 9.022685233236363 7.390977524819333 9.947614562872547
