39
Energy = -315.87771796 eV
C 6.499724145075441 6.881619936999555 5.251925078136549
C 7.946211403615803 6.839869789816395 4.983717202146211
C 8.824664483629713 7.913972111403183 5.229246651312229
C 8.373783513240102 9.285186093944247 5.574098839846991
C 8.539195031180604 5.694006761252105 5.707265028836998
C 5.940351248267368 8.106509858002992 5.841305530755433
C 9.960876561819376 7.547941916635155 6.088558876775697
C 6.209811204347552 5.606206809375826 5.948442419498751
C 7.021260281861457 9.107927803918505 6.24937395131426
C 9.623832419491151 6.214729403608186 6.618033988394407
C 9.35785476493591 9.83327032372711 6.3938259570384215
C 7.522864644551756 5.022011942978486 6.349407387171577
C 7.579600621273601 7.988733498514025 7.143039919476315
C 10.35619657130864 8.72744692900011 6.748366530940806
C 5.057493572802556 8.05177132254511 7.017059707644089
C 5.216554738992282 5.5353904001597645 6.907425469697153
C 4.563381483611305 6.768860737287121 7.405623190331884
C 6.63227223512078 9.835967090738743 7.5541394094542715
C 9.066579140090713 10.557477192349845 7.62872865328548
C 10.079102397720186 10.231885877811337 8.537348303767
C 8.052849061101723 7.773450938574148 8.450927717052048
C 10.70409188195772 8.955821928290797 8.110311678689119
C 7.744581711094377 10.345107402012095 8.298168600135028
C 5.432613472968468 5.0628575108534575 8.306150516788795
C 7.793898874231958 5.347333143780824 7.8302091503587965
C 5.577337561405428 8.95969150135593 8.092313040786799
C 4.732478154631595 6.291360442635176 8.74520759166976
C 7.39775794890866 6.787089797314119 7.648987577533084
C 9.26873676973423 5.920397530082636 7.964084125005053
C 6.724011704027714 5.110192615747237 8.896347915849407
C 9.467196753945046 9.551980743283968 9.65918582168495
C 8.060074666999146 9.704586939643768 9.609048877381724
C 9.189050403993587 7.087442986109591 9.094971557702438
C 5.5424731635476245 7.006192219428962 9.647733267241183
C 10.122337706877424 8.26777997881334 9.263471302763993
C 5.879685234403673 8.354203613846526 9.375489737554089
C 6.761923119541644 6.190823121445816 9.928822733429522
C 7.306630185629204 8.462417517028973 9.778449722988304
C 7.869920439850862 7.069743547471576 10.122446247347114
