39
Energy = -312.78061074 eV
C 7.338424169554445 7.736446814801257 4.244042084334705
C 9.476541220853248 8.127894916828126 5.014302119696231
C 7.326233865016896 9.066524733971507 4.829381399875316
C 8.624927801579881 7.088654886565494 4.667411557224882
C 6.256661167088002 5.693935141491667 4.897252181974918
C 6.129753819105351 7.108536134219865 4.529055501717027
C 7.496594631894834 4.72257049390931 5.19508161371974
C 8.64046261862921 9.347071327255884 5.204447447311194
C 5.394209522845181 7.929863329611284 5.548095516941143
C 8.515784885087541 5.881418526923276 5.6345282760882665
C 9.080902308910947 9.470674752067263 6.570906022877838
C 5.388314867884285 5.111715028157024 5.921224502443243
C 6.243575407161478 9.105098161842845 5.78312838040021
C 9.960260462561298 8.294437230625018 6.391096304871827
C 7.094568800069601 5.870292657599975 6.168110918667232
C 6.581707546530057 4.523691267615934 6.608275205650532
C 4.7060537343404425 7.34425165963892 6.666861445637445
C 4.644408222870416 5.849648546058076 6.818355161893521
C 9.38116467277202 5.932994813216011 6.901420607211564
C 10.041554336169954 7.216788069225879 7.234226493569471
C 7.988701071296592 9.422052017850335 7.551886255812633
C 6.523851489166595 9.528126089541514 7.113801412186556
C 7.913370464322658 7.840840596801999 8.115421277061234
C 6.375967468390541 4.638419911623153 8.10232325039351
C 5.211573694702353 5.455273675658739 8.117052431165343
C 4.924093569793945 7.933095340732894 7.971231211397591
C 5.726066365736168 9.091270448527709 8.248142476054822
C 8.894172561913187 5.724035963798467 8.22249958124308
C 7.959553692108043 9.161845373703795 9.03144547025935
C 9.253249210742549 7.206713521780323 8.515425367417047
C 6.929069894812817 6.838676813094263 8.174440506420378
C 5.4386108551018895 6.772218739536783 8.782245811907828
C 6.562422495033847 9.085028963272404 9.486301570461123
C 8.824621430772035 8.036505722839753 9.715712116376736
C 7.505257805729988 5.504277193797549 8.765266647612412
C 7.271381071164478 6.110292011229619 10.174796444793888
C 6.59205004347326 8.093760365411912 10.491685829037673
C 7.918158494451505 7.4110451790156 10.59262436102408
C 5.989326580976735 6.847615900773501 10.124097557883326
