39
Energy = -310.72999912 eV
C 10.702782984455741 4.9683333133862835 6.454989180380171
C 9.04037136587996 5.566084064326811 5.562690176995225
C 7.234476212067241 9.34890975537642 5.8128322240336825
C 9.513320717666524 4.129626192702334 5.742839859111127
C 9.77781075662976 9.092063153812509 6.176895672360368
C 10.255876983727275 6.280000028038282 5.970637712097298
C 6.1359803519738 8.243751048884588 5.892364555400251
C 6.398105502652983 6.78205006517126 6.172196530814012
C 8.50904618844793 8.804863477312722 5.548117573763245
C 10.05793638066181 7.618738991636544 6.631776125865583
C 5.4415367947591395 6.358324530448447 7.209516304428796
C 7.847496785903525 6.29044304521216 6.3065792755666825
C 7.294520864675479 10.313886394282948 6.898592880412834
C 9.341412211922814 4.684134709484488 7.04832206043513
C 4.502860890590977 7.402707491807784 7.399139295786862
C 4.919226674442706 8.53528539057192 6.548494345697025
C 9.72171859011308 9.87027251181772 7.370518974852368
C 8.52398926120768 10.599801206420196 7.660250649651043
C 8.478540052971056 7.62666999303459 6.466626440229673
C 4.993569830382423 9.371771882732565 7.724479857679595
C 7.992635498051939 7.897215920400253 7.848658654812885
C 7.044000259071096 8.65167779633784 8.406529026690052
C 8.320297865557286 5.627547949718861 7.727946981833734
C 4.651766848491706 8.238682733079493 8.599546757537931
C 5.871858062455592 5.7093378669459485 8.418664571530684
C 10.012013642605519 9.017672707172826 8.587651755126558
C 10.101349733076619 7.6846516515644 8.137167786590904
C 8.249805355856642 10.440314909128888 9.118504572436823
C 6.287278283437523 9.981846279656983 7.945290688231168
C 7.2044181381393235 5.2997625457148825 8.665079805224803
C 6.8766934047107116 10.15132120374804 9.31384632561785
C 8.90727339695566 6.857589247285024 8.586366781692579
C 5.506315019764362 7.817975328233751 9.716026145659896
C 7.260099362946678 6.058784350296218 9.912764169460077
C 9.055401088566398 9.358214261056919 9.673092285115107
C 8.345026129531465 6.920053970399345 9.981611905550407
C 5.822106465429424 6.454791383179802 9.740136765346493
C 8.184878502855181 8.350880788806965 10.265445883142592
C 6.764331832701878 8.742090152147874 9.905937734174055
