40
Energy = -325.41807869 eV
C 6.214290103099335 6.92199953551601 5.528468964482976
C 8.122848147562754 7.1542307618058745 4.693998911804682
C 7.014592425171384 10.19150553809542 6.909689233107361
C 7.263829884608416 6.0764701117280415 5.113260435647844
C 9.333852686612833 5.441683463176816 5.925291880273626
C 9.420206592586041 6.761804949605395 5.236509020916532
C 5.224130321936056 9.29004358095036 6.48530878559404
C 10.204582308279912 7.5454197187296765 6.122983556572429
C 7.969348444310458 5.13608959207746 5.982414051974607
C 8.388095542433666 10.479137272688511 7.737859194486307
C 5.598985808323503 10.25391200310719 7.4520267432786005
C 5.535283848778131 6.878846487048789 6.841841135149566
C 6.908399491504327 8.156016613872893 5.0351192336153225
C 7.604875904516211 5.333918024426632 7.411382171105311
C 9.666149057624025 9.697138446085976 7.504618057771081
C 6.4906719865715266 9.312491614795825 5.705012804003117
C 9.909240956014623 5.588533497649164 7.273945478534437
C 7.635702701005328 6.823111807427091 7.436328239644852
C 4.887446187505494 8.052659865905625 7.255828174519033
C 10.624161523929 6.8405038446730595 7.411662139339894
C 9.36184197683058 8.575157397069912 6.603554219135282
C 8.16364661938295 8.039444860963378 7.198331345220775
C 8.87577470975321 5.306527568877235 8.256322016326902
C 10.165640160789206 9.048425441606035 8.662410933322196
C 6.368196246778819 6.122954028591429 7.904451868581472
C 10.512596771920622 7.580180299368199 8.633897059672853
C 5.436699341658403 9.741906375030297 8.792038023645244
C 4.952650442889505 8.408227085961494 8.674171046971578
C 7.945585631272641 9.923267326731999 9.15592291075444
C 8.833314568063118 5.928409933893573 9.53089152096939
C 7.588475450943234 9.199712976412194 7.829634137404012
C 9.74600893825587 7.010742372621198 9.73182391474454
C 9.166373850495065 9.254219791706165 9.70762014187547
C 5.560116261848752 7.6034855288890455 9.696534376441061
C 6.578110315120755 9.66901040111007 9.74039969310663
C 7.528276855608098 6.344843547328022 10.108132596207229
C 6.282747440631068 6.423789192529246 9.35567938921259
C 8.995624297093865 8.066858933734201 10.432083483503389
C 6.498780352294576 8.43932213763819 10.457549255588502
C 7.669572660839039 7.6247248854150085 10.711730670336346
