40
Energy = -309.66484562 eV
C 8.757141823419385 7.444452003186661 5.256086524052039
C 7.641596596527781 9.48301451698929 5.726029773332325
C 6.607599363236194 8.435475136348959 5.231303253472151
C 7.345181486119567 7.16394638985182 5.075334991181207
C 8.978992887538588 8.877824637053662 5.546754194396917
C 9.623769745229843 6.511301385520418 6.0495082900396815
C 10.016300620214409 9.341998604095396 6.450737381804469
C 11.032868235499464 8.440130028509028 6.695465047760793
C 7.4003622497349255 7.331403235286649 7.246901276472272
C 6.824455389770313 6.336004461033914 6.328636562067303
C 6.978608317499471 8.574644603505543 6.7585315972711415
C 5.455853055453611 8.392631436971447 6.25467998169717
C 7.1388280336751775 10.434929685243942 6.89009939572044
C 10.84083874972634 7.063203341074002 6.442608765697619
C 9.030154453797875 5.7194014805874565 7.131889941491145
C 5.298385447873052 6.979813690817929 6.81047717469106
C 7.619978227087922 5.251129329100709 7.128627308699744
C 9.39010155456096 9.88529863230695 7.689904465829457
C 5.901140160261649 9.52017057464517 7.313282133873542
C 8.126141308373702 10.722827755910647 7.894319137094333
C 7.215566223996048 5.1818478714965375 8.484184036615718
C 11.151613194950203 7.460470452001898 7.783256800282302
C 7.082025671895283 7.231401360444333 8.554974578358365
C 7.230077324463098 8.623560496430464 8.9631638942794
C 4.956441430475989 6.6422692206142475 8.099791427788658
C 5.965100448342495 9.303333714505246 8.748329451439432
C 8.687252442313195 8.846333048197781 8.497831739932348
C 9.459087636738447 5.971862248616378 8.527431794596795
C 8.302287667876247 10.268099956507792 9.430157732282744
C 6.088376152682079 6.096810821094229 8.929025930393644
C 8.303849064282453 5.7474601465833715 9.330354411041059
C 9.700830241408932 9.748124482058092 9.256270538174995
C 10.312988055245926 7.1234392452953434 8.836189308244922
C 6.256506756319756 6.607936786533015 10.34868204249549
C 7.4775722123562 9.104597054385401 10.377568460213297
C 5.353449238117829 7.697411671896653 10.39037663322454
C 8.475292616350103 7.916291713687889 10.639871682341086
C 5.918480396679738 8.972753035932104 10.163251545975886
C 9.57249972754782 8.196237905530674 9.620401236352155
C 7.804673114971498 6.672425162763439 10.419976881935769
