40
Energy = -324.29759244 eV
C 8.96019295858346 7.725461363472481 5.4917348334469445
C 7.773823522069738 6.913981208900613 5.505811705199877
C 6.521664757925104 9.055414864927792 5.865052277680777
C 9.01160800702379 9.211420137575885 5.837719303216686
C 6.5066898827756265 7.611425767997394 5.47834279394875
C 9.932559637260114 6.412106570888632 7.202304596876613
C 7.614018070222019 5.83100783890985 6.514327140786074
C 10.191217618894328 7.1928907537132885 6.042560591364234
C 7.756571806517387 9.829138475849495 6.295792833031592
C 5.549662507137318 6.9634288346443 6.316714942179576
C 8.749644404563995 5.629288204355151 7.408886057184466
C 11.12088332718482 8.275441716103847 6.3340798493467565
C 10.289183538870983 9.455837274679023 6.454732243885746
C 5.560385227179026 9.20687328267991 7.010407199146674
C 6.199198997438342 5.881125385943114 7.019848033676443
C 4.968976123419067 7.895575421205448 7.290129560840693
C 10.6786320524286 9.813537573215553 7.915059814068642
C 7.046002750890593 8.607061972325818 7.208743862767207
C 7.724804623237439 7.8938659119378265 8.02006508621667
C 11.133749829259408 8.450330256506552 7.755676219023887
C 5.205867742918619 7.400895389475724 8.608606288230167
C 8.958277856280175 8.231454761832099 8.431599237393039
C 6.024599951624464 9.72726622197672 9.303454070874412
C 5.808179914925503 6.057936402062223 8.426562284390782
C 10.295495626562865 7.343193128059412 8.331244705096596
C 7.399114074278171 10.611134273557564 7.5513831539146965
C 5.992494361566995 10.231077722350426 7.959343079053988
C 7.381526599460127 4.341794880497094 8.918199831622553
C 8.5236289886852 5.161401192541739 8.77855541455574
C 8.206323596011657 10.487765688518364 8.75828644068583
C 9.465822835203674 9.688300083923105 8.808558111207175
C 5.7846161637970495 8.31159146333086 9.576492558460773
C 7.3615804725624265 10.023825636633356 9.803130792668911
C 8.782822488044395 6.1998239857638096 9.902000859658887
C 6.65168850216023 5.488392640474564 9.412202091402106
C 7.416479410827432 6.503588226222871 10.212967287733177
C 9.263826777681857 8.687638985507295 10.032663350078693
C 9.682040483207983 7.27319561946812 9.689812125984435
C 7.912763914480321 8.911117271832389 10.508757265468699
C 6.9549958019779075 7.825008815278114 10.379807312769191
