40
Energy = -322.39740154 eV
C 4.73780454237215 5.962588049099759 5.97250227016382
C 6.0904915241158415 7.850402812100571 5.051561925570517
C 7.431994646541429 4.364239662200729 6.126899541059257
C 9.259943653300375 5.841154520336225 6.3992331806718905
C 4.101944171326036 7.310676462798455 7.728506085063472
C 7.955526497041136 7.8082078710440515 7.143114937553702
C 8.6149488445894 7.777708512947928 4.995987199071057
C 9.978963931176006 7.883611806627228 7.496614729163472
C 6.051396771618672 6.324515092231526 5.282801395845105
C 8.729397130587243 4.477119269134664 6.777150165271488
C 4.776280805080092 6.120768594851305 8.287980096142201
C 7.342195727089676 5.49668759988475 5.052797784498019
C 6.383602884391788 4.607950077610135 7.299716830960312
C 4.989008489700013 5.1557557019337885 7.264014436350794
C 6.864860885941238 5.901611456161865 6.505140105052367
C 8.58134331157828 4.637244341715131 8.193674863329973
C 4.938918928194271 8.350768321739237 5.792267291512978
C 8.449021217295545 8.079922875443906 9.484618946885302
C 8.641532910049804 6.37051227556966 5.075751497091048
C 7.309303604751886 8.554217742385692 4.992356371459994
C 5.10294894796133 9.280236054978252 6.861445091606659
C 9.390465334434332 8.74705331090739 8.547489104404876
C 7.957993492828361 6.531778077155418 6.991579939371385
C 10.063888699941543 6.474627159709027 7.575647792992082
C 5.924942138865187 8.092357152120606 8.897255321810388
C 5.85828958227403 6.5988993242776175 9.131215451549025
C 6.942987621293643 8.468793750361108 7.810783571988768
C 9.316510575712712 5.835144909964058 8.688970839029091
C 4.170435642739074 7.194610168252934 6.282338551315909
C 7.214761252293645 4.667273565071017 8.57432474192017
C 7.0545538384127475 5.899905447644986 9.34693493000921
C 8.37670117332705 6.623978059606642 9.474230896405059
C 4.68913082500943 8.5083466485391 8.10650414734587
C 8.71496801345168 9.78369744052121 6.474546327792805
C 7.427864732215641 9.793705580280104 5.852923454757643
C 9.216193141314658 8.414533346585229 6.264030500895416
C 6.463057586621951 9.82780930717083 6.996948664363407
C 7.355192112064643 9.963270217373578 8.31005592940204
C 7.155178207242907 8.85979234409956 9.347845817339712
C 8.742175291783898 9.92524377609362 7.908958756641999
