40
Energy = -315.95027917 eV
C 6.732554660054276 9.295474200533398 4.408529174844236
C 8.101821683302473 7.286192011930353 4.65003263438293
C 5.7915995900214075 8.174153031667798 4.132471321777715
C 7.960290575554035 8.74293705560063 5.01876625492796
C 8.807948554990778 6.288087695940735 5.446303242301773
C 6.585498039679629 6.960855764836699 4.528406760530072
C 6.414823233778027 5.660952808153008 5.252532217985673
C 7.764134301826468 5.341436394822236 5.77804968179597
C 4.887856152299806 8.811165812404166 5.145899444870228
C 7.133536044234967 7.689481483027611 5.774313426447835
C 5.852120245798286 9.932514098788072 5.330762339799167
C 9.47069472881524 6.789062226849425 6.638397216811791
C 8.622219760951499 9.23384654016704 6.251592838887147
C 4.634050756526154 8.247381671983113 6.4174439321859476
C 5.488556857237982 5.691534230033242 6.3522944045221506
C 9.38346246366548 8.192624910196583 7.005447268371949
C 7.157566324093272 7.156280431740376 7.05575160687488
C 4.593986879824589 6.79493003419792 6.849229436744329
C 7.621798397682901 5.571144382710838 7.249722559624013
C 6.2761608743256865 10.008283274009347 6.70379566235522
C 6.20025377309653 5.183677960350331 7.610128207254778
C 8.96254744180207 5.977789001385968 7.894176706873658
C 6.847049146456724 7.711472639385382 8.21526330996438
C 7.724370609666652 9.916987637191324 7.1410390353148285
C 5.282103375304369 9.202051828382944 7.390464180258452
C 4.48274109578939 6.527443225621508 8.253837406612012
C 9.157281082149856 8.413988195673296 8.404378146638175
C 9.925335937296813 5.094011843502942 8.715392917998358
C 5.513958936293693 5.560323599572607 8.735587270420297
C 8.824826106445743 7.059392686999261 9.109632637666227
C 7.332063619096922 7.291668424210879 9.541457827490126
C 8.100097326387637 9.381600410830147 8.471529697769828
C 11.08678639671174 5.654352050824222 9.3794466648092
C 7.017699935313196 8.817851180408327 9.266835353347679
C 9.716521946179713 4.744498597855086 10.109542954198998
C 6.011758284796844 6.521324589567246 9.78932172134536
C 4.9927823135623335 7.451323774451866 9.214033371576813
C 5.6332138078671665 8.660802303565717 8.684816895674784
C 9.809702305733708 6.260871353223746 9.965943132185462
C 10.860060016614138 5.462064218632989 10.879264717787775
