40
Energy = -315.94017756 eV
C 6.554179197116292 7.732998928750675 5.517872736330795
C 8.929320244315983 7.484400317407903 4.896844937643567
C 6.994354301479032 6.13823930952497 4.90788213779316
C 6.433919096705135 4.8933288145863445 5.576450414705403
C 7.827474912307822 8.467297254827958 5.14548672840637
C 8.458512125235629 6.116631472130178 4.806455571410498
C 5.542368530930654 8.430528104037899 6.491158235027668
C 8.839588366816052 5.0215060475186855 5.743635422529106
C 7.645686844424919 4.290509947062837 6.119134500958178
C 8.112028196262285 9.70389950523057 5.906224401792355
C 7.096719854845382 6.678230954754133 6.373720604143061
C 6.261379438036079 5.593898823995661 6.931605467240321
C 8.407636163448315 6.89002904912082 7.106417798388437
C 9.178759251644099 7.889094498849047 6.2641590482132585
C 7.091320829311256 10.436914512255038 6.619748701592111
C 5.843032462861293 9.728626196100501 6.957756900723161
C 5.157013561050354 7.643828612960228 7.664697779353964
C 9.265201223671397 9.289238137696058 6.6804644470845505
C 9.076981875917303 5.549280287266084 7.161431130337759
C 7.490211213443004 4.872202689342484 7.637963905766755
C 5.312691554192467 6.277559150895468 7.913915161003406
C 10.14307328628623 5.8931887526916364 8.269796296020607
C 7.819643124456602 6.961026729641902 8.425007610970516
C 7.4843441947817615 11.111625294661785 7.792343076248318
C 9.463653279618537 9.611862878957357 8.03314383267373
C 8.61690306727835 10.6398495005498 8.540324864379519
C 9.57573440099752 8.548245657171037 9.036040220906386
C 7.173670362598629 8.0832428268442 8.975610840661265
C 10.255328241524122 7.334943646936963 8.99401819487658
C 5.6693391383884215 9.84321731525552 8.454220862688773
C 5.832938918016089 6.091956803266178 9.23871541151499
C 7.844235640840682 10.283752674125305 9.72564686051953
C 7.199721638899425 5.538137286880643 8.997105564654971
C 5.635479302771909 8.395152496187592 8.865269311714709
C 8.16879904568028 8.816647069430585 9.868083898843507
C 9.6199437297628 6.1688522259096565 9.506782933416499
C 6.646126283836922 10.687987892693117 8.951336777353163
C 8.213487321589037 6.290146463380384 9.779285997677354
C 5.971915018619943 7.350897893100652 9.971845331300266
C 7.4656659958171305 7.539405213781763 10.470777318915227
