40
Energy = -326.84174472 eV
C 3.6208328874947626 3.965622398185122 1.1271032295057726
C 4.7251013280202505 4.892559183748835 1.3804232253584503
C 1.8256019309753047 6.380340512547239 2.0950859209835517
C 1.7551303891122054 3.612729129505409 2.612184714375679
C 4.479375889762536 2.83562909121513 1.4953264236933708
C 1.6997087078096569 5.524396068411429 1.1931383596626468
C 5.622477347653219 3.7689546507099703 1.737168983013568
C 4.646996457935314 6.008546757005715 2.2161160943578366
C 6.524053768467078 3.577279633531784 2.7837955319864487
C 5.184106354616175 6.385672214052779 3.4622782456734416
C 2.225677092374322 4.209885176859206 1.4231947067488446
C 3.8275356822000908 6.685202405007789 3.1489069813358865
C 2.166310113816418 2.4977718756176097 3.416512866084365
C 6.941986199901063 4.586215652032377 3.7609775252738946
C 3.316748108834123 1.6500934463796464 3.3511595935597236
C 1.484540428366978 4.397329243369335 3.9173148110619675
C 4.225825140308951 1.7539573829645516 2.2715138249969478
C 6.4601563726708715 1.8093156759285949 4.54276035157275
C 6.615645787231515 2.2919086070368255 3.40021838335675
C 6.28414144490325 5.851376032734124 4.172643462324455
C 2.399900013704262 6.6033922040194435 3.330727576381087
C 6.766522103908327 5.721522728926289 5.526696438131802
C 1.8821169793967725 5.649484657522034 4.366463601065508
C 1.89941889697779 3.222335489316726 4.6531120100189
C 6.319984128188777 2.2617611357359304 5.84604157938129
C 7.098367115617804 3.454273333235457 6.129725500832527
C 3.908069514958371 1.4092746996254841 4.593966244067592
C 7.38971845653317 4.397193827732521 5.117661493956834
C 4.839811241780111 5.997798479974131 7.164677200294497
C 6.212314054083406 5.63904917673323 6.809209382680592
C 4.006416667766295 7.03895544609047 6.83449066460524
C 2.773027710730465 3.25099783678003 5.743547694348199
C 2.382778584834749 5.731944289840707 5.7198149485040455
C 5.029056456659589 2.476489983546447 6.470282203675293
C 6.387669319431018 4.230522685623231 7.140210137948947
C 2.889952278426003 6.905286256034167 6.272615591769958
C 3.8221662924694964 2.223911486408472 5.732164297425348
C 4.125527838523233 4.720141227231482 7.189068046664621
C 2.9588082339067667 4.548564495241375 6.38845064750757
C 5.102626601358895 3.6585193452488745 7.289455427523403
