40
Energy = -317.7700771 eV
C 7.019012599000314 7.772372623520238 4.0474352431789145
C 6.367501178010873 8.975508288262189 4.4257196804886565
C 6.543502694393199 6.515474880036813 4.435167499958488
C 5.412418838666022 6.078258509969699 5.225340375053936
C 8.455650320031479 7.913323958417728 4.419478587056516
C 7.338824844243978 9.846962122121228 5.154084073076242
C 5.371311490907761 9.180423182396867 5.426138368365952
C 9.01935650174623 6.712039950806747 4.8889145853182745
C 8.5191892682285 9.102350297982989 5.304401445029738
C 7.754436866615361 5.800957978522856 4.950754819226035
C 7.557603540830603 8.247324496042738 7.310569436897066
C 6.260050104502458 10.115919169702252 6.136867878092811
C 4.639876544343964 6.8537713895783625 6.254947656366914
C 4.741090146937984 8.26505504782561 6.393372419558819
C 5.817329416267935 4.864222114275198 5.845105098562071
C 7.312389153583631 4.7311925650697475 5.9483234825712685
C 7.80004797042248 6.230278890752918 6.401498777231438
C 8.853514146362617 8.517308748906522 6.68069062564296
C 9.222899796475126 6.8043225196254635 6.435854705239807
C 4.615786070859228 6.0301608755098846 7.489591860292638
C 7.149616986215162 6.967204370600284 7.4335137023091855
C 5.28813404130251 4.784324019880924 7.147418121835192
C 9.667998749960748 6.111340047271341 7.787833828886829
C 7.608596539369931 4.390720287064355 7.397816189945952
C 6.173400720194036 9.771516895660813 7.492063649618276
C 6.30498735514216 4.4761165056582515 8.031429844749136
C 5.096266142185848 8.769496037449938 7.709254168023316
C 7.418676206631528 6.322994357064782 8.779307043049679
C 8.770140250044827 9.064318527150313 8.180985763476016
C 5.085688673878338 6.489053046657001 8.7614525246674
C 7.259891486751039 9.325381162117392 8.390904519934063
C 6.266764196079095 5.431940338960071 9.20294762951223
C 9.943621523388348 7.014019789193273 8.739360046082707
C 9.081088392071267 8.05173058476845 9.161365822168277
C 8.558106136286709 5.133713565722179 8.38831893707097
C 6.708038980019522 8.384754020950917 9.394915696263148
C 8.31555567755848 4.584894941670921 9.769714513819872
C 5.4213655404084715 7.910396895467626 8.831718477199221
C 7.131338417383776 4.613875784141971 10.21161464526593
C 7.784025635780955 7.500074356306407 9.668901401997635
