41
Energy = -333.21324916 eV
C 8.507148746439562 5.088888254880849 4.559534732081015
C 8.487334164835985 6.234650056805971 5.42450311820453
C 8.083005534773923 5.66839916330538 6.710995458445499
C 7.949737350360306 4.189259182669562 6.6891493045242525
C 8.206610649825393 3.8745542274237583 5.336553255715399
C 7.697498407006021 4.576592622943398 3.484611804910762
C 6.460392719329821 4.994854036406489 2.8587723901321307
C 8.11603544936388 7.540393621359469 5.053668229301729
C 5.923400725944875 8.988302050279854 5.930477960386724
C 7.1531680557802355 8.585096744103112 5.317730210601068
C 7.479806584149008 3.2783565883683035 4.220806811690285
C 7.30575207916759 8.067633056762533 4.011025009601072
C 6.944440227055809 3.6797411960993784 7.577497251586456
C 6.084498394428077 6.423238845117914 6.383869932760009
C 7.049183229717528 6.370491847845507 7.391696493187903
C 6.165076973167881 2.8887553000061112 4.034942430815545
C 5.646048669007488 8.797280936010912 7.291953629578336
C 5.672555737632511 3.011969001241095 7.374514158957959
C 4.856115764698988 6.200869126307709 6.158768056515217
C 5.60085015162272 3.901452245172673 3.130966522466637
C 5.790799630305985 6.249446343676471 2.8867775205037156
C 3.893337441203086 6.013175398657755 8.130086512237678
C 6.333728939505734 4.537812040536213 8.66835447968327
C 6.324841313155 5.936964480101519 8.606245571493732
C 4.734462880998707 8.748705331531518 5.002195518297809
C 3.9018921241136297 5.330416808959152 4.272066850066563
C 4.755643917912386 3.1145354853521776 6.24131795588122
C 5.241114994592649 8.057059182287725 8.221407482726004
C 6.206089463162573 7.566643928868205 3.3172042144904026
C 4.4165186631632745 4.043229276188984 3.930239292544781
C 3.412920451295606 6.516875710787764 6.786228743900541
C 5.093986491286838 3.8394246754751378 8.458053391840433
C 4.955728750607377 3.026965225954449 4.859964490261465
C 3.6600838703394865 5.344112918901619 5.7929621310979105
C 3.4737291863291944 8.635203562039733 5.5981370240383255
C 5.041427956721116 6.7292423193724415 8.663940568539664
C 4.490059358561574 6.424383385144581 3.5466019578307177
C 3.9951700025171504 4.571663015417022 7.984128716373766
C 2.9746657872279516 7.79776112634465 6.361988528733492
C 4.940710835940206 7.858574916617501 3.9167657086120684
C 3.7945757519206738 4.1171741898432055 6.633444004550894
