41
Energy = -330.5376414 eV
C 7.089175408718089 7.402829912770583 5.045820591862056
C 6.542056925432077 9.744990983812956 5.654669421787118
C 7.661902459698636 8.888832951179573 5.155851431677213
C 7.552933776823998 6.005486341882777 4.820448367737513
C 5.625873662635194 7.569205720869881 5.495335079136732
C 5.388948007740439 8.916832967532729 5.833142431451577
C 9.058023207165961 8.798256162459598 5.891346817587981
C 8.824457747044082 5.485700244067647 5.476136011975138
C 9.836857750431024 6.286804211765241 5.912039550430114
C 6.766007749477389 5.07149070949089 5.636959644019363
C 7.859100070309765 7.862837621759763 6.260868117741293
C 7.967988364238615 4.5927682248592525 6.276843966779556
C 6.754603535147201 10.40369285022383 6.906625607495179
C 7.499469331148882 7.574150603228349 7.561983653813958
C 10.415818528823143 7.0322660518907565 7.024534138224354
C 10.038314830736079 7.714497318760427 5.8537488888912526
C 9.18701983863121 9.628111614436571 7.135347162091079
C 5.744676613727784 5.454274166632799 6.618565320642306
C 5.089657113017783 6.698734244250069 6.507394046841497
C 7.812660380616733 4.806186056726513 7.728899767217767
C 8.03118673492774 10.361612164842214 7.536935528547921
C 6.274202481143228 5.064454291549009 7.958064093981834
C 7.278005063104482 6.223863601526896 7.906114780843019
C 4.871867708521295 8.97796792760569 7.216111454384152
C 9.801597774630167 8.98260508450484 8.32882416925688
C 8.805426361155744 4.7923350051880105 8.795526984593092
C 10.110487859602125 7.542226113170936 8.350094287218903
C 4.8436944061445315 7.589726698864366 7.70925854014259
C 6.293322115790423 6.016953876349449 9.114440600089932
C 5.690016897699859 9.944647632197766 7.857345877914458
C 7.245535353038104 8.502638288425734 8.56636459679252
C 7.808790551979562 9.89792974165296 8.921629413516248
C 5.420641912875246 7.234777786702204 8.976100689901951
C 9.54755139610639 6.984141973370653 9.605663625029873
C 9.010597615855398 9.257050423848911 9.502491066856068
C 8.757975499535126 5.7552451145140555 9.76010328926593
C 6.298103861965959 8.23595602169052 9.710770773902441
C 6.335415960132171 9.649208135947182 9.141171483184497
C 8.807137882353965 8.044409937249197 10.234630053861412
C 7.355894257539192 6.174460099684534 10.22395983588834
C 7.410372254493808 7.543210372674262 10.501208087584507
