41
Energy = -333.94006506 eV
C 7.427775188056978 7.431741819517634 4.450177777869487
C 8.277022253821283 6.305990761933022 4.471668456109172
C 9.510129879899862 6.645572779248623 5.1357623584670105
C 7.680685030865315 5.173284981601091 5.153568609841356
C 6.388512844536784 5.514467379101754 5.55824017941894
C 8.203883774972665 8.600290049755449 4.949538029395589
C 6.139652021339083 6.979036934143293 5.201059521629542
C 10.329049532506343 8.550044007724399 6.332102052855527
C 8.620226381879586 4.694123740170538 6.117011029808578
C 5.3198373440395725 9.993499539779933 7.2769802128217
C 9.51335611962275 8.130506154762879 5.273265757990328
C 6.751853211203256 7.795107642636265 6.4423095500114655
C 5.197771546842173 7.51799791132547 6.326358141329542
C 9.773750397319189 5.67065615400416 6.160574095470657
C 5.951033131530976 5.275082075291592 6.904114516976217
C 4.650235124626012 8.707705793455839 7.096692064420333
C 7.557059013782239 7.162692987750916 7.282430299939018
C 7.402142047210689 9.165669905537907 6.100946638189897
C 10.73474398917259 8.279867783751671 7.480710560171813
C 8.221226651002466 4.416252147492168 7.437369793018152
C 5.074286263037025 6.317841282261131 7.279460708404659
C 6.587937986972027 10.253304802993817 6.673419987704024
C 7.735216213953565 9.933512356743407 7.39311159609993
C 10.083559257705852 5.847642605691373 7.570852837838304
C 10.043995634782167 7.1973931899486745 8.188782313418015
C 8.513673882705366 7.465125623050801 8.068451373509452
C 6.90337685958486 4.800436618998215 7.889784329949161
C 9.181833275576045 5.026275979518616 8.335600036238
C 4.978901042367504 6.8443994861632715 8.571014531155221
C 5.333614964455165 10.270397950723462 8.684151954251156
C 7.038893979561865 5.53443653029011 9.15208240188798
C 7.7769918972541 9.653183667688973 8.823677716186156
C 4.421272297155012 8.182433707072226 8.450225734208399
C 8.501904938677969 5.719551430588628 9.377986913095537
C 9.085610192988163 7.111168368596974 9.443306839901242
C 4.692975724684163 9.14970603236614 9.420407423230433
C 8.048670768761278 8.249626099746653 9.457863475961467
C 6.557818542404634 10.079676464498728 9.417545910450807
C 6.136445858793907 6.582504394775906 9.47038513395545
C 6.717666556652708 7.814765573400093 10.030701740127014
C 5.929624991807139 8.951243900008839 10.144524010804103
