41
Energy = -328.52359564 eV
C 8.489986871771295 8.659565157259745 4.970884330547599
C 8.474436992476603 7.1883002297464245 5.038848298633143
C 6.42941614660203 7.7806067443882725 5.816454131537395
C 7.124108401616885 9.036064953711861 5.470758904901464
C 7.221809665946556 6.672081470071095 5.428247444223609
C 9.82039160610523 8.98753284823957 5.439525005933169
C 9.55134691457348 6.653712233874768 5.869290533317892
C 10.405931833839755 7.751681379569354 6.051683943418135
C 8.007716925890662 10.83885624632472 6.824660017842375
C 6.886057909661908 9.968750394503532 6.509910655050563
C 6.178819478946987 7.686756975200095 7.245051717691563
C 7.462001046634596 5.894573482441572 6.634488324310263
C 8.861367899792828 5.9672839524864765 6.972800705995725
C 10.26220274954316 9.714896444779889 6.745697276417281
C 10.862997411480976 8.421563516777299 7.23654549202048
C 6.656605550144046 6.353219113969835 7.714854367731919
C 8.861632651569392 9.701350940674855 7.2785243045809525
C 6.612626662255674 9.101844956396688 7.769771871995295
C 9.967851842796028 10.547047871750522 8.07606006165208
C 10.735301973788703 8.284641254737933 8.611622405303855
C 8.10868555066155 8.688501982809914 7.901226419565911
C 8.505564130247132 11.081006414690107 8.16481026460814
C 8.956482176780357 6.242896641056693 8.400594228823046
C 7.432573081915425 6.071030917054464 8.972628896375129
C 8.45146305322346 7.732789935802664 8.810437622650209
C 10.402478434488106 9.635871871640765 9.161736305187647
C 9.833596631738502 7.21954851459075 9.242188765539083
C 6.746454933355084 9.724746458157197 9.173483033894893
C 7.780146226608244 10.76180815878287 9.405392083211742
C 7.322882415495154 7.473878854546512 9.858677844813178
C 7.135702206976477 6.0130939240251875 10.389032924768559
C 6.573183568151063 8.72847362205561 10.183363277687224
C 8.5634873336663 10.522204607529016 10.613561844355115
C 9.557660682276445 7.3283454936237895 10.707251389133427
C 9.86948684542345 9.783552125447237 10.425672359904281
C 8.12778616640153 6.863411143278383 11.116653008896101
C 9.770729243994323 8.585315318563776 11.287878527860848
C 7.937143921062122 9.997212012435664 11.768991267262273
C 6.946266392856604 8.940959713644215 11.523569864769117
C 7.6707473194836915 7.823385027628539 12.22230883847937
C 8.681788620896516 8.818556566870496 12.211780910249184
