41
Energy = -323.16496086 eV
C 6.5194426359991615 8.64113528552643 10.051699494697873
C 7.626805643538234 9.53590261475333 10.249597533935798
C 8.829385134218057 8.721211642653126 10.598240434183918
C 7.9884242898112054 10.20139973905845 8.888681518388234
C 7.238603612196285 10.83676202882073 7.756763468641569
C 5.874189577013611 8.918094886895798 8.620281383329798
C 7.309057150563013 7.247536859323888 10.036704567084866
C 8.551486030530295 7.357482971448918 10.90937935765417
C 9.364010258778723 9.80238525230458 8.427570950523151
C 8.168153703965661 7.833539718058894 8.780957860065337
C 9.568729833770318 8.547397066172527 9.286319222521913
C 5.218981907774208 7.871175231672332 7.682870476155011
C 8.558974481013434 5.365559547959141 9.52766448096701
C 7.989580716648749 10.59037012819919 6.565586375961203
C 7.326257054172918 8.859951423282093 8.166381728570418
C 7.161345156442708 5.797908999146095 9.51557526268548
C 9.250365004689039 9.821863439190759 7.039223002949954
C 9.39170716579402 6.419070903764232 10.152518281194443
C 5.854826107977337 10.289919004803656 7.742398116748944
C 10.165108660694553 7.087136081939292 9.157038612686978
C 5.960589105072287 6.3677615548965845 5.828050345288505
C 7.42499625547595 6.177782463810656 5.490345611076404
C 8.546416532283397 5.24070659111744 5.950904619018303
C 7.943339641979038 7.353838194064645 4.751572305762692
C 6.86438777867619 8.344312408995169 4.760862754946297
C 5.651263145024398 7.674791232085341 5.315927492247865
C 5.929459226244113 6.554226275338053 7.42445125701911
C 8.232992496980971 4.535308074425082 7.193537889649989
C 9.25955606611181 7.436387690221861 5.422978791243388
C 7.307327174578142 7.03615344414759 6.876728761623738
C 9.647593825432297 6.146906608698126 6.072552516312893
C 5.081296730512873 8.46727635394343 6.419412773876762
C 6.869502291483858 4.422234962429014 7.5392198340189465
C 6.979223867542349 9.605933657729855 5.768943891916799
C 7.515279086670236 8.547573105013747 6.744099721766576
C 6.376961611078505 5.435097668561812 8.379466719664787
C 9.033132102655953 8.39025283188718 6.579245403380919
C 9.06838619740271 5.013451987493107 8.24241275815717
C 5.62827233570985 9.804483580738129 6.458775872219828
C 9.788397236315303 6.237061533314439 7.744216959394733
C 8.650101281380989 7.176565070317054 7.594749706670182
