41
Energy = -331.09665033 eV
C 7.067371615235613 9.505958579666775 4.7764072434010885
C 7.62420315480123 8.221094298501491 4.3284910088432405
C 8.983922772283348 8.723014086095402 4.574636725366295
C 8.45596466318774 9.969920125012043 5.0999915852743385
C 6.4504870934941225 5.624013634665294 5.393573588475275
C 6.937422448100636 7.063543394355997 5.094921014545355
C 6.044147628363521 9.407743062170756 5.728666406144294
C 9.904076739076835 8.608427702861082 5.711472882847894
C 5.168252625177515 5.680976825913421 6.018157770507573
C 10.217089645135696 7.500207489504615 6.494961480643629
C 7.256076605000417 4.673081395893958 6.298893977338694
C 5.896276119422704 7.9190562511751175 6.020075288098634
C 9.289271020767503 9.862064858612072 6.30468526344317
C 5.996537440526346 10.258058109419695 6.823945087271029
C 4.971501220705451 4.701046144591142 7.02877134837237
C 8.560382058311372 5.001131917718395 6.788729878387797
C 9.050459617110137 9.934323798151745 7.7227611078109835
C 6.303675441070021 4.149323771854716 7.2978039008168825
C 10.199186010468797 7.680354086795683 7.920600949674248
C 4.876779194398967 7.022457096909869 6.5838275381448055
C 7.0121511778410115 7.742776723624578 7.0431092691507855
C 9.070763899128538 6.440275720582008 6.629032362536587
C 8.848117305593094 5.048675056211817 8.21666109624333
C 7.881395121901551 7.139729776733091 6.262980453216641
C 6.449963419202023 10.109900307883438 8.080668319371958
C 4.64523433135834 6.892796201535667 7.974507390189402
C 9.690829372097735 8.85454290371393 8.537081089437436
C 7.855478532455466 10.317344367828438 8.498514762220353
C 4.620255554268875 5.432785219846462 8.201716556068003
C 6.958475445521945 7.729065937966611 8.421112415286176
C 6.566402640686426 4.225439269029876 8.70230296297997
C 9.24923535517208 6.529113165582619 8.264398074945401
C 7.791228038906904 4.822178338346143 9.13872356352157
C 5.4857148081448175 5.069678682082903 9.26679170611912
C 5.604204625318498 7.477872887132244 9.068997902602346
C 7.749335927489004 9.444920182387841 9.645758725259642
C 8.794008357190648 8.510546186390611 9.613923137044216
C 8.219357114517113 7.160187526040899 9.212691583310264
C 6.365422211126529 8.947256670360604 9.122779923629077
C 7.485660606091183 6.034853771043094 9.895707462012956
C 6.065287283395688 6.225868715852419 9.852771439492505
