42
Energy = -341.51502342 eV
C 6.163032361848487 6.453249185871183 4.694742845096103
C 8.438879580592099 6.978376235861431 5.493473648950384
C 8.727349989946276 9.34148629876089 5.773333218947059
C 5.903328111767311 7.865297818751513 4.4500894415316985
C 7.978278675184778 10.551490386526385 5.862106319221888
C 7.391527696088535 6.02984783419837 5.332368121804972
C 6.722039857591152 10.023698077593085 5.318930372335276
C 8.271429803402883 8.286017188902592 4.941472826481335
C 5.114189157026935 6.403653694376319 5.714756364216084
C 4.850245432571718 7.8237369143484585 5.5377756531060935
C 6.933701021510728 8.785838438354864 4.521278310529785
C 7.804228514385839 10.45908630836476 7.497977766644315
C 5.749961309193148 9.908093609681506 6.354658730240246
C 7.0576474740773 5.434435529698876 6.61546406174602
C 5.86267722338613 6.952000676500347 7.981734021240121
C 8.636595349066067 9.150405082066351 7.221617467108844
C 5.738872533447929 5.9981266706383005 6.9212738353876775
C 8.079450977419024 5.722050037115351 7.675450666067875
C 4.951722977477194 8.721059340219016 6.591379045154444
C 8.229444026513937 7.807855035594327 7.8324718312808885
C 8.957948216716773 6.83654434670277 6.965655043644474
C 5.342952129782164 8.266619294353672 7.988545810860276
C 9.78184877571911 8.89802830773334 8.149813621743759
C 6.377594749558857 10.205837120389308 7.581201314736258
C 10.045886359934677 7.440618082407811 7.912263682826687
C 8.796025013712166 4.995402677884423 8.779274798906082
C 7.225738029051686 6.7977514609676986 8.564416999332595
C 8.244843549729334 10.367846378374006 8.954702416908239
C 6.095320964809392 9.352376820398803 8.671847424670354
C 9.561770594858915 9.76030610265369 9.27941347992599
C 7.255736812025956 9.522297055439546 9.585385012856662
C 10.077691255183003 5.4843723699900755 9.392076836482905
C 11.147223375169423 7.576789049558082 9.954440510376246
C 10.744117080693512 6.6641698033405605 8.951749452525528
C 8.17646826063577 5.249115926698421 10.02963439895543
C 7.380205252583021 6.421557722250771 10.018879689724178
C 9.41411386158021 9.062529437719542 10.536075258840967
C 9.457808778038903 5.608323421600923 10.714754076558064
C 7.9895366575942495 8.746803446758777 10.608771797858317
C 10.215670604100541 7.9333542619730295 10.922308624223142
C 9.302259193046838 6.867847282179063 11.297694087588686
C 7.925487989288992 7.366554843512008 10.929590689674464
