42
Energy = -325.6630425 eV
C 7.436188496119109 8.604007087113434 4.787155552773894
C 5.816713479949541 6.588303919723633 5.241582090268254
C 9.686616033962244 8.97559925378822 5.493429535434845
C 6.81349012863673 5.495442735068066 5.442797100612676
C 8.92736663436971 6.7859366999080475 5.80561039907659
C 8.778658876619984 8.027894196285093 4.885096950675591
C 7.540538702384088 9.748913311988568 5.7463777995117145
C 4.9047673660734805 5.004085190770373 6.748527767890946
C 6.094126163786527 4.338101608598111 6.047198680728128
C 4.795272924034883 6.3502351124105045 6.249848493640934
C 10.50327188124836 8.301579977044797 6.553436699879925
C 6.166431986316152 7.976571788712867 5.104125386181396
C 6.200684954354038 9.819088877424047 6.572749347201276
C 8.371164341305251 5.411997942204813 5.686274037592226
C 7.631578346290495 8.827530771903076 6.921756330410672
C 9.030124478830356 10.142011923885669 6.014163191951637
C 6.731812530873908 9.57542926910366 7.963302787468621
C 10.206009273917907 6.945417481672944 6.690204396750867
C 8.045713966397447 7.5467982599410135 6.889357339290906
C 6.898578511206293 5.452766966161483 6.984441811094648
C 6.8944874903789986 3.940702640001916 7.33620378732932
C 9.315061193617515 10.007651298441505 7.485549363177424
C 8.205953077455407 4.93526448587038 7.240418763528385
C 8.164701266357195 9.676912403118347 8.309743594334458
C 4.892974713864769 7.631441837514486 7.133988986644424
C 5.826043717066189 4.942164839780335 7.932072769423271
C 5.91308617004799 7.28087253374796 8.208920723604104
C 5.428506852456499 8.7012479062763 6.139097264182364
C 10.311010703967186 9.013529434430302 7.800060892405348
C 8.459793496544927 7.263733906823671 8.180439321051185
C 9.890920319989927 6.686304175048927 8.195882464737656
C 6.153590413166703 8.551889539300984 8.917565433658169
C 8.648354153930347 5.793518892971294 8.533433145063478
C 8.425212878634204 8.459934978005865 9.218190477794984
C 4.672313072488406 7.982042208212645 8.741365388527637
C 6.132325062708579 5.9347190853707446 9.000855922649096
C 7.220186067759892 8.255145484296909 10.082401318611154
C 9.900953115471964 8.08819090754248 8.85140284960789
C 7.5422447366650625 5.820931910301931 9.598274113888873
C 5.554445458999955 6.521622279087607 10.322437391570933
C 4.470456050016538 7.301581103972955 10.071486456353306
C 6.997320111815254 6.891934976254687 10.471823073501442
