42
Energy = -334.33708524 eV
C 7.961556832369708 9.676162929216758 5.00719270751149
C 8.92486148259345 7.396071891345556 5.250725453125371
C 7.683696418258591 8.191094586762649 4.957830719592136
C 6.415696313986521 7.301094608351564 5.169418691598031
C 6.957312049853557 5.988131066715833 5.4156018609964605
C 6.863198763591066 10.481676135221539 5.680844842253763
C 5.4982779269601085 8.042521925225566 6.200761114705804
C 8.469808752017908 6.108859715433395 5.506424556103187
C 9.681989824854503 7.98853703884801 6.532788839627259
C 9.269871818071614 10.227569660621585 5.449101094142335
C 7.522203015092531 8.885228080365996 6.3012994467904715
C 8.303503407758587 8.172171723772296 7.33238648046489
C 6.087127644929256 9.438630093544884 6.4882926386021715
C 10.014946097739298 9.444234642577468 6.473706679098634
C 8.934711486800309 11.26366094210285 6.387739624735243
C 6.610252810894105 6.453774099971151 7.461625634497785
C 7.534139178930053 11.36557844088327 6.606594881100111
C 8.951870448859589 5.7876440227242325 6.890572320448901
C 6.470930277691815 5.243120136235104 6.6502701714903285
C 5.670817685343819 7.496167951293297 7.687054391519576
C 10.027700291601406 6.763677129612119 7.414797476604481
C 7.893408292955639 6.785002169165205 7.422190746536221
C 6.234375815221655 9.86966036093248 7.936825931654178
C 9.535291342741035 10.445100353125747 7.488036234078064
C 7.140243006472874 4.446285970787514 7.762791452223372
C 8.587623326190066 4.7270668845773764 7.890857829779435
C 6.494926864156337 8.613144451680807 8.703418298883467
C 8.11557807015551 6.862392766180124 10.509564658608495
C 7.287992800064404 10.79442519610052 7.946781037924306
C 8.20848424164847 8.694983994319863 8.755464180787442
C 5.073636113210652 6.90326707443655 8.989171256434968
C 8.541293522547589 10.18687331926566 8.453173393995705
C 8.349135113380765 5.4098295455280185 10.264793701901413
C 9.71012483532795 6.645454681730711 8.808364040177391
C 6.3823103261341405 4.553281154532193 8.99793351861378
C 5.910706618900842 7.785585518025604 9.797761062988029
C 8.910112074178349 7.616055621658025 9.603706951206167
C 9.145459143705562 5.295994792069072 9.097419197150847
C 6.6707645775629825 7.0387696547882515 10.750603005287305
C 5.337889986103733 5.572906784188966 9.4654584953379
C 6.055473775028731 5.724644027130348 10.746701193121794
C 7.073225933284027 4.826197166120598 10.256482495471067
