42
Energy = -341.91461224 eV
C 7.922790730770038 6.261982040309979 5.650581652421108
C 9.148337405160603 5.623218088905011 6.0602456662917605
C 8.428104236969086 11.201670562923738 6.350350604189719
C 10.169884890954481 6.297959308850521 6.754837341182961
C 7.650921006299095 7.672087196276021 6.160370699457641
C 6.904020238944249 5.319944549481085 5.932425326349594
C 6.185794017549646 8.071747120811814 6.560352444556495
C 7.061477155684549 11.658887986502059 6.880030230010905
C 8.882188871091214 8.52163522664641 6.554918718276857
C 9.037178334296112 9.9602442845259 6.877953329695417
C 10.032673381728092 7.7017877510402135 7.059681027056471
C 9.354172748730496 4.671226444721569 8.19963856581437
C 8.785407948296257 4.41060942477603 6.910390128791676
C 6.445987409843012 10.713111638053611 7.785438328197178
C 7.433793022084402 4.1969384305667665 6.775359340460641
C 8.961881715008179 12.269495932449264 7.153158598251052
C 6.111252258745583 9.24376276133674 7.637236447080623
C 5.8833888581007345 5.615293598156103 6.848765939761909
C 5.537000416204259 6.924998205354508 7.201284126601845
C 10.396829276086645 5.630988026020432 8.024148148441672
C 7.63714918551933 12.796458954947985 7.608350142842082
C 7.291510111870288 8.744744309578586 8.362411443103456
C 10.45423642631407 7.951697706884468 8.439832352965238
C 6.536682736778863 4.6509722662019755 7.8111717197144275
C 8.019815425028447 7.734198106741552 7.652591335385411
C 8.486050432711101 5.1723659108588125 9.261373111356093
C 10.336605417205671 6.632250747341892 9.032775180528834
C 9.621983892003803 10.240915361881951 8.126167712296942
C 5.403690765523988 7.113603668135638 8.63130494955211
C 5.554143221867395 8.502557548630984 8.872467511965448
C 9.38188880581645 11.685896967373214 8.385970763794003
C 7.996132052076555 12.088198243438352 8.842087928724306
C 7.185156402942051 10.922252251429637 9.00714106620226
C 9.18335801915073 6.359635299956614 9.84894026087676
C 9.892703268057913 9.109365575953316 9.043287774348821
C 7.0480890487177135 5.203682316646395 9.042912830016677
C 6.508110497713539 8.631970107965518 9.956269872605722
C 6.323483173068042 6.377417767964893 9.525853146733427
C 8.884911442999062 8.851429734706548 10.014869706818368
C 7.005825787536995 7.3498530000699125 10.343948627654589
C 7.595494763603707 9.577893482430968 9.601267931752606
C 8.459350492049092 7.474507384255291 10.351293258973532
