42
Energy = -341.19919311 eV
C 11.78937791515786 13.50157345477064 14.05479570908628
C 11.52282325700913 7.178157931309523 11.609242114809527
C 8.460532791442553 9.335611554366105 8.446677377006209
C 8.17353996270502 8.678449735244243 12.05145420556185
C 9.199603117577363 9.773432139842965 6.1856129193828195
C 13.977292810289255 10.49622621421096 6.495307251086625
C 13.45151562466987 7.92560547344995 8.531329978733387
C 9.258418268635612 13.170319207946791 14.103549869463016
C 8.150248289540905 12.662356186313977 13.830244549702348
C 7.784935126723915 9.20926970129763 10.831422178652485
C 9.531450997626939 9.305499535348762 7.475872069220096
C 4.723843538734668 11.242429371570704 10.697390469233934
C 11.978423469007563 9.157648098497642 7.007217733639586
C 3.9303175900138836 11.489052454846885 9.619509145107408
C 12.44224700478378 7.268196176144078 10.77924715563608
C 14.791123749432588 11.888824802485662 12.423825214485106
C 7.1467483188522145 9.854476205265975 8.10552895843648
C 6.345335447567166 11.350310591973559 12.584544193730338
C 10.54194769329023 13.481604851587216 14.172487666589943
C 10.23673051125247 7.704592254869355 11.466120975685223
C 6.2248517312627145 10.140927348232347 9.173582395472291
C 6.950910079177483 10.213465614267049 6.7631599708010235
C 7.132191602549658 11.9837436550874 13.30371624411677
C 14.382328630552923 9.274278195457212 7.141991796274957
C 15.239739115812286 11.082328752724484 11.578786314274579
C 14.032706304929096 12.657649168688126 13.18382637567504
C 5.008336738091555 10.821265381069232 9.150033942288426
C 5.80745941879798 10.772740624146126 11.426047036347173
C 6.631548775529005 9.98517256031551 10.52495355008236
C 12.422933703568404 7.717683005058312 9.46195822486622
C 10.83817679930465 8.860459705943626 7.843981784524272
C 7.981088907629908 10.141308448470006 5.9803870082914345
C 15.339706350449546 10.236222038504891 10.563672675264332
C 8.745027236231008 8.884785582347273 9.785094773429766
C 12.690714834257525 10.347000225294574 6.637048529458391
C 14.684047891173234 8.834762191283989 8.478590317910625
C 9.178311288135367 7.988587470097141 12.314344587700095
C 11.053518776900582 8.198880003276273 9.098678458222714
C 13.148288459704233 8.411192697827433 7.257830335193911
C 9.989122147325284 8.213684485302188 10.085469248657263
C 15.196769675113575 9.521354240237239 9.554219502380871
C 13.02110286238847 13.194763888731767 13.694586150667831
