42
Energy = -339.72468726 eV
C 4.984429641794786 8.469891149058158 5.30586831070345
C 7.245671982984691 6.340344258617576 5.149165319304521
C 9.095223340658563 7.220665487171913 4.99762849385506
C 6.106074544376402 9.324837884067158 5.027451779564941
C 7.82229713326066 7.64866092676229 4.628680636404565
C 4.964255684784024 7.1186849737257365 5.841175853782837
C 8.64206408372595 5.893424370863417 5.474538148047351
C 5.802007969897597 10.1735606962219 6.164451668308783
C 4.534299051339168 9.444411500557354 6.349830825663292
C 6.031142233702925 6.110207657564468 5.84634269541892
C 9.361315014401683 5.565395322427183 6.639699526234175
C 7.450454444797832 8.957216309627436 5.015484096146408
C 9.916283833036314 7.827673551660869 5.952991241021353
C 6.952938823423577 10.175347888577596 6.995724293734141
C 8.1060428550932 9.595707440997026 6.159133405318712
C 4.224306704323148 7.3072248631894885 7.063028456175562
C 4.021945249303514 8.7568905538563 7.409967353314137
C 8.713582791258125 4.8861121022455825 7.812528052795826
C 6.350552512612566 5.418108297266791 7.1604556516562985
C 10.39542951758419 6.653513580071477 6.749679404373662
C 9.320752379815445 8.98608668688435 6.684375139152186
C 7.405705156630797 4.6328690842674005 7.388448299965333
C 7.216150680371404 7.35599459079932 7.796716316140681
C 4.821133015067141 7.070179551531438 8.313724287780314
C 11.222689964228266 6.853161310577625 7.788775265763241
C 4.769792404466755 8.504032672636221 8.631015589620144
C 8.979002136595195 5.15481497054714 9.186439048564694
C 6.935366258482534 9.932951143997954 8.431553084811132
C 9.28539321210185 8.891678604463657 8.260989024603996
C 6.174745821394292 6.47446185156821 8.339232316919095
C 10.817039820797076 6.902036329767823 9.111337499429288
C 8.37865329089921 7.759305707987075 7.903889781187046
C 5.971224697920369 9.038168141988978 9.119170005354727
C 10.051050107821636 5.90771936283472 9.79933869194145
C 8.183542058620946 9.623185523573868 9.058427094050698
C 7.967631791573832 5.914730317805262 10.132235421585701
C 10.12364112250758 8.149401257375596 9.369425071542631
C 6.801269837267616 6.647880400813194 9.773991343798771
C 6.765235005533783 8.123072481848915 10.010904310116139
C 9.180045398381694 7.998730464962813 10.448585056359672
C 8.018467077395801 8.780866668622279 10.22225789082987
C 9.087650995060331 6.607293705909439 10.681843893951147
