42
Energy = -339.390844 eV
C 5.618097982105939 7.180315605837814 4.813573328001511
C 6.034652894185635 4.895839020752532 5.427218323271999
C 6.503742041735773 6.0778556714746985 4.604124087761071
C 8.375208996510052 9.23359857904532 5.616367575351382
C 4.999368094168272 5.354962004402944 6.278024270217637
C 4.691026472719168 6.690542361330351 5.855221310805643
C 9.316329250721816 8.066723873254318 5.404796506616334
C 10.34881790180348 8.25310635250281 6.363319030494591
C 5.89376934444947 8.589449829699904 4.873488498003215
C 9.042212297137532 6.5872102123414615 5.32137181579265
C 7.021897747325152 9.29864626610414 5.2941904604747485
C 9.830553564671899 6.002309104803973 6.4621602841426435
C 7.891849531902107 5.843693782610417 5.012385792263852
C 7.347032646578135 4.709354894831131 5.914795309437592
C 10.59642119307487 7.047684050016759 7.093678434921272
C 8.77429857909032 9.85092880982881 6.913417146829218
C 5.818001134298332 9.345777650690241 6.178460679968254
C 5.442633048342464 5.895819846906587 7.650310884752533
C 4.933700594364433 7.28053999078971 7.23031132369284
C 9.984165743060856 9.275136560894374 7.327417250337593
C 7.404366924439273 8.237599480175582 7.650657086278253
C 9.88405115494983 8.6402297580307 8.645204742251227
C 5.420160581932642 9.631820816784604 7.655780740191854
C 7.798057631610532 4.721082965069579 7.35493879806844
C 10.248273074964414 7.252386719185702 8.465417395681357
C 7.884342973220459 7.021171016259515 7.838422239447365
C 4.725778605171335 8.372922613091644 8.264742057673313
C 6.055413817378365 8.268176985335053 7.193847655358642
C 7.853878275066548 9.66503046077509 8.130539265764085
C 9.143944438055673 5.329572995265691 7.47496986456115
C 6.9612520607384365 5.958393765900185 7.669375007257837
C 8.664822125704529 9.042775830526024 9.28754815885374
C 6.4699673338961565 10.031180965317668 8.644761959217185
C 7.186849233144016 5.030995135022225 8.925057205038318
C 5.774720515700705 5.5950846600411435 9.10587480089781
C 9.11433464498177 6.290657086205636 8.64443791596112
C 8.12752716023869 5.8995733820285015 9.711584925420535
C 5.351828990354016 8.094582244345046 9.548164808908806
C 6.373401912496516 9.086380705129981 9.733799531446273
C 7.3476237612349475 6.969256510202175 10.256833492067976
C 5.929274197386217 6.78048944640787 9.892069124753093
C 7.651391465783991 8.436181927478643 10.106380848460734
