43
Energy = -331.62117934 eV
C 6.1584900763906365 9.796088317710671 13.187501131915608
C 11.126048152088428 12.976921850086018 13.034275233543486
C 9.092289832332913 8.509586429213671 5.8921902893483145
C 6.713835831588162 9.32799791783676 11.840369179166649
C 14.2291792947496 9.810597585196154 7.792856114549697
C 5.139484128158896 7.929221737863903 12.634354891640413
C 13.427501322405158 8.796833332483533 8.623303289858839
C 6.98705011203697 10.659310479996176 11.433537657632655
C 6.268977917245447 11.074939764792582 12.622595214878979
C 13.997592131033947 8.161800924544137 9.83018810222957
C 13.604287037611229 10.842711517439371 7.387628884970225
C 11.693034508361425 10.872306409671724 8.677101792766758
C 9.426543604082257 12.853853069607334 8.058415009081656
C 7.906054594430679 10.46695672425489 7.820882598720259
C 12.471302880706261 11.452522888434322 7.691007936230523
C 12.66325981321076 9.122806715334487 12.945662086942928
C 9.142452878426672 9.796431469917486 5.843125567172052
C 11.279272467087265 9.38888380458464 12.674615916534973
C 8.782420492559137 7.335111715529604 6.29736796943894
C 9.623689573023235 12.334137896473088 9.373466983813357
C 8.550520589516418 12.223280525404688 10.24805185876809
C 8.122869771316456 6.701112955355229 7.234090833957103
C 7.396838878997509 6.504512233886378 8.245195404204951
C 10.659518784197564 11.356951542528066 9.59036125440155
C 6.262589150297323 7.307476767767108 10.391946103702088
C 9.09021019589814 12.15113205672467 6.89767370020675
C 10.607905063534414 11.840765999384118 12.778904621592861
C 12.85602554826638 6.969362677672382 6.682417654234229
C 12.956354776540092 7.8120645337899015 7.633124889795467
C 5.998069947808851 8.053065714446921 11.517749848089782
C 12.180315566744236 9.567465189378 9.175487423506848
C 10.680088531398807 10.613111444255187 12.162498689802218
C 11.488081051717511 9.318424103208875 10.353873796277174
C 7.542895148888736 10.606853104888804 8.99312550114337
C 6.771352903070372 6.8045192440832 9.36099508648101
C 11.62699788209506 8.516578607559955 11.52989893179898
C 10.683904610940376 10.462939020881954 10.70214320706266
C 5.3109761445978965 8.79707760154534 13.600505446248238
C 13.799491327194305 7.828054331341755 11.002769534351463
C 12.881963862832325 8.005188221083325 12.042892618334866
C 8.707188365485326 10.782850745027604 6.68768932837231
C 7.596015773512377 11.239966601868879 10.270241651196823
C 9.132634275425033 13.577405072416383 6.89058429032643
