43
Energy = -351.24511985 eV
C 4.189342615878698 6.2778398243824585 2.09207753109031
C 3.4833409975188903 4.00505227201347 0.6741057292021064
C 5.184750902950043 2.7516215218300326 1.490059655380994
C 5.234890455130094 5.3033282457552 1.897613119830342
C 1.5131233788233516 3.8197745613338663 2.2501878174522303
C 2.839182179338456 5.7936207027397915 1.980780472693597
C 4.248618021706294 1.6920304688949022 1.890276472066302
C 5.7086208101962646 6.685349796304314 3.803813240636347
C 4.423747552020254 4.88362128261823 4.771761770417888
C 4.798119780766965 4.09703920738241 1.1886872241425581
C 6.19922958513781 2.264743265074169 2.4170000217359844
C 2.4275150234567717 4.591279215154171 1.3203110118960608
C 4.45940473184438 7.127980862497436 3.2547244693603505
C 5.321653775623374 1.2028708884103734 2.8202458526203253
C 1.171373079521468 4.657948381451174 3.426768687586902
C 1.8622603781546323 2.5542023287238007 2.797567041276132
C 2.390966589375684 5.372112584973707 3.297283922213969
C 6.166717225691718 5.474476829249681 3.077009901167338
C 3.3852579522399 1.2040979327094044 3.9733661486090988
C 3.4841010762295626 4.799492034241529 3.995018929694577
C 3.018200610380713 1.694391175136992 2.619083109121618
C 6.8034031941046855 2.9892797265775264 3.4361473507544193
C 1.2231901230647673 3.9204943528685026 4.678153193224344
C 4.806787870115682 1.0965845849848563 4.119184044632727
C 6.579927138676044 2.6036052478756173 4.84005758162947
C 2.558751113719277 1.8100436548836427 4.956683833257557
C 1.5871469638632723 2.604350046390116 4.26344570782747
C 6.793080423804896 4.3955265514955375 3.782867097798109
C 3.4225603242328826 7.427074977091272 4.203449486066508
C 3.136996380564924 2.324314810798038 6.141150906053521
C 1.837107404866245 4.490075488517466 5.882685148072416
C 2.6814453987162215 6.899681009508785 5.0891887949033325
C 5.101509338691709 5.603205894366496 5.900319732066506
C 5.783476663393384 6.727031384458005 5.2147574471927545
C 5.454816151524759 1.7896635749621428 5.233718924710319
C 2.5106986367635744 5.840414603751625 6.028829545342467
C 4.988267289949554 3.5195137670580006 6.944160698767622
C 2.6368925452917695 3.554360888650883 6.680475517683821
C 6.762581594978458 3.9483404815087164 5.29416735403446
C 4.620551134994708 2.297035140721607 6.28400634881762
C 5.941035432844547 4.400099134396827 6.319023069934493
C 3.77963039782649 5.556500607082282 6.73168367688222
C 3.774675065927818 4.244878001075565 7.2330497220532495
