43
Energy = -339.46779483 eV
C 4.675659182344236 5.390092892207098 0.4852862082124974
C 3.340133171998581 1.4621864665749484 3.7563338689645245
C 7.5935068448549154 1.663915867535143 3.013952282391961
C 6.6776736184688135 6.17666986966621 2.577321050749701
C 3.443664790503909 4.807397325939237 0.5018505507697864
C 3.7670826013835654 5.6953615508838435 1.5252029527633397
C 3.529568006619463 6.387154718711417 2.7242044128889753
C 3.912277015514947 2.7324544897755962 3.9401195222170196
C 5.940742036709223 7.085217475417358 3.351662373199746
C 7.6361208417767985 0.9114981714257657 1.9510217802550842
C 2.3163702527164833 1.336179742544565 4.540324936790556
C 7.712322447552757 4.929630381055026 4.288948095509969
C 2.4254901593048834 6.108185664999208 3.6590677614004794
C 7.492481255225987 2.519598047568188 3.9659419687427553
C 2.0348707937819577 4.7217634823121255 3.949956795994104
C 7.462307171536793 5.273344504979687 2.9503350073473342
C 3.3028200548705082 4.042710381372826 4.026319380379906
C 3.8659154277769234 7.741431666469645 4.571246795349359
C 4.485010439524292 7.294247202767352 3.3596563843660516
C 2.666337350788693 6.932309664756365 4.8028989798702275
C 4.91633689747871 3.163237563622124 4.8620443281033365
C 7.535400400421185 3.58728395655785 4.809686552654912
C 7.387859260849504 6.005131590083265 5.161216946863182
C 6.0558785300007285 7.799214343570191 5.7374007761474575
C 6.809098138244692 3.431301495495841 6.051644107948982
C 1.7056085500429765 1.6992979102503094 5.630651498581824
C 2.7508936536233133 6.147671260963862 6.002632581639712
C 6.674360836470646 7.1624076511888015 4.625546445275871
C 4.155370427156404 5.638553630643558 5.943527812585713
C 5.694530646154806 2.510999134249581 5.914412401858811
C 4.367227719769514 4.5831334446596745 4.972542346407863
C 4.6559892665122 7.972421489291356 5.716817004015494
C 6.943994632778293 5.769638436924882 6.565945466418591
C 1.4713474546542937 4.297534209871052 5.223152762520339
C 6.518850457681417 4.452189737953479 6.980757617034076
C 4.919143551357598 2.740690959019919 7.134356736224056
C 6.22089293976309 6.913960774713091 6.951334068100915
C 4.866012268445539 6.765156876923355 6.559355206598321
C 1.9640740310133162 5.077273404168176 6.347557697450277
C 1.775189560793877 3.0149780989332764 6.008648722722738
C 3.826828530551206 3.572979867215443 7.436861916605009
C 5.291023024213204 3.9556000242566065 7.719026921881779
C 2.505441508661603 3.819700322373934 6.994934724088028
