43
Energy = -350.06412377 eV
C 4.41586573645525 5.7405919364135265 3.8769898137657197
C 6.102186228924798 3.9976284676151743 3.8619748362237183
C 8.40701220845774 4.806493389744788 4.065828171320575
C 8.052670018457713 5.933282541197699 3.3476573383625774
C 5.96088185334946 8.358552483084063 4.150529149779249
C 5.624606124324185 5.258450833165302 3.363741727590821
C 6.663750838350765 6.168668663738643 2.902850793525948
C 6.795590797955755 7.5769105903269915 3.353104788268245
C 3.05355589107999 6.362749237732438 5.755587817658899
C 7.411267404221702 2.9946184959504487 5.183543038165311
C 6.692166867931212 8.964877397186804 5.242063527036346
C 5.920088964487816 3.2748305724352207 5.148999711543749
C 4.483941989464983 8.843612219398025 6.112807702134366
C 4.620170512657701 8.029556504113977 4.826234975893108
C 7.519195015363156 3.6981259634700487 3.9400261180236744
C 3.8226008873455726 6.72616949912625 4.59123216619268
C 8.144902406292125 7.2303983558130085 3.911878151399514
C 8.741852232149661 4.9193173653026525 5.473793584955439
C 8.24831650137586 3.7381628592238076 6.138581272222152
C 3.272789784286937 5.221275978288538 6.664088231924154
C 8.534723201776748 7.411295764863647 5.284823959120619
C 5.982069016944665 2.714848963918803 7.3424916224617744
C 2.836242076167208 7.2792597074002465 6.9100584619435335
C 8.721417785628757 6.224087566643969 6.123582943868555
C 5.634879390141214 7.54775436448137 5.895395216839077
C 7.839983436243868 3.7703735212843164 7.496092569341927
C 5.205057457307795 3.3637589538098025 6.373621398007009
C 7.923519056602138 8.54275588342809 5.8971718910306
C 7.297627395985241 8.559946684444343 7.196663483971193
C 4.942059695573115 5.022404316779759 8.269681447587397
C 5.924318467716532 9.023265776888474 6.450789002418774
C 4.380925454388095 4.406873355399591 7.021280159883574
C 3.6074333009942543 8.435665540749335 7.186627467066813
C 7.059750437127493 2.6313725302651485 7.962971448332473
C 3.0455234159601283 6.180946585268929 7.786280783476044
C 8.146782537759236 6.2633235257168005 7.447095751963424
C 7.575912700966372 5.069320032070756 7.9865581205966585
C 6.289588835625425 6.874493567018032 8.81880033488094
C 6.30185986189286 5.448700501919796 8.584446328636442
C 7.3654023185848105 7.412180635195615 8.003080174080376
C 4.362590501494139 8.46898167117986 8.396705654676182
C 4.907741845553459 7.3175917831277655 8.914450873323982
C 4.09751487770901 6.122860745892682 8.676153321580609
