43
Energy = -325.5703167 eV
C 12.440800138568408 9.139093246593909 10.146836086655806
C 7.298189662303812 10.115567577866235 7.869064610569479
C 12.540494980957805 10.453567711822124 6.936666434224757
C 6.806367236460061 8.967035359541812 7.2756735689294025
C 7.949229088233829 8.607933929605476 13.537506041806731
C 8.700727764741883 9.068317629652066 12.551071566490963
C 13.031178932505043 13.681215052278999 11.418798665624744
C 6.447345386907575 13.756064333664316 9.631814736135977
C 11.447312297108612 11.230814372984772 10.79029209729249
C 10.864306825436609 11.006004673862261 4.984740808955789
C 5.5431101649333545 13.09620643076403 8.931488930263196
C 7.155842222728743 8.196850358207554 14.600784147242722
C 12.023623515175853 11.484650011076925 5.279579255241245
C 9.240739531240274 11.325838281735845 9.583280957728293
C 13.599477728066914 9.428254644650904 10.873909086345915
C 9.58856880181994 10.442805856062732 8.539274887270047
C 7.940464574340009 6.1648611230853625 12.961207685493791
C 9.433281963730193 8.87919240115707 11.557046730917719
C 12.488891462969312 10.35820719832312 10.797731009865943
C 8.164549429032368 8.587864222004763 6.0695225549666985
C 10.447757617025148 10.046706553541142 5.917049954591396
C 9.314352705522795 5.64514300969278 10.895685961164677
C 7.051967492154419 7.917300393442637 6.460246940654732
C 10.744352546545754 9.591846357624725 8.391038349991579
C 13.375012892249641 7.0517325551410845 14.312695322713637
C 12.426122075675002 7.861060709622025 13.6803186959897
C 7.92774655674667 11.948887839049656 9.483672867345438
C 5.612898500343947 11.885946259881136 8.520383193937581
C 7.578234211212309 7.17355788931081 13.728780366688204
C 10.50267202366637 7.366307281496874 9.822753505961545
C 8.569125335840747 5.708827410504043 11.956341000350042
C 6.831804470153707 11.226257720433361 8.691115576698655
C 10.153435815723586 8.477030152588837 10.527870432701576
C 13.033905361967724 8.285727949710267 14.829410262177957
C 11.338517152000366 9.812884248966187 7.095157057210603
C 10.299671858348535 11.60934975738616 10.475541183116722
C 10.105385414510918 6.0636904925415065 9.983236440040779
C 12.952550139643511 11.449313004624196 6.239344058872588
C 11.210531165885879 8.693802486577837 9.483543643901204
C 13.475651915103384 14.644970209572515 12.232811627747138
C 8.65893194028022 10.228329990397839 7.473651101178565
C 9.069130938782303 9.593303745999739 6.266561449162519
C 7.5766304666588615 13.22466473991075 9.90294341453334
