43
Energy = -334.61202227 eV
C 12.403891343941709 6.88883184676314 11.65654258142505
C 6.222548566462833 8.174075611147504 11.902213841473332
C 12.085568085387767 9.968763829575357 8.243795558116032
C 8.768891715022967 11.845484507029331 11.973312207731416
C 11.49340424901001 11.283551124366527 8.028485939538308
C 7.0597174281678745 13.255144714751326 10.845513898591838
C 12.995371929878488 9.170730674101062 10.547877617738349
C 7.3258014173787664 13.513732816812366 8.57176698044333
C 8.464872796826599 10.929670521130937 7.658215485432409
C 7.519585619325292 7.3481281980803015 11.398629611994005
C 9.207104313673941 13.566387134925655 7.234593869207921
C 12.418251250871652 5.661469713847575 10.888846149970005
C 12.522168694373141 8.259253054308964 11.472932404090619
C 10.946178105719254 6.763858897232234 8.951147157139275
C 10.228905326182334 11.73174534117782 11.646089622021131
C 7.718686635817372 11.818036683022399 6.6910918739907475
C 9.319649849509254 10.18906174218878 6.645717520130802
C 10.364964916042354 10.71588946593785 12.701596486987997
C 8.960660976492441 10.508202203235403 12.461965421417883
C 8.160806232044274 9.331616191112786 12.260791453893349
C 10.8580121307073 11.911179269881828 10.455634965846802
C 6.55981466454154 13.608800110937642 9.659083520811434
C 9.084209716964569 11.63471880779418 8.74771910698801
C 13.197847148818147 4.568725473277914 11.04031177345324
C 10.166567893542824 6.660680597521332 10.25666748900069
C 11.259676194507072 7.765997740064349 11.870491633588868
C 9.961803000955602 7.587451025749417 11.337282291665653
C 8.764410722512357 13.067896048967619 8.520631468771134
C 7.763292022430984 12.73599502549216 11.752732304239753
C 11.316034692300876 8.882506071400714 7.535684677851017
C 11.245252452846783 7.576966570187244 7.986566141364962
C 12.654773844013445 9.659795261996882 9.452476548626736
C 8.668623294430482 8.1097639676734 11.689179253569504
C 11.261072890440468 5.845915406291736 10.003274651428997
C 7.714297131015921 13.184299939129748 7.2300587058003165
C 6.2609028201231585 6.917141944376237 11.333784975861631
C 10.458170916935424 11.556341575519575 9.238188036955625
C 11.181378967304408 12.084861472304054 7.028121057880368
C 9.02961355659364 11.562553427145062 6.109609234318219
C 10.011826985191043 12.600677595028174 6.518955161809834
C 13.71416444691964 3.441579312880959 11.364085869330992
C 6.736349591008799 9.285220788396684 12.303538095074869
C 10.331429709622043 9.38966157530505 6.705877830502126
