43
Energy = -343.33749072 eV
C 7.591408906913564 8.342056221291257 4.813802267132242
C 6.6034775335103335 9.215616021380354 5.386988967098454
C 7.347188684855258 10.229134630219283 6.096586348865293
C 8.922269104606478 8.86804615838739 5.055443429553606
C 8.763904387704995 9.984526859874167 5.968762101783392
C 7.787069239755882 7.035436113603869 5.313928771821609
C 5.534416347988045 8.799813084678442 6.216748857325601
C 5.515357957797728 7.442694845674194 6.742558384444591
C 10.766449881161773 7.510959434072145 6.41266510977736
C 9.327394513775424 4.481975526455482 7.009085735561696
C 8.780542633213809 7.7708585373571655 7.182806155070371
C 8.050276436434746 4.514692475702954 7.034200746673937
C 6.6899638453853205 10.467085937748237 7.3594080566848055
C 5.454841698908861 9.707475507203897 7.347539850144975
C 9.58666755833717 10.033659371228882 7.15754756199245
C 9.315493126360964 7.612636907308581 5.797976454729182
C 10.955888393478917 6.50394461944703 7.373938673176197
C 10.671792716494602 8.915566065520004 7.326060359898108
C 7.027549290682139 5.313972051613029 7.363250128269055
C 10.175812117098008 5.298426469088617 7.701091145685911
C 6.811154008953263 6.6249559052531 6.503338006602567
C 9.649242728106016 8.081869513203477 8.28066389395572
C 5.1302432617348455 7.509342983343178 8.128578812427804
C 10.677853749884399 7.063923710415307 8.733318298772726
C 5.1066602368336715 8.929884632402407 8.495039843769598
C 10.974521245967798 8.659223848252068 8.780023164231908
C 9.80599654947933 5.770995680773802 9.065621804030894
C 7.052640092675408 5.672057700389927 8.874084272231759
C 8.90435612379778 10.222251648128827 8.43129697715266
C 7.300003359065728 7.1600899249938825 8.875761529266377
C 7.474481340758157 10.550673849259802 8.559804556047785
C 5.887275461269509 6.869822989886935 9.25419925321261
C 9.52517074340786 9.146019436826343 9.339376387908622
C 5.69121641476471 9.175130995143515 9.753173908136787
C 8.168444325234493 7.168659620905597 10.206034750310812
C 7.5846599810205975 7.42816361203105 7.516251539204972
C 8.528919716947602 5.826956406227812 9.64295517455579
C 6.782206344410912 10.18040318134586 9.818726898871102
C 5.952519450826069 7.889829838091192 10.416725554786357
C 7.109601106820294 7.734405758102763 11.185856279857392
C 7.506821551922843 10.253378009948678 11.012508359080822
C 8.95998941311434 8.44230635452813 10.509901900960042
C 7.906204517795557 8.949023661945851 11.314315828192177
