44
Energy = -370.97319316 eV
C 6.031538456468867 9.665149978075947 7.133974581333192
C 5.824861007326147 8.451097218607199 7.812170476138108
C 7.219004974533936 7.283349968451459 6.010216661767473
C 8.047354614827274 8.336603558343102 5.4658710870684235
C 6.558877399659649 10.829258963386819 7.70078583192621
C 9.564612580124795 10.061019483021763 5.988433076039507
C 9.42425537783115 7.8054014173689765 5.420144313509178
C 6.021915909262398 7.4483832202840645 9.96200036813224
C 6.352299419219341 9.84998988710211 9.875380405532649
C 8.15034500117208 9.76227571385923 5.7542197148691905
C 10.25579701619276 8.794786874447222 5.930420932981758
C 6.361282649739796 7.263400482930252 7.2228069510791935
C 5.8199380729500545 8.662356265284432 9.282410271868587
C 7.049459827114424 10.304034024416412 6.433404151115517
C 9.415782402101257 11.746881985926146 7.807251434851571
C 6.780501089467854 10.999375524651256 9.066109445205667
C 8.058045025094307 6.11212685525266 6.1307139040137235
C 7.90313341364306 5.468926626600822 7.360919852541968
C 6.78388897299146 6.114089806383587 8.035112614073787
C 9.402621568835668 9.308197962463897 11.699446154872017
C 10.237859115344728 8.318837404429166 11.195040844909611
C 10.90940985429016 7.316768584042189 9.238921162236943
C 10.902617117880737 9.837619253097438 9.32541235711354
C 9.430244061188548 10.609983128887473 11.173122410072873
C 10.91394734489543 9.796899996773568 7.891063803570192
C 10.14415751292253 6.22765877738062 7.144688172419547
C 8.131123333677 7.351308929624723 11.356370160984063
C 7.201519229501471 9.830205071528422 11.093943669011209
C 10.134424570984985 10.885998822592981 9.979944314002294
C 10.90781482740764 7.276090151712127 7.804510984755608
C 9.54706368538393 7.0525578552183426 11.13224861277048
C 8.026135803328044 8.77689653778043 11.643990132901902
C 9.22993760821021 11.734184054634401 9.152280530486495
C 8.041321024203194 11.001443112227289 10.9793585599042
C 9.233923468055833 5.379612113231541 7.966022067945757
C 9.410475482306255 5.366988319732524 9.31225362857072
C 10.074292529280696 6.361191427012468 10.005950178021896
C 6.552982187139249 6.284136592909304 9.398788763764552
C 9.448243562383476 6.503633778779692 5.946660731106069
C 10.084095178265496 10.752475923047948 7.118299831727684
C 7.894951760224301 11.644589203142097 9.748090560434733
C 7.035090375903318 6.809458683495572 10.669578777349995
C 10.986089411125748 8.544078112075887 9.978196780830174
C 10.995673656777146 8.569585829022497 7.15237821542586
