44
Energy = -351.39403942 eV
C 5.200940301435167 6.251802566910558 2.773062480116183
C 6.066499927776193 8.680375558555989 5.050799974525655
C 7.606154531738367 3.883815599535895 5.487645732215959
C 6.44630213325105 7.223537683192698 4.543196682708043
C 5.273168277853627 7.077493474658 8.4329428855911
C 6.185946983392923 4.246237303084152 3.9848055363435995
C 8.80805912921192 6.080488172088546 8.343529088204109
C 3.868626960335187 6.461357424963013 3.246943551849628
C 9.57715286506684 5.9161176853716215 5.109336482469215
C 6.389388830086254 6.249238814496774 7.926088588166638
C 2.507597863715619 4.845868832692309 5.738421905947383
C 6.00972497629502 7.3295599544199455 3.2284339065182763
C 3.841846943618416 7.591560331499415 4.1748170718925355
C 7.514006406139544 6.441782373311758 8.731557997741813
C 8.645147885507503 8.146235310373294 5.126851927649803
C 5.9660429837010245 8.638933842506763 6.566193801673625
C 6.495167682581861 7.153048876989565 9.308026187410578
C 9.055451205569055 7.0175279309026655 4.393755746661874
C 3.31431061443817 7.478368525305946 5.42066689947044
C 3.2339049162347533 6.355690360816779 7.590076142661778
C 6.653082337094059 3.5982786121302595 7.5221427894101005
C 4.945861101198412 7.990999428138183 7.286598985609357
C 6.228965326855753 3.462502568438107 5.236812448026069
C 7.6471913397197 4.642081939466077 4.261943381640425
C 7.891440948806181 4.077469290296416 6.912474600512756
C 8.89515501287395 4.984551160087432 7.366461495770292
C 9.692261959049356 5.8142663199409546 6.468464778911935
C 5.1613421517062585 8.295193746154098 3.9594894322610212
C 3.67619683339315 7.47856453391631 6.76872007601971
C 5.171157603332497 4.838943025255321 3.2580380339198887
C 2.897751488989765 4.616912715264326 4.572336781027771
C 4.580479375449453 3.2556653929623356 7.409882761597199
C 7.417325159369182 8.86725567360048 6.61255088768084
C 2.7649487106047244 5.074181710629361 7.070400186688032
C 5.50949152011885 3.8209555407690172 8.403467257888707
C 3.514818390686833 4.09605084429631 7.807887708023592
C 3.7251405336075463 5.038876236544036 3.5812481929628834
C 8.718107911671861 8.060013169913436 6.609331927423716
C 9.323403879298896 6.9912731986383125 7.272803493680694
C 8.618329333035076 5.6354327979413945 4.1238136457693715
C 7.516191019304146 9.086938292753382 5.189296654651853
C 5.6790255499761715 3.1362499541955158 6.472705237497198
C 4.401424898130754 4.742279399556609 8.798681679820032
C 4.168450289646948 6.129007919305358 8.660279065256871
