44
Energy = -266.55670837 eV
C 12.07675332 13.186833738486152 12.07675332
C 12.07675332 14.611821677150193 12.07675332
C 14.121733941857869 14.121733941857869 14.121733941857869
C 12.07675332 14.757591157929168 13.814881123952569
C 12.07675332 12.07675332 13.186833738486152
C 12.07675332 10.966672901513848 12.07675332
C 12.07675332 12.07675332 10.966672901513848
C 13.186833738486152 12.07675332 12.07675332
C 10.966672901513848 12.07675332 12.07675332
C 12.07675332 12.07675332 14.611821677150191
C 12.07675332 9.541684962849814 12.07675332
C 12.07675332 12.07675332 9.541684962849814
C 14.611821677150191 12.07675332 12.07675332
C 9.541684962849814 12.07675332 12.07675332
C 14.121733941857869 10.03177269814248 14.121733941857869
C 14.121733941857869 10.03177269814248 10.03177269814248
C 14.121733941857869 14.121733941857869 10.03177269814248
C 10.03177269814248 14.121733941857869 10.03177269814248
C 10.03177269814248 14.121733941857869 14.121733941857869
C 10.03177269814248 10.03177269814248 14.121733941857869
C 10.03177269814248 10.03177269814248 10.03177269814248
C 12.07675332 10.33862551604742 14.757591157929173
C 12.07675332 9.395915482070835 10.33862551604742
C 12.07675332 13.814881123952569 9.395915482070835
C 13.814881123952569 12.07675332 14.757591157929168
C 14.75759115792917 12.07675332 10.33862551604742
C 10.33862551604742 12.07675332 9.395915482070835
C 9.395915482070835 12.07675332 13.814881123952569
C 13.814881123952569 9.395915482070835 12.07675332
C 14.757591157929168 13.814881123952569 12.07675332
C 10.33862551604742 14.75759115792917 12.07675332
C 9.395915482070835 10.33862551604742 12.07675332
C 13.814881123952569 12.07675332 9.395915482070835
C 14.75759115792917 12.07675332 13.814881123952569
C 10.33862551604742 12.07675332 14.75759115792917
C 9.395915482070835 12.07675332 10.33862551604742
C 13.814881123952569 14.757591157929173 12.07675332
C 14.757591157929173 10.33862551604742 12.07675332
C 10.33862551604742 9.395915482070835 12.07675332
C 9.395915482070835 13.814881123952569 12.07675332
C 12.07675332 13.814881123952569 14.75759115792917
C 12.07675332 14.757591157929173 10.33862551604742
C 12.07675332 10.33862551604742 9.395915482070835
C 12.07675332 9.395915482070835 13.814881123952569
