44
Energy = -344.41183917 eV
C 4.559711169279035 2.1135053057730273 0.9331265673750055
C 3.545064328410275 2.774537918882042 1.4667572255214065
C 4.73655742649552 0.49724855420734565 2.5076197403749756
C 5.527217563411087 1.499371704323898 1.8191185681783504
C 2.377587610650199 3.6309566412017458 1.2117237524227646
C 3.9482013614504092 5.665049321178976 1.782250732502194
C 1.2969637819981177 3.584967252752381 2.2192164139422164
C 5.268660921471762 5.009988761681313 1.6060586995021708
C 6.083501507494316 3.863344189417698 2.3207276861625243
C 3.543166360464478 2.8424168378147607 3.032744472315416
C 6.453988133499934 5.303928648393059 2.2150528135801992
C 2.725643177066516 5.032312184897856 1.5064079308135485
C 6.506391415642417 2.352426923856063 2.375596732353669
C 4.470142208180314 3.147175430590691 4.205552988833872
C 2.6238628931047074 6.840432097384501 3.827608594019009
C 2.730601805175418 1.5683449583493385 3.485280117161165
C 5.844166486328755 3.60866935157536 3.8743556089522184
C 1.7879649510049147 4.96370606786501 2.6637486245985427
C 3.865714866633721 6.577504388524401 2.995267112576176
C 1.517027222644125 2.6822666953698837 3.4564264927601185
C 4.769505513375449 5.5246705305474935 5.017721281785828
C 2.6770118220841943 3.989415471561625 3.5488067578315796
C 6.2405084258818935 5.914751746157849 3.500066805007725
C 1.4323944499050918 6.056677561555285 3.604834688383529
C 2.8694503458705394 7.258763716690923 5.137811929093355
C 3.783569458713252 2.3400268657228613 5.599599404276445
C 4.980598923439219 6.507977164490632 3.841438450496011
C 0.74646628102378 5.645372537959396 4.738224720416532
C 7.0820953584799895 2.1381973961682403 5.140792608567474
C 3.6614071917363815 4.325865060976937 4.701890436886314
C 6.060242041466234 4.928968038796305 4.506801709824961
C 3.5640068852411426 0.49469245150709007 2.926661670831529
C 1.504123582134355 2.5602148727124296 4.9834646366942374
C 3.1858319903942904 3.709314816930342 6.1226932295991885
C 2.6292671319066825 1.6964686308755181 4.965466185264505
C 6.784246254148891 2.425788175726097 3.863541957630732
C 5.321431856944896 3.4201814461124047 6.994491960049151
C 0.913181407427498 4.767628401109707 5.622017429748186
C 6.30807603143664 2.458906110571326 6.228691303245669
C 4.32917669736633 5.797174323358906 6.422696220165519
C 3.429422014859365 6.817519178057687 6.192189200188813
C 4.963639927040557 2.168927131990434 6.476764415119994
C 1.6392213451248285 3.655622578129591 5.945764733590441
C 4.274635962603317 4.400368647263119 6.974573480367729
