44
Energy = -349.66928046 eV
C 5.0918093207081245 9.149301330339448 8.212396051197485
C 5.124062815294332 10.14361690224962 5.717877411109769
C 2.775134004632442 6.637148723493437 6.91712684608372
C 3.8060103158230727 8.861539762326682 7.6196065163554625
C 4.672923020758099 9.746069039292575 4.404840481342812
C 5.3526901856422135 5.989260862855374 8.999753510989844
C 4.66549092106806 9.77141758593438 7.003627416336846
C 6.306040218606077 9.49284808200134 5.217231772534249
C 2.9899150798001783 7.79749985368423 7.321764421145734
C 5.957750333678405 8.442910627913754 9.062444058914812
C 5.902559085873404 7.057667334009253 5.83598872296393
C 3.0762664745088064 5.456299759466813 6.353157013422836
C 6.372487329356499 7.182896363505361 3.301255260301931
C 5.955814517934213 9.477450991053589 3.7752241422974753
C 5.31619326761917 7.243510320286253 9.563632401802291
C 6.716062159545 5.709554013374325 3.4568227399094003
C 6.7025033500453715 8.25356801544147 5.926366827122029
C 7.3527147637377155 8.222706446158858 9.12264339984928
C 3.9563245586751625 4.665351851649998 5.946966199373671
C 5.866011552828264 5.305632352231187 7.896634716455013
C 5.51904841476148 6.780171351127124 4.467713114850634
C 8.002741553418968 8.334496939149666 6.367681762031025
C 8.358364233632264 7.480118509148721 9.132985043594314
C 5.359277272181376 4.693530277965922 5.486170128347506
C 5.806121168543726 5.819044126932347 6.566964209096686
C 5.475401217201828 5.420126591443584 4.197654364804484
C 9.81809660563503 5.468576554049213 5.2091013666058545
C 6.374813541410736 8.463216072919344 2.9763877421348277
C 9.185411456307557 8.066669008983837 6.611277065356286
C 4.65674103350041 6.218949371421374 10.23885243465275
C 6.549947497139564 3.8004118615552684 5.787565820742854
C 6.389462548325538 3.9276416894457684 8.115800516252328
C 9.92447786076931 7.065400830132913 7.268215075641554
C 7.904625047474346 5.1955147217554565 4.055390579716124
C 9.291767695914798 6.629403019100534 8.52010239595868
C 6.505824040518224 3.1624806324897112 6.994745067384727
C 10.247652036912305 5.917364497065523 6.524126937485415
C 7.213793444523496 3.7644717988941387 9.284757335096359
C 7.801516095320175 4.250114565868201 5.22311210723644
C 9.170028730713117 5.849928742532828 4.080284747276337
C 8.274392948697546 4.4355775825110415 9.246676026368142
C 9.050686291089514 4.373774216725795 5.922141634086254
C 9.62509198491887 4.765147306692353 7.203909474483729
C 9.1903377414861 5.166003251352619 8.517408877818518
