44
Energy = -344.36533862 eV
C 4.9744564227377355 6.680522017721936 2.8677928667746975
C 5.157949269731978 4.488902971276807 5.242153348528066
C 5.385036500619848 4.444266470058233 3.91562603992799
C 5.722670404333924 5.467060872728028 3.1332624188322513
C 2.544421380618318 6.375102689934338 3.8625896337740446
C 6.361400536844904 6.706488282878856 2.813167344958711
C 7.547518091417529 7.427793320126465 3.253166143146347
C 3.821390241888661 7.00089895004875 3.771427632208073
C 9.791659436739772 6.572821528031462 4.2064767551623055
C 5.76218454031243 5.6404343293500725 6.046471805614929
C 8.131925605590432 5.0050814710927085 5.650717149454199
C 6.82602357233032 8.883830196619222 5.282576044181719
C 7.22551323981678 8.419393196832457 4.200685916214833
C 2.8972773239754295 4.311112241475056 6.588758964773578
C 8.811234605969366 6.879881689145332 3.4906970894652734
C 4.225230472302875 3.8289093021265646 6.143686572281204
C 4.385303123031913 7.406787799765008 4.921208434032709
C 7.223175441302079 5.913216944700297 5.951745695107954
C 2.0551237358231766 5.755842929384151 4.873708016802291
C 6.2933964434216145 8.147652263056676 6.452179396018713
C 9.992019566092898 6.174001549762837 5.548177735983667
C 5.222256875084683 7.161230206863082 5.887409843006533
C 9.932189458752077 7.111600651623643 6.553225759851207
C 7.3957058116828245 7.057536101596234 6.991758869835092
C 3.9759589021444066 4.016582348452263 7.475779585520878
C 9.37245513575869 4.111171363143141 7.250608514250485
C 8.850158895348574 7.549936775309119 7.253095683301645
C 5.832192169970917 8.91882591631516 7.70217596493428
C 9.414846693857534 4.8756674160463485 6.045138089567606
C 5.888093664634106 5.377842047591323 7.496513928983017
C 6.659211866231374 9.081322528104467 8.858730561823304
C 1.956476899064842 4.991621535184931 5.935892824552726
C 4.531445517293439 8.83271084049498 8.372487673278329
C 6.618515691349554 6.36861768452196 8.105780622759198
C 8.967614378235094 8.554933031050224 8.249659464665806
C 8.014106295872214 9.262511006596165 9.004356925771042
C 7.346340109833058 3.397300839475599 8.607001160134853
C 5.577500605599208 8.196885013574041 9.218351171062704
C 8.555437578870643 3.569760512948362 8.030565716884505
C 5.02869060653761 4.577482248010536 8.454986112889461
C 4.7573999956331745 5.731615996347238 9.432886734862526
C 5.6991648010192915 6.7279502963060365 9.224431634136907
C 9.36523982228675 9.620464156830248 9.080998506753708
C 6.127366888607071 3.5997090860680387 8.775168266499035
