44
Energy = -343.66901486 eV
C 13.02257404363589 8.570171454799382 10.329959622369104
C 12.86223477230281 12.363743917080791 12.248771141712147
C 11.851431162027122 8.427934011777829 9.544986834002053
C 10.227850357646963 10.028508419853184 11.25366332470438
C 9.61013776536559 10.638689052640055 6.995673077768584
C 13.435947721076454 12.153967536214981 9.80070688209903
C 12.069508431455148 10.91069739759679 7.973218193415539
C 14.012195325796153 10.888114444159589 9.996662229491886
C 12.642066231381277 12.101046697817653 8.58335923760979
C 8.491067482081396 8.432891399314371 10.667704981548386
C 13.068954933272293 9.487395257634116 12.598913658258066
C 13.882841843572583 9.658273143372286 10.01752536702397
C 8.19299802143901 11.696696783902903 12.147132050951504
C 12.987687756106842 8.401329267180607 11.775664346853384
C 9.345437600706388 13.743031039506649 10.792299767713368
C 11.891517032481525 13.885324212310028 10.75432872194319
C 8.992882078237741 9.380788189408953 11.694467541596905
C 11.210119978645185 12.312921714936817 13.926354299485498
C 9.055804010157507 12.639223701893249 9.785200087374355
C 10.715531841909305 7.655779622673697 9.828005644193473
C 11.302815724456053 12.334427421986106 8.593690636692761
C 9.470143842808318 10.767541347986851 14.292183297499767
C 11.379766909297805 9.712610450737989 8.82856853570327
C 9.46907180713077 7.75189538239885 9.977429947749583
C 8.561751361449089 12.691504167669084 11.20546415598157
C 8.81051887893215 11.534500960632279 7.641967845679845
C 7.904510293587785 10.360197213532913 11.679093583004686
C 12.45687913566141 10.868161434629009 12.48073852057096
C 10.632300968436226 9.943833107442224 14.030271275343642
C 8.381821276660004 12.358088114539333 8.506252167256957
C 12.097745403241097 13.075918077574487 13.162639151135885
C 10.721897694717358 10.56321280764597 9.939712622696677
C 11.35816547973321 10.651075816681495 11.404526140530733
C 10.326265339198091 11.90027985815614 9.449943227183022
C 9.82252793897991 12.183907016157255 14.209595745338644
C 10.947960168367413 8.621779267411037 13.586394685848202
C 11.094518294513128 10.634950400769029 6.883784564848131
C 7.7430866062187045 9.634178898713898 10.459606854650259
C 8.74630552819113 11.690605591223422 13.479803080533024
C 12.114794936565817 8.42202793369644 12.945374609274436
C 11.607489888390745 10.952303259467387 13.75314986545666
C 12.940676682909674 12.924042469522464 10.90479501873001
C 10.673355175591606 14.136261805915263 10.898858154842946
C 10.471717518970689 9.588603792626905 7.554669008294855
