45
Energy = -350.0984742 eV
C 13.069470700432229 8.576426042638333 13.132907833973519
C 9.697447333704785 12.902051795796304 14.317623681247586
C 7.262487807687072 9.195131817740197 11.748294954088657
C 7.85348533021607 8.31180477803535 11.039938736906493
C 8.902687703280634 6.688701357405294 8.01893636188973
C 7.57215812592048 10.166822310957125 6.675714944017115
C 10.284686300391302 13.208559082545648 15.431841937832859
C 8.734585756377115 8.080601551951498 7.891614349989951
C 13.00248243230769 9.713280448057098 6.543129911890507
C 7.003858457310722 10.446586812631214 11.950230858264558
C 6.1828670560606565 11.515613507036313 8.14674423922659
C 12.048003043140245 6.2096534385952715 11.490681883687138
C 6.580252832713082 12.149193748580288 10.529699963754966
C 12.045573489653934 9.238054916320309 12.819514570915365
C 10.003440186865857 9.353525775528903 11.187202091053464
C 6.477642365805939 10.878115033135067 7.106377376381925
C 11.002970542797073 8.745577966170526 11.999614219147169
C 14.168026688615178 14.89894235343963 8.433467923162578
C 11.816516322365088 14.055271755642826 9.224818552567132
C 8.703378998432644 12.17783910679724 12.018268413934802
C 9.717542135735625 11.92318100945215 10.933226455714566
C 9.147717711086381 12.554577105638625 13.201511341069274
C 10.99927556774733 12.85105150700268 8.89554623739005
C 10.478790150399668 12.154679554254162 7.869331222462478
C 11.5625627586602 5.389379304377726 10.471911864346811
C 9.185829455538617 8.812128000721367 9.027307254690662
C 8.399404867097443 9.043863693312158 6.8713517572442715
C 9.85461882003035 10.569402681158452 10.465068916400252
C 9.75674061163717 10.966455819125095 7.8911777077815675
C 11.048203159910926 7.332894673851747 11.595849154758628
C 13.181963734332045 6.4260228614709485 12.277113324554827
C 7.289151763171266 11.73932119218167 11.670391513620842
C 10.83619548381241 14.270954767633109 10.272662223396054
C 10.057549147607299 7.050671179664848 10.682676023630789
C 8.947341210223588 10.3565960449229 6.884976978752096
C 9.581981411321175 5.9241410898530384 8.737780792074366
C 10.356393892711418 12.936430083216088 10.23428473350456
C 6.142718093531612 12.064456301199943 9.361210103294445
C 12.990382525663067 14.536805817277354 8.775516648484757
C 9.637588024540266 10.150896860643872 9.064285501449167
C 13.443594192686469 8.776038703404524 5.636192688982187
C 12.098611649099867 9.060577247060777 5.728923630882109
C 10.347779122111412 5.885044831264575 9.907992992723152
C 9.228290104195906 8.252719242285346 10.438572268446054
C 13.608332605753832 7.359795393750312 13.00358620637886
