45
Energy = -362.717339 eV
C 9.084714761660859 7.768366374838234 4.142596917661766
C 7.093360338019559 9.123895115071193 4.594846235339658
C 10.244003205323022 7.521224725472998 5.025869602045953
C 8.51642317850836 9.051146442003551 4.390480055358971
C 9.37173951441358 9.626843424599146 5.426616173343352
C 8.454269161621601 6.619105961415882 4.727786744195161
C 6.3653448063084515 7.91052119835401 4.935764607819219
C 5.197263031770037 5.77143778290111 6.726041914129872
C 7.092954258246035 6.697497614063149 5.121452078092578
C 10.38379239209641 8.639007887622638 5.8465766557932275
C 9.69480763623642 6.246157166447876 5.523716914478458
C 6.510212959503229 9.881184495846453 5.668848962126841
C 5.651040472943908 8.63858975438593 6.1670410587194695
C 6.61826644303514 8.379569952578523 7.2539810259524335
C 8.775597845941958 10.219221417012688 6.5674965357413235
C 4.437385575130678 6.689116528549047 7.431100442085122
C 7.341040030391405 10.391707817644704 6.689105658357341
C 5.660369240690761 4.682300860685673 7.5536928929843565
C 6.6865756153610265 6.040886909761107 6.384503419917617
C 9.20087869101134 7.371744702372508 7.533148996489233
C 9.763666689027767 6.064716134871726 7.021876037645779
C 10.178895090162571 8.452620730860193 7.332410447508479
C 10.55095837048501 6.980398265278836 8.045599667001811
C 7.022811972434239 7.146011194167589 7.478371755270102
C 9.357599096194956 9.647980590202593 7.794795312160047
C 4.590250137448076 8.150384205408827 7.296285944513768
C 5.5476433554218545 5.057796267031588 8.933051838860564
C 7.019002529394877 4.712218727766847 7.121619006511161
C 6.995332508999597 4.9695225341493074 9.40259031397654
C 7.003913915956129 9.693487668313516 8.02245561407705
C 8.074341885199614 7.287369016540377 8.426970803892008
C 9.24942435175122 5.2247693612459845 8.206414544334228
C 4.65979824853859 6.255418668684948 8.87389812040574
C 4.733464729053624 8.624054696487935 8.652679282136356
C 9.81807718014533 6.14984926813441 9.187807341050062
C 8.349887610585508 9.448629762581712 8.707716754509077
C 5.93004043152209 9.38964681527134 9.036709316076678
C 7.8981976617344225 4.719027428975479 8.26674792593183
C 4.694815187354228 7.467365678740686 9.603640920549827
C 7.431773357012432 5.950393827071382 10.343907092851243
C 8.03877523635459 8.372644021703149 9.672492964661107
C 6.359046662442383 6.447015795322644 11.079043786004878
C 6.610945289083758 8.654928928002306 10.03937513696386
C 8.527961051806903 6.852145730815658 9.783864189107538
C 5.786346760866048 7.585087017932828 10.532017460556757
