45
Energy = -350.87214676 eV
C 5.1225697250990105 5.974109050641912 2.3640656514888865
C 7.291016328748884 6.795621567783126 3.6290777212140357
C 6.414499626086547 5.647139391203157 3.0921183744618372
C 5.503086239531458 8.777452995619518 4.161963424582006
C 7.552718180436378 4.718927050398962 3.403609972059658
C 4.190891264656021 6.060633486878468 3.3656383609732172
C 3.016471690363536 6.745985463749423 3.9448991384376595
C 8.296950202525872 5.838690796683454 4.011704740536324
C 6.158368651989432 7.368029538046249 4.557502260129941
C 6.002485314495327 3.0593372718979186 4.144531644333156
C 3.376753506580823 5.0804590758512065 5.636597153209097
C 4.280421482011682 4.454167330315042 6.176581172052325
C 5.973478740143901 9.676764257701196 5.112835095284359
C 2.6896636305999633 6.249163015551866 5.220556573241285
C 9.100268215344293 5.935338622929171 5.129046373467767
C 4.217878913306872 8.918250526940817 3.660356406682301
C 5.415250935308905 6.07308315909609 4.121784253198893
C 3.0583287027438013 8.115716343810963 3.593023893996635
C 5.291063987394259 4.05372337260287 7.159783259338868
C 6.40761146091001 8.943380923932432 6.285248630112786
C 7.390050620912416 3.4074960778621737 3.881851988735551
C 6.016172333984086 2.3884809932208935 5.32574306312244
C 6.549514617869542 10.30996425751048 6.254889137669551
C 7.497970222151668 5.056631341769379 8.23394533427602
C 2.9587610717551267 9.461664507356948 3.2603739298388064
C 8.238826424182664 2.6513113606462726 4.785301093438248
C 6.313047561351126 7.515006983774036 6.064798366357479
C 5.865159935526149 2.695094014948933 6.711878244954159
C 7.467829596859129 1.9512138957477585 5.673022368961796
C 9.408461530951001 6.136023098021792 6.333821826107131
C 2.4482398251097495 6.924498334273783 6.457832152577451
C 2.7491595180495407 7.120260069362063 7.6477566207686944
C 6.391594422048757 5.20490062291136 7.380303803496885
C 9.323760788457403 6.517168394759176 7.597167518783899
C 7.153404842205149 2.123328795026079 7.071467702477473
C 4.498693874002691 4.34998030602212 8.423191580528853
C 7.484990627487989 7.377484128196454 8.967345817084318
C 6.190546472982316 6.646025419417002 7.121218916555209
C 6.157504673635596 7.318637913417295 8.513780132302813
C 7.830987268401633 2.5796126118976335 8.197176597870964
C 8.275120825507623 6.334983489252868 8.465918138462182
C 4.877501857962471 7.512279350564983 8.92051705880978
C 3.9619476238624594 5.401931419180301 8.802223249727042
C 7.895070436311671 3.768407016915163 8.548688018567953
C 3.7388714212835583 6.8046075474395495 8.631828430852737
