46
Energy = -371.08263709 eV
C 3.679773056772394 7.128781230878307 7.596284308701012
C 8.613213149814134 5.4153370251190855 4.002180112809366
C 5.3046324292835525 3.5574212789237305 4.95766894880123
C 2.8336647468863183 3.724668331365761 7.279961104756305
C 5.311708749704933 7.633449074334834 3.2921849479727032
C 3.81412794986816 5.858099972571503 8.265038654367872
C 6.755921968314769 9.322552739723847 4.746753203440139
C 6.2773159759337185 3.651627323548702 8.021092824259016
C 6.553167081598277 2.9842595953275604 5.442146668870849
C 5.187898186237149 4.36134535746554 8.548920869051397
C 4.638001847099612 8.821663998641998 6.19407653327132
C 3.552995556855524 6.731417149331553 5.066592793207236
C 8.594605848442578 7.685180711306109 7.342753614203155
C 5.356983826482665 9.272992441302168 5.103245347289199
C 7.018840364635326 3.4217358931400867 4.09555757724476
C 6.935597799538793 6.268834486217989 6.172432613036481
C 5.297288366489114 8.856059391553632 7.483823020724122
C 5.897700216232097 5.673202411037172 5.878503090012746
C 7.813392921150524 8.768228863515189 6.9034999939290635
C 6.099627229202454 5.038661192774674 3.063001655078362
C 8.400343318232087 5.761439096106623 8.731372573075536
C 6.887782793857802 7.763915263096631 8.828786138823407
C 8.137069072101468 7.108496275463939 8.604889236674016
C 8.742146614068563 6.801201235636983 3.8925163781111314
C 5.659720622031464 3.7212198146520223 3.5848294470113533
C 4.85503247944652 4.8330341785187265 5.462491818616871
C 4.301130989531126 6.866384828257827 3.845200176024128
C 7.49210981240071 4.670891974475073 3.517543458646732
C 2.8213592514139423 4.451258806244791 6.2158864663605495
C 4.652776356143944 7.910191512338021 8.298665686886627
C 8.642486960401422 4.832104106796613 7.714016460136748
C 5.086493920321058 5.816638525762183 8.99179102818428
C 6.860267882800741 3.132655719240159 6.791123065699521
C 7.842398737112319 8.809276750454691 5.432274677480335
C 8.495012611777083 7.574519500708011 4.960005445031962
C 3.7686488495413517 4.446712367667961 8.072131084919974
C 5.346010337898668 6.208695952740669 3.073793769176405
C 5.782546650262477 8.805478960279606 3.845790004440136
C 7.666659900263927 3.8133392115869778 7.708426646821642
C 8.346377396407982 6.700941535689572 6.245346561067014
C 3.5082890343227797 5.278782826129405 5.373854460293809
C 3.7110990540511444 7.618071899488538 6.198695445565895
C 6.699157770441784 8.82699442184666 7.826637832357909
C 9.323255358364927 4.828309229582922 5.132114734617275
C 5.604798558846548 7.117740488645841 9.07186206755953
C 9.044367265559249 5.33998591865206 6.33803632353435
