46
Energy = -347.45964096 eV
C 11.76372362556959 13.418354475379743 13.337862913705155
C 11.473983908348886 8.579891020697136 10.523056448884766
C 10.758520531368047 15.592734392710781 10.021689033734546
C 14.089429432431254 10.863298471293044 13.344130122452988
C 10.840352518422245 14.37017046821194 8.341792705994925
C 13.164299126524982 14.168963530042571 11.39363828620326
C 13.979486081245609 9.207443428314471 11.647535016454952
C 13.737823098448265 10.498233674915468 9.700852822427322
C 10.42970984804463 13.280289281618394 13.45804266987389
C 13.578249555991736 11.725439376573442 10.441019723258666
C 11.338435269785741 11.107291350080645 9.518030019430409
C 9.45115271697682 9.128610352831204 12.71767229292452
C 9.247302174986876 8.638979327413574 10.085035364490523
C 12.692711711703877 8.221752954574496 9.846518224626761
C 13.49705664456232 9.614841956538617 12.847505302438488
C 9.194293183598079 12.852390709125471 12.795862921316697
C 9.183243810709026 13.451406109949936 10.198104262721461
C 11.622998975835543 8.095295611084909 8.863743132384831
C 8.631113043639866 10.245820183329831 13.232343746102956
C 9.005928419668134 8.643093276140672 11.518780996995037
C 13.355041797762006 12.756758110276731 9.4606984210903
C 11.183312916655497 13.796752280699023 14.574900854781623
C 12.921110719980074 13.070307043919408 12.433259867071916
C 9.010855611924336 13.458192912795973 11.598162254232152
C 10.46786275896259 7.9214631366704555 9.71140062308115
C 11.19835070466997 12.079473733078066 10.710053388218585
C 8.980899159365482 11.024390416326138 10.49505398162756
C 10.808215460162694 8.825868051278523 13.291140207673415
C 11.597472474176671 8.020299168188807 14.147967155029757
C 12.868768209979145 13.981662504593947 10.011635168258698
C 8.49332186566831 11.626597222800125 13.238879895311298
C 10.016232667440589 14.453988798065547 9.535796428825224
C 11.732553946686238 14.693429693273394 9.433615617104987
C 7.334678836379829 10.821403395588929 13.34772913043734
C 10.287131152772432 11.0312692998898 11.352493053167217
C 12.181014444799121 9.040864495825465 13.34763225424017
C 12.778327572358418 11.419367160027765 9.030012474781492
C 9.006709725804198 9.909042484124212 9.574107694061693
C 15.196834061617986 11.734327964918997 13.669800083836138
C 13.961287996352926 12.220984184802072 13.182809272174545
C 11.637809548057236 10.81856373608812 11.86280187187449
C 8.94414495138026 12.178120391878272 9.630998446346604
C 11.302777709164452 10.047740098421567 10.649425616155888
C 9.775386033977647 11.078717440144517 9.020244633014185
C 13.70773297047092 9.208882238289974 10.250843796156804
C 12.46330503913434 11.970291159305473 11.499694720721827
