46
Energy = -364.76431215 eV
C 7.016693541702854 5.518023663934776 3.2805708928695494
C 5.398816976759016 6.101449116591746 1.2533602784174804
C 3.7064534945360093 2.736214020003573 4.6817241277970165
C 7.4128013628956975 4.278527401958591 3.861056517489702
C 5.060770987529745 3.270048601478069 2.8198916049933853
C 5.423112813643696 1.8496947559068966 2.8590261052436907
C 4.20207866854403 3.347890065820007 7.857285293222169
C 4.505607223159499 6.729610691700143 5.6141585967222225
C 2.573277365936393 5.284399694323488 4.770700849399451
C 6.042734067632205 2.423295217133384 6.421308945648709
C 4.28316375169967 1.1819606285307596 4.752844934140216
C 3.79553342314261 1.8644242953970458 5.962100047746703
C -0.2588799204683074 4.500244636115824 3.7662195439534694
C 25.547748782389448 5.619866775572655 3.863445014180188
C 4.142141567488455 6.206809125117782 3.196427861963385
C 4.226181636632721 3.7517623329652974 3.8302854575703305
C 3.435702774634537 4.339434471515686 7.693593213517771
C 5.782861615171461 4.799594722134404 1.0236923952077526
C 4.750558610497865 2.4588815633163894 6.938137503070825
C 6.451609406484968 2.2250542808682594 5.093718735947653
C 6.551100262381188 5.573917241812432 1.9754536160175542
C 5.618643818635627 1.4173237351050525 4.214692487725126
C 2.9435570950887304 1.2609881916948926 2.5817074558916744
C 2.211442595310973 3.925743510766863 1.1937858888872472
C 5.697754669043067 6.895648208658804 6.446513497709402
C 4.175782761118293 2.508193319892451 0.9179064739919829
C 4.727063555545594 3.8174383761406148 1.4505201709416526
C 1.9373412394363894 4.492349941956366 5.729309769166373
C 2.813514525546671 2.68137589409149 0.7677035776098997
C 2.0273421315032927 1.9446495829384425 1.7585232771728532
C 4.304829556403407 1.5405781293467162 2.002228328791653
C 2.994949622970534 1.2440549880836143 4.033999839563373
C 2.753278555191685 5.1098873873779125 6.81189154685931
C 3.345963114507944 4.959725317668588 3.502828396454962
C 7.287169189029318 3.2308324774715285 4.510322298626347
C 1.2066073945857978 3.1538344243908165 1.9903258733315343
C 3.3169462779952363 4.779916363974796 1.7907257558386271
C 5.0177286910143035 6.70984419887522 4.2070625923353795
C 6.661632712284606 6.543696580611448 5.704903643510759
C 2.4405771715255247 2.1562183735705647 5.18839953367361
C 4.053103812538418 6.148464072374207 1.831115447651205
C 1.3710014614004868 3.1783489095469295 5.352113584232934
C 3.331139456519904 6.056833498041165 5.812828943450932
C 0.3125699067169719 3.3873823621116177 2.9913162757024923
C 0.42436482951229193 3.3274217866522706 4.376276207183028
C 6.406963827992845 6.429816243743552 4.279666775863377
