47
Energy = -385.42106158 eV
C 7.705041100129678 7.2056979824548595 4.665071605601855
C 9.365431309308255 9.099154128291573 5.104616644945157
C 9.151284370127637 7.700239289813751 4.580730344709421
C 6.963371832389771 9.767745202798015 5.301043248665298
C 6.702819285135888 8.277058812218863 5.119754402527198
C 8.379183496622991 10.173971613673874 5.350080455266377
C 7.746902966966259 5.920157098615814 5.338290268349668
C 9.094123706890738 5.718312231153297 5.829318644390218
C 9.953098711068025 6.795380509486612 5.40923981194612
C 8.174360155613805 8.180627081633432 5.834943809051945
C 10.331630913639973 9.02681651749155 6.192398583324698
C 5.614289730457961 7.885223982229096 6.106161251343381
C 6.356316192706158 10.104262917097614 6.543050740839257
C 6.895569438368227 5.792983812636648 6.546993853470873
C 5.549923287254444 6.578868801016934 6.685890904031226
C 10.600732693848382 7.6073632108767715 6.447908270010535
C 8.171833882823993 7.995548179372198 7.1478169527390065
C 5.466254603823748 9.07149138071876 6.989189792162405
C 8.653676725437451 10.627265609155689 6.692923694319233
C 9.810548238200665 9.93362892392849 7.208614056313681
C 7.6880878916514455 4.856633062716251 7.5879015323253896
C 9.06113543181398 5.224706276086948 7.213450559015066
C 7.416372987998725 10.61370179765921 7.473556271265883
C 7.452065454627093 6.939626627510409 7.468026581052587
C 5.162627935006343 6.540393416517387 8.12541085454959
C 10.568002978122669 7.135104506608525 7.793623884727114
C 10.304214787148084 8.128199829643162 8.839761308822547
C 9.78451651873457 9.485544589518767 8.568129377207264
C 5.172053494677004 8.95318521336302 8.379507059946063
C 9.869244943628235 5.907815859394898 8.20061540782597
C 5.962786922786237 5.695906966830429 9.118034916309721
C 4.703017636595878 7.705500081911654 8.92210688496363
C 7.243745294008529 4.913748383069915 8.932312585726615
C 7.434594390248847 10.298779537982547 8.85486062428125
C 6.74519117115662 6.977879387726464 8.628856977319353
C 7.136465225328754 8.089676453858633 9.423835490848235
C 6.280332798416763 9.407524256950241 9.307369764929838
C 9.58383570244931 7.5316650113961385 9.862527454039407
C 8.681513762403204 9.77344208999922 9.423087450553862
C 8.063807173303328 5.578192319209984 9.996221047366394
C 8.472479938431855 8.438615134498 10.182571297008382
C 9.285272415242195 6.145477623761012 9.530239229716436
C 5.795846978491664 6.229296117648801 10.485323830983443
C 5.106372891884846 7.494921868581805 10.304164871568481
C 6.081604385320182 8.535166863797574 10.597900884349198
C 7.353073809256802 7.840096033735475 10.999416271872006
C 7.162648940123681 6.354707905030891 10.94445474708957
