47
Energy = -378.24570389 eV
C 7.728342989033071 8.99813520014637 4.755146275559401
C 6.7351666424303325 7.994501144580159 4.921148892876773
C 7.436140122892311 6.619228604570107 4.977336199404182
C 7.722296371551336 10.038531401583759 5.753226576167484
C 10.460500587653508 8.535090320389791 5.104110483306682
C 8.97813054861155 8.223552791516875 4.920724511210152
C 6.069757195171135 8.492804256504915 6.2289001958530905
C 8.788445605293477 6.800793822984334 4.56362180279491
C 6.180851360554151 5.171635447128414 6.9472708060741795
C 10.47817141590074 9.487475173321682 6.187357678229894
C 8.980632191953708 9.82679858907366 6.580250403892502
C 8.700472559241557 8.190493994150213 6.55086827891014
C 4.808623401566821 5.687970052237735 7.031366655034764
C 6.584914056879392 9.860001740378816 6.598021627258888
C 11.020083569572584 7.284674530976156 4.804001591283652
C 7.328601463536215 6.041729638292214 6.433288183873412
C 4.8980271256867285 7.955553033715272 6.985504025706046
C 4.41939148272624 6.808630632119542 6.3673098332864475
C 9.178862416939925 7.217968816398346 7.661413721094276
C 10.132532477263732 6.39148101355429 4.455215559982059
C 6.2212724097441745 4.821881801074925 8.357012466412831
C 11.078680929030487 9.425698395362799 7.423487977063324
C 7.26968795778811 7.679695516556343 6.89740528707607
C 4.9588483323436625 5.622746925995898 8.496742526492282
C 9.002320009373701 10.28502191469525 7.989059050119082
C 7.262595061764713 7.074145404177365 9.403532027745012
C 4.999466270755543 8.1217695030643 8.432500417593499
C 8.658401881580446 5.1922800998935825 8.615592618348405
C 10.185420046644081 9.631844911948658 8.518076435043696
C 6.550101385563035 10.090788471649978 7.998120167926481
C 8.597069214797989 5.849507032438489 7.375164988879984
C 7.69430694199865 7.595566971317019 8.27895915887975
C 9.922465290749916 7.268868319513611 8.974623139315877
C 7.8093181823887745 10.427184603482148 8.690805645973661
C 9.891157608042343 8.657977058862722 9.541831370784982
C 7.326376201969565 4.81310563442453 9.177635673077189
C 4.978267305704523 6.840113926906302 9.207434317944942
C 5.748472572483035 9.274108737517324 8.91853746644338
C 7.130586408910459 5.729490745161859 10.310118337640798
C 9.396772406599878 6.100793415818276 9.588218705059669
C 6.442053950803988 9.295946946615683 10.209504966845255
C 8.382870287155605 6.477268880222355 10.578052265061478
C 8.791504339160658 8.943488349705676 10.43541607443422
C 7.755080786296806 9.878844104667508 10.012985988771463
C 6.632610646072784 8.068022998214532 10.90359786893169
C 6.058887056386343 6.83775809482098 10.260491253204245
C 8.096930414346014 7.84049851518549 11.050477986047099
