47
Energy = -375.37111647 eV
C 7.123185073358233 8.802849944713733 4.856892376759834
C 7.875936349655073 4.925827500702514 4.402018946099866
C 8.139149304046827 6.415742296825322 4.7639735223961095
C 5.742723791993015 6.814192510398862 5.287258848461327
C 7.025816588832075 7.428618444300048 4.581472395179896
C 9.044328042267846 4.597088923595774 5.19629470448324
C 8.243582677736027 9.565075573538675 5.718956949750244
C 7.086789565782202 4.743288819540731 5.71783814085313
C 9.509154614924002 5.970085174931128 5.382696662789396
C 5.9121363558621525 9.084930091216412 5.744793912644954
C 5.746340386310547 5.440769603690327 5.969628163041271
C 5.106737684474645 7.887554585911965 5.970583891897157
C 9.59603280830232 9.070664029763805 6.377452925695763
C 7.579981904194302 6.136565979267324 6.147495180882515
C 8.322939393627612 4.156781874588807 6.397869335704937
C 7.464342043397521 10.610571265884468 6.692234870029818
C 7.664741162963858 8.161766837508482 7.608119383088811
C 9.959163887753833 6.437580581539041 6.678208454477113
C 6.010175671846276 10.20687805363966 6.684117888098248
C 10.050509733872177 9.926103241934584 7.404156155586156
C 9.838984471765306 7.771892142878852 7.043937159527308
C 7.197525290918194 9.078692265736992 6.678914574421026
C 4.523544533418974 7.746836663095189 7.264667622184528
C 7.445615272385006 6.824800666728552 7.337447078802863
C 9.680805783550053 5.590401415310081 7.874680236094202
C 9.170668105958454 10.447929372930844 8.348141962239337
C 8.747048210939534 4.488321200428431 7.733854548872944
C 5.251907259977425 5.352011314936525 7.306493340555892
C 4.478900233792993 6.433653307460723 7.86034179481871
C 5.585559487670431 9.932656337946238 8.101131176009812
C 7.834760926760661 10.826152394962797 8.10907547228835
C 7.110514614310828 6.119003840044149 8.491903777108135
C 4.828289440551086 8.743334367150752 8.328887379374276
C 9.63845617758035 7.877852555871697 8.680939285571391
C 7.743435167116798 4.6689411432737815 8.75556684736441
C 8.29894108873567 8.499307627444953 8.830681438816843
C 8.23968276441612 5.86476209362448 9.666779456096167
C 9.488918783070062 6.378470669437091 9.072704238682215
C 6.188157032789904 4.907490664424437 8.517995592917112
C 10.194388204579267 9.427347779188512 8.765069998797953
C 6.761752101259345 10.212163905496736 8.917157764515846
C 7.256585309062825 9.089759062154839 9.69749183116488
C 4.695549520286584 6.5899046328535 9.283814310133419
C 6.416816681057748 8.011297560933905 10.071292403446698
C 5.081528368830066 7.960045221849187 9.520493449602093
C 6.921450813580258 6.58803937101943 9.99071303303007
C 5.703065995140657 5.712615770032376 9.694380200348693
