47
Energy = -379.05447139 eV
C 4.907615028708606 8.636175530124214 4.9197519882780885
C 7.511240457709896 9.103959316187074 5.593056830835915
C 8.273064423068927 7.827423960543477 5.23595125491479
C 6.530752096182581 5.747931028344545 5.643891752731937
C 4.041115267012708 9.543459583796379 5.714569444192867
C 4.489858514188197 7.441269052807165 5.664347081387532
C 6.100450789624426 9.162246471690148 5.532182402961249
C 5.230672505554809 6.356031855539321 5.998632810134156
C 7.782288260488684 6.3429620472132875 5.307797469496828
C 9.568335726479678 7.7405915597342565 5.805350724376085
C 10.01657678727848 6.369163658822136 5.99764550848879
C 3.8425684173325276 8.379621228856161 6.613351303923222
C 7.883705134767558 10.30093003168081 6.609900731982364
C 8.148002529165534 8.248505893933324 7.669453440580508
C 5.387906594224139 9.863738280220623 6.736901418927175
C 8.917617924193806 5.497163216843212 5.801052772711204
C 10.057293384881223 9.752238740115999 7.7099051720614025
C 6.498992626005168 4.849889939552344 6.862651789611826
C 4.761007947356116 8.814261967203661 7.593552248509579
C 8.912275126300663 10.615946283097623 7.549129919413996
C 8.83128829866633 4.582092544877096 6.951535062562296
C 10.57801214991472 6.135077468931571 7.30956600646784
C 6.604703479454043 10.348604929721157 7.447912227037095
C 9.681083164316034 8.409818543062272 7.181192831276386
C 7.8401960982493355 6.9736600639064985 7.880277647025299
C 7.591729659651024 4.450824721623473 7.6487529112548955
C 9.826587449845501 5.0219270859022105 7.942011426320464
C 5.644317912405164 5.889564424753966 7.301683697166918
C 10.36299418022137 9.492679546241211 9.083007732203127
C 10.57304309518342 8.113008226252319 9.408189966137076
C 10.297693664160407 7.352396398932693 8.142514009086375
C 8.375487941423533 10.687254202521482 8.975836391745615
C 9.112602393873047 6.422476684482196 8.298391098866874
C 6.304557984621838 6.724485932580978 8.385478797966336
C 5.8127933367855205 8.209907284019636 8.500469966894192
C 6.97904763833456 10.316588919200793 8.943349817418074
C 7.005205439696278 8.995978080702654 8.020195587627413
C 7.681074365644236 4.866161071480711 9.064444178117995
C 9.21607439329343 9.972880906466564 9.856471118962025
C 9.07551267768644 5.342706422977288 9.345794732041103
C 6.854138553468314 5.938117051163923 9.575321610019401
C 9.694359328516933 7.713489790573468 10.476217177399091
C 8.747209091577991 8.833660943357604 10.615042887823611
C 8.976033255249268 6.467963994339041 10.460421127668507
C 6.482848138822695 9.029832764210267 9.669942225980286
C 7.570450407286666 6.80999492936443 10.459706060195646
C 7.420420566703795 8.306141627624505 10.498001844792318
