47
Energy = -378.83701579 eV
C 4.7544769963229 7.708607159812427 4.807192384161469
C 7.6979911258999545 7.452195278337872 4.507996691365101
C 5.570891897758092 8.817316658431444 4.291883078158982
C 8.891977448479325 7.230938169620776 5.357048248767469
C 7.004156489762842 8.708234157410766 4.489058923989566
C 4.263258527234204 8.407135879032204 6.03836843233386
C 6.852149507163945 6.217560454559359 5.035193557236381
C 5.300139782037391 6.402179264450851 5.098066047174014
C 9.771101677543427 8.105222980271263 6.270644368912171
C 5.236522760258128 9.394588136087558 5.578468146179616
C 7.647774922633056 5.263674151429244 5.943384205182103
C 8.96118540776079 5.826252706750261 5.921855524958816
C 9.713728206198123 9.435433656945001 7.036701603295882
C 8.348294248773216 7.711312467143871 6.800943307847319
C 7.181134836204092 10.24635667952584 7.230248435676711
C 6.653167105961313 9.466922992251371 6.0524141390982455
C 5.062377969060463 6.238703639325125 6.618723073128981
C 6.917735567787752 8.127033028282277 6.685573689564087
C 4.447858557816861 7.508982211686035 7.182425452940487
C 6.258423728758503 6.993678947859254 6.143790355203288
C 9.896882865272255 5.796382935769805 7.001266636416624
C 8.581757492895713 10.430514498646088 7.3836887505124835
C 10.522243553421722 7.097441165406773 7.1288641821034835
C 7.085454782570672 4.909077615467512 7.292892560234338
C 10.245146282373431 9.081377271451505 8.325041222398228
C 10.66032935381186 7.709932823328406 8.421968648368429
C 8.002639990456887 4.873022987360149 8.38933376217059
C 5.741432560160018 5.414935480316383 7.641314298361184
C 7.017026976990141 8.010188917120216 8.139765487993255
C 6.569279523817567 9.975576132429271 8.695659305673892
C 9.46037980498918 5.123529440411007 8.209560292810378
C 8.760567608157826 10.842301521699547 8.742201507991185
C 8.180076466492828 7.318801723399292 8.160892569283252
C 4.943040889634412 7.533372519916662 8.507508064021108
C 9.563888548949189 9.847088036683989 9.357355675081118
C 5.537423574044033 6.207830360535746 8.822010243743021
C 10.323072636543282 6.924609372293629 9.566626489602646
C 9.971397505711499 5.542563185848106 9.45097959463727
C 7.637000032321445 5.380888430022618 9.75001749128093
C 6.017470421215595 8.509901718595012 9.109233758685605
C 8.438736801269 9.433266415095583 10.210609962996852
C 7.572578713519671 10.43770713967452 9.54648629766798
C 8.842246440251536 5.706258858516742 10.393057536820125
C 6.5049568383152305 6.289647344944899 9.877497263286728
C 6.720972781509579 7.670799429275169 10.260880773587715
C 9.116718229688376 7.096345500046905 10.50307978154583
C 8.087551509589934 8.1089295039179 10.556847124937432
