47
Energy = -377.18812551 eV
C 7.658006843301727 7.573655454689911 4.0169885148699995
C 6.247597056336165 7.830691421475197 4.152287231058927
C 6.8666825621551455 6.474090197270754 4.357107405088395
C 5.264361835566851 8.425685000597293 4.7962282010601704
C 8.846735305256992 8.104784241840479 4.704982290961783
C 9.600116575820607 7.124383115285958 5.429747068110525
C 8.409373407316831 9.126970411709708 5.63590086135858
C 4.961388497268347 8.725973362823956 6.098237007475113
C 9.293373945203381 5.095215389500153 6.687721803743774
C 8.816166650929715 5.891870661380178 5.653232660914598
C 7.30540446537229 5.963402241840506 5.71205774775962
C 6.50483760871673 10.774236852472468 6.986075152254631
C 8.92989860348086 10.171615678001547 6.516558206262816
C 4.1631101555108705 8.067465057496383 7.038070041747133
C 10.309671398724356 5.9010453518098105 7.337928946065675
C 7.344315076437051 8.525452663762655 6.366082690775446
C 10.415555884656868 7.217389103026088 6.617243601700172
C 7.8986766819916365 11.064346244548394 7.1084350953205835
C 8.154020904888585 4.4599923364934 7.323248896039771
C 9.075782883361674 10.163031117825113 8.750268618969079
C 6.915258937140707 4.9100418180180405 6.762801500569768
C 9.800990891800339 9.634467090152862 7.5510808587198825
C 6.246064884691666 9.336965829728804 6.86891917350364
C 7.252764494422398 7.158194758088206 6.681977404322238
C 4.85037859976442 7.953060907272804 8.21855488842456
C 10.37107000796967 8.268777321775117 7.632459208043748
C 5.85322219406261 10.700897273550696 8.35325244458165
C 6.188205878021213 5.434482724416237 8.084272133121818
C 8.386855166663082 9.14352111983916 9.343757787200076
C 7.042503687941707 6.742622259246396 8.08269361590795
C 8.126045155455136 4.391120235102968 8.759843921163517
C 8.079049635304923 11.155991346499931 8.541438060664035
C 5.814253624145107 9.170519389099802 8.406643954468523
C 5.498500092285628 6.7429669585424685 8.773275087733907
C 8.154183874302962 6.755720429458372 9.03446540555764
C 6.8485061407318675 10.854222550794985 9.31187381597592
C 6.9261269195919 9.189742876735403 9.640592908587271
C 10.265707814316702 6.0861981805532315 8.724379202091708
C 10.29703876566579 7.548288817217766 8.90572872744046
C 6.800103513477248 4.701599689077611 9.205001118315392
C 9.00309092143352 7.88668673246346 9.565163627833458
C 8.992613939101576 5.448272857359188 9.367507525569398
C 5.951865489637452 6.7497303008953615 10.204883178069611
C 6.77263801321297 7.938961772837387 10.556431814855724
C 8.109840418772528 5.9472755914655 10.527388688042578
C 6.73095272925209 5.536072440320213 10.364012124886528
C 8.11335787444244 7.388568831542956 10.699465788716724
