47
Energy = -370.41066949 eV
C 5.614691100715418 5.274039498478997 1.7466641149397248
C 1.7858043083593735 3.2030685671420565 2.093531951335227
C 5.2054035117376865 6.604145932589267 2.0360262982693014
C 6.558101891310901 6.292262890901372 2.214584071629648
C 7.752980917113589 4.257060064455665 3.6636110291551165
C 4.27979638822511 3.235020475943421 2.7276730857862517
C 3.394979707412274 6.7603226955618405 3.696264995461751
C 0.5315317315061198 3.4106182569998635 2.4951359613599404
C 3.0273278896219504 3.135808090000805 2.1525843325424794
C 7.464873096644308 6.596809849778641 3.270387991529854
C 5.390588234678535 4.017800939381009 2.3748578402650247
C 8.297213553297142 5.57461514752067 3.8503242465069922
C 28.914901133240544 3.631463604071971 3.529001649511089
C 6.267566579143849 4.015417838920955 3.6262715017453067
C 5.356424942389476 7.954187872205753 3.952545682039277
C 8.648112218711658 5.971518491201204 6.275586824797506
C 5.975990310908293 1.4078463919786148 4.8133528043805685
C 7.354316638469775 3.0127331170311447 3.916879415512026
C 28.82818154891605 3.769255870781259 4.8459753848511244
C 4.416859136517195 7.359707076041611 2.9661956108172247
C 4.888905557290156 2.2012693158931786 5.266371777295757
C 4.415284881688432 3.0926439420945817 4.2730634780881935
C 6.749282460065079 7.471659274406766 4.233274379029184
C 5.696403524326109 6.666456547678228 5.047338717864913
C 6.466411470453519 7.689989470805337 5.815287861618068
C 8.907951318818279 5.820618792176903 5.071578340992887
C 3.737632957514357 7.692452327789517 5.969668960293113
C 7.1243506311074105 1.694217322388415 4.381974938244259
C 5.038238322316481 8.114392100673125 5.365749237247745
C 5.019570118871674 2.7962496197326447 6.626500165512246
C 3.4557478254758656 6.524017351047451 5.018182090000781
C 2.621178547450163 3.465872145630866 7.1385099476884015
C 5.080940919870277 4.390611523335708 4.559987654045132
C 0.40856182646898775 3.7332104806232116 5.922867105865892
C 7.609367389021884 3.5192052846175077 7.3048209069928625
C 7.739015489825856 6.125537786046061 7.320120890333825
C 6.83998780937137 7.270256419965271 7.2329861838859095
C 4.723080540502608 5.610764107300448 5.04345535343599
C 6.23429658317364 3.242441193065101 7.199716388352613
C 3.467285233025958 7.817760078529382 7.311705455364371
C 1.4564081017339057 3.6134325935293923 6.730581060382415
C 3.982512692546257 3.4951692462609976 7.40616884884037
C 7.220563062214418 4.881236893727896 7.810201552351402
C 5.865013926869446 7.588946448083538 8.162210667308072
C 5.904431609469859 4.4344648445820996 8.126380208603972
C 4.658417899117389 7.952952917756716 7.900805141930534
C 4.561278063872233 4.431309060242627 8.333877654964537
