48
Energy = -388.38536515 eV
C 8.168684837350817 8.91984832997582 5.256976407600276
C 4.5809769496271215 8.034351581099338 5.228865482348731
C 5.2328801616741645 6.758530549805465 5.241638342543103
C 6.648726178997899 6.8025034292100734 5.133428354204298
C 6.980646522468982 8.218207691619062 4.929091290065078
C 5.627261168433552 8.965118862723921 5.142904712460832
C 7.980649707369216 10.239463590824656 5.833127085735933
C 9.151422806289563 8.528448991825377 6.315816198400016
C 11.516913453926968 8.719681518034035 7.2972653150893185
C 4.306185162216792 7.819621377339046 6.722502731026164
C 5.583477545651533 9.705448330947048 6.404247684581403
C 4.9343658153051475 6.520141456281516 6.646678222534478
C 6.920586830990165 10.1224766860672 6.873674187679953
C 7.182214235518494 8.842997831649114 7.623853778049948
C 7.144491360753303 5.861817227323106 6.19868503609503
C 8.803574704340926 10.997330694415451 6.712548960732539
C 8.373691243418229 5.420073879771923 6.568025635783048
C 10.475751063298436 9.284733822742485 6.499839041367106
C 11.675841951518938 7.345126063592278 7.354682743551759
C 8.46953905237453 8.231500167124427 7.584802286559462
C 4.943743116552239 8.885322748851854 7.4288918803973685
C 6.080064965396251 5.8820919592141925 7.249809108328891
C 11.632070194432226 9.643617599600148 8.434147956288335
C 11.048714082484675 6.284306913704112 7.5560445295255185
C 10.731928992918336 9.369827483935252 9.49121436207907
C 6.013240661987436 8.77264741612613 8.440831338233822
C 10.181993420231082 10.670612641270356 6.857204273278652
C 7.887673907534049 10.923120377600359 7.827481653720119
C 9.826321246657578 10.544913062933649 9.266444866979404
C 10.716035498140856 10.790339394261572 8.133535743776381
C 8.93121486841411 7.748398960807872 8.910618622394615
C 8.805740711145583 5.171508802737869 7.892767084985767
C 10.074799182324476 5.727010058218597 8.356915769657084
C 6.439811402674741 5.595080896014244 8.567530285780547
C 10.034064761730134 8.153530424677646 9.828136121112157
C 7.747522015289451 5.0295929319850154 8.852882937116245
C 6.378594468895771 8.723137909100256 9.817774196284955
C 8.376829913696557 10.458515799215713 9.170956353886135
C 7.71683126867035 9.432200448841227 10.024327227653295
C 8.663124306829314 8.362969072677323 10.433786053579794
C 8.919471456460347 6.085349241861226 10.627683762885335
C 9.782063318252648 6.59466873784705 9.553604767684067
C 5.954827378908816 6.1154192889359775 9.880270982390211
C 7.9462986425564095 5.111807017958049 10.302250789084239
C 6.061916064691608 7.526834499159078 10.482807482065748
C 8.28936259211798 7.221299947301633 11.266199852996802
C 6.945891867638596 6.91013407415069 11.446481289029997
C 6.715654141672758 5.532005408470184 10.934432412224254
