48
Energy = -391.82151908 eV
C 6.146924541301054 6.416771689113946 4.326530475863546
C 7.32514254774026 7.178259019892203 4.143445342410219
C 7.082678432937689 8.553713297194797 4.572671890829407
C 5.006374606579395 7.289463337140704 4.6336676918029704
C 5.600548023202908 8.585728542637058 4.844001100647111
C 8.61198698807515 6.722008802374791 4.53200909681862
C 6.1344068758057215 5.458028610399763 5.39630191418101
C 8.691670879403793 5.648405391177964 5.465172961162749
C 7.403691988843751 5.338738221733847 6.139271537191418
C 9.249877090163016 7.94485255741125 4.98047900030101
C 8.220843337532525 9.04009369021853 5.285757020273592
C 5.34752387270685 8.748131773383712 6.226541994274982
C 4.87600650145613 5.499281945310038 6.110785543486618
C 4.1039872958108035 6.620565264487948 5.568589515604797
C 7.233888721868376 6.946385938111577 6.935486187453351
C 6.269484208545421 8.020642005302724 7.040197485620773
C 9.696375393965317 5.541058125261075 6.532047792566246
C 8.56892928303606 9.63257672711857 6.599943098453975
C 4.188037662689492 8.560563113553716 7.055387033293761
C 7.707901816239212 4.5339107451359055 7.401468940629722
C 8.143573874756498 10.324257671590432 7.827529187908419
C 10.042776232599874 7.795302808752048 6.052740997332747
C 10.535051272929724 6.670525203474848 6.809396445869625
C 3.5603079406649236 7.315651017749703 6.70625026012139
C 4.638736616241095 5.428567435659548 7.5450226645512295
C 10.567775360566728 8.677051684644896 8.212378437270624
C 8.168937722405124 7.500773603129858 7.751130897478519
C 3.755611298531628 6.499188747639928 7.880930026637214
C 9.580310688807204 8.69512745972517 7.065484534169766
C 6.24534882281971 8.708857153665015 8.40199346732398
C 7.067572076035372 9.930479473666173 8.608981673860347
C 8.964287304520237 10.178552907577147 9.251613717537106
C 9.068590256141473 4.940659097687306 7.677146690710694
C 10.817779471955822 7.258048253215194 8.167068863995866
C 4.750827775602478 8.442363204209698 8.507498629339048
C 6.93030144029152 4.808509131027282 8.575791767195772
C 10.029204665587374 9.215063048132818 9.412134439633174
C 7.34112272132139 7.804394323193373 9.06193710073257
C 5.561090866347878 5.2327562840279525 8.650469845111939
C 4.413556073843536 7.193517830640942 8.992200560545689
C 7.8199590955395015 9.827564218517649 10.001008177990174
C 9.064591394168751 5.705001160597063 8.969340011708255
C 9.501883526590298 7.985196101525637 9.972090424753514
C 5.452509885287437 6.349234329119306 9.553983463257833
C 8.137207749630642 8.40661651666621 10.189807987287795
C 9.978839981437464 6.797195340780725 9.227495168317027
C 7.754333843929111 5.587375327213372 9.500418685568441
C 6.852714248975101 6.654074144639914 9.849482526355228
