48
Energy = -387.85461129 eV
C 7.619701006583637 8.148498480860285 4.0954222317504865
C 8.406341144024553 6.931308262883449 4.46656475362263
C 9.537946653980006 7.710733986036312 4.8658878631510785
C 8.688387181970631 8.933861455293915 4.625929791101028
C 6.628872299789415 7.692581170265611 5.018787503811216
C 7.352107564974546 6.420664103235974 5.306160282266546
C 10.181676995235005 7.51436196690066 6.138044989159059
C 8.405764441874183 9.743318526301525 5.851884068670554
C 7.003448956322892 9.854353520798416 6.494001221912241
C 6.479152989609971 8.432642623546517 6.298073183995958
C 7.914086876206739 8.676548555847061 6.840591037505668
C 9.776308507754354 6.525454814408313 7.119017481947911
C 9.326083781597063 10.559201120132588 6.718984333542548
C 10.58589478981855 8.488317092448467 7.1500872243446025
C 10.42205129440678 9.900256118636388 7.4017994104391445
C 5.784986452662896 7.677048429939808 7.401648700272677
C 7.416778533682021 5.954385686660147 6.664431424995222
C 8.640513808493338 5.724876667892177 7.399959212978539
C 7.138637774817056 10.685271202937331 7.731984749067735
C 6.439111418709831 6.412526030655739 7.644572369547401
C 8.528540619550572 11.129516373284051 7.745481705194702
C 9.93070085638696 7.582801338814813 8.181928896649126
C 8.553225913384 8.365486667088891 8.108193276603677
C 5.274051157433948 8.368901779943322 8.457161031634971
C 11.208769217282217 9.64317807955288 9.884754091852415
C 10.432353661386642 10.299849033298049 8.819924757161669
C 6.729207829527957 10.301427830142073 9.03795365126088
C 8.311040661570987 5.712538748169422 8.845236808290576
C 10.117360429846904 7.319382934953899 9.68020779161386
C 9.165701763477175 10.987169174320174 9.049307524726759
C 6.807317582099514 6.8955282637027455 10.25846327616705
C 8.37892535731422 8.928760905801719 9.331955716025954
C 5.912927293702365 9.130463548534372 9.418699525522062
C 6.945214781373052 6.190074752498773 9.00769290829993
C 8.006892161724494 10.37601132247133 9.878958294994078
C 11.127223053749207 8.230860807578178 10.358724430735897
C 6.383738947645188 8.301941779465272 10.566024913975435
C 11.180669901995948 10.155612607412577 11.238907696755579
C 9.112756878388083 6.115422521464757 9.946475445515485
C 10.232638847592051 11.052415346097563 11.618370158837255
C 8.895479199688847 8.001309869793449 10.250781804852236
C 8.10801667577101 6.719204215312754 10.910646053648534
C 10.914366515076654 8.729382620692204 11.72189912030189
C 7.911808966225795 10.16657523520119 11.382647629182248
C 8.47327896516649 7.957644117191017 11.694087481484912
C 9.170131639283465 10.181946877315877 12.064043076401731
C 7.286974326690972 8.860768201934317 11.504727873550907
C 9.616539884971793 8.773320793104006 12.266618785497208
