48
Energy = -394.07094531 eV
C 4.357706414022454 3.7378241687066516 2.2614601715960174
C 6.476584394822228 5.019717035609833 2.728465540737335
C 5.050893746264887 7.1651223078410045 3.0896307287230456
C 6.300686439264049 6.50204262367909 2.9944819157377145
C 5.504306347975984 4.226443835298059 2.175199975317769
C 4.947263844768947 8.429504172187604 3.8003627531250483
C 3.3655786389164692 3.945258835101627 3.2577044160838544
C 7.589753688332437 4.6155645223994455 3.516848325932855
C 3.8553441837248164 6.389965102670998 3.03159001294749
C 3.6464836211061087 8.786776184280413 4.162193616913998
C 4.509314206499853 2.195199458520228 4.316900091058191
C 7.457955719173224 6.962745946607094 3.745219877466978
C 7.786639694174445 3.5664974576642683 4.518176369331081
C 8.31063919682606 5.797170436294354 3.9304530481727826
C 5.734479050236574 2.0477311075738966 4.369857357840002
C 7.286751118071808 8.104508876863255 4.583227628881795
C 6.055356393438798 8.817347284704553 4.568690314368925
C 6.144472771576731 9.108591832000467 6.033623366127803
C 3.4048850666349946 3.0784589312604798 4.397711455131801
C 2.4770861554161474 8.697854765273409 4.568636213253918
C 3.8751244788030332 2.89113359722905 6.780694302469918
C 6.976538843877204 2.4502240346949624 4.9167513349178655
C 8.542595754806653 4.212988940908637 5.57663626786452
C 9.052744441328183 5.49595437464211 5.088518612946978
C 2.2480339256819213 4.441960066148556 6.326291902724674
C 7.425363796881624 8.407622496833278 6.092807329217035
C 1.672719490080845 7.8833374606857705 5.262334626047111
C 3.0161916052785553 3.3797890314351626 5.778890033208353
C 1.6445194574220325 5.717035025165222 6.450658183487191
C 6.927473172325294 2.189415562153121 6.2890798206993335
C 3.2049144425022327 5.365441080802591 3.2708247713155774
C 9.48856606607962 6.4683878255354985 5.976103012827423
C 4.7843712643105665 2.9061143524423607 7.622899287043834
C 3.32175774778692 5.33723551411051 8.514574487133935
C 8.080652653894182 5.381757386588689 7.681772504438989
C 7.767264648054707 7.631787606884186 7.20261595838497
C 8.701951818944938 6.537068676048558 7.094502648086212
C 5.97045273669643 3.5181170310428582 8.060395944879925
C 5.425657036730604 8.888139165136552 7.163918120302438
C 8.114471858783073 4.15079449039332 6.940554509386021
C 2.3918831847350024 5.211707518081859 7.509970571762342
C 1.2296383446232169 6.881431746922657 5.849119907448578
C 6.719213922808047 7.226447488425412 8.162778990006958
C 7.128555671549239 3.1492029039490252 7.263408329924094
C 4.525234369784935 5.269289598724556 8.796414829366139
C 5.858517068980317 4.845147600740419 8.641700836146141
C 6.908681801807594 5.782148889273002 8.40321426224732
C 5.651423619105664 8.102689565375497 8.148829351878053
