48
Energy = -387.0555661 eV
C 7.693890642441661 8.433430572669046 4.950448605142252
C 7.414364745231306 6.106955497669854 5.26930457807706
C 9.011399359903605 7.852670382814325 5.169677282416496
C 8.820616837142952 6.4262245079926705 5.391961612232919
C 6.489615241555293 5.471931251471293 6.194088901241538
C 6.7724260203337785 7.311089848068061 4.723734145845308
C 7.06084075339973 9.322683737656517 5.8469274221314596
C 5.513818589864017 7.524853553544868 5.272771632802259
C 5.318857920843355 6.426299346343591 6.284457857944365
C 10.135428301848224 8.278824232655445 5.973773541904062
C 9.834733060643888 6.033440158511333 6.387924787591068
C 5.749154507530485 8.745042739593732 6.1597084234886506
C 10.808782701666312 7.081661414176179 6.470332544341907
C 8.710463446818348 8.622562167108251 7.469263611764641
C 6.8075251005362905 4.891708373579091 7.4609802503541935
C 9.991932045217627 9.278016690118381 7.127623138863999
C 9.101152862253162 10.537234136535504 7.130586719295133
C 4.254804395079035 6.406649325358878 7.281524015639622
C 5.043237833531325 8.802298400498719 7.497481107607856
C 4.051900481408549 7.765453347918862 7.876909941203731
C 7.75316723726761 9.809954364215507 7.082097739118296
C 6.093170895997853 7.664280108697899 7.210758383111586
C 9.368890449228072 5.483499888799977 7.6167069898882245
C 10.946594381528556 9.251225881520426 8.483521234814711
C 11.810670757395362 7.3914226435609685 7.411748365801275
C 8.153389550259769 4.805064403860063 7.996598302234004
C 12.090878173988878 8.459256413868488 8.006846643551318
C 6.987896094517201 10.111600432100309 8.432237076622101
C 9.220776671118477 11.051744360642731 8.4133835507701
C 4.469290753216752 7.317142785058297 9.182258370646322
C 10.422307670617961 10.614399492462217 9.095482841042466
C 8.372884405094041 7.42606038932178 8.021712428568618
C 5.920233598491575 5.278265634767414 8.630121502650317
C 8.46363722558763 10.238278511186376 10.52388598003411
C 4.68377998180032 5.924126097233041 8.56522571510241
C 5.798469209543804 9.291254365222294 8.716082810485236
C 7.012525092083144 7.373129087831976 8.20907231442588
C 9.150166129872034 6.424839823573271 8.952432183167664
C 10.229568035893855 8.656245091066474 9.812292049969473
C 9.362568185323985 7.56541289281481 9.954182349706706
C 8.127037759703782 5.390751192736052 9.328413522251436
C 8.009377745864212 7.879657481740935 10.525206331308913
C 7.993483882431582 10.756635318300507 9.222367399486851
C 6.845969056246333 5.797365670371578 9.655176263361092
C 9.848310908420704 9.959617238552314 10.24285786080494
C 7.759752739237649 9.143411877660116 10.998221122110085
C 6.779260392638671 7.274802613811506 9.878184951966093
C 5.528076211076536 8.128604296433899 9.68052363880737
