49
Energy = -392.82302601 eV
C 7.97684644387946 7.411497482809314 4.774182143513574
C 6.584996692570516 7.699572025417857 5.009223534240396
C 4.485165709586074 7.239216989882718 5.967273284573551
C 8.956222864400026 8.46305773699157 5.105470955076925
C 8.419363499930613 6.128803221247066 5.181186937885272
C 6.2952069874085845 8.814736017139088 6.0073524459244
C 4.83014660897903 8.49008385468789 6.558354266569885
C 9.624610811409532 6.453666020165881 6.080538584520177
C 7.41336228888471 5.299853491187053 6.051584369390373
C 8.626685364220814 9.75990267809489 5.670238484040514
C 10.156613000040846 7.852466903753769 5.710154991554
C 7.227181506289885 10.073277421298215 6.194875566027392
C 4.002352020165539 6.154913454279441 6.725962935311792
C 5.616755411953314 6.715518946683848 5.205702589928856
C 5.943331906030243 5.3289351665306715 5.718738451208454
C 8.408088175174909 8.174930195076787 7.708268760641352
C 9.762130900891737 10.06738331799446 6.5648183076743525
C 10.68650264727777 8.762977173041248 6.6822410617536105
C 7.492605597691871 6.1906977730316015 7.231005705741999
C 6.867070744897064 8.324679456611756 7.368385000543637
C 4.830792827969967 8.61192364938399 8.002760765179508
C 8.71300663661515 6.905921804078342 7.135531917483526
C 8.15725929909838 4.820344174202338 7.416210753420077
C 9.584508959248717 5.583446690956464 7.392323269611547
C 4.96404824900095 5.016377481959458 6.6548416844601865
C 10.846196772180024 8.491686807158212 8.251224288653455
C 5.045748948102128 5.032522824778457 8.18579000255901
C 7.049603465008784 10.436814482102367 7.5736496648998575
C 9.505881959563272 9.027298866186298 7.739426150572707
C 9.508003699576605 10.56103993010439 7.9580892145370665
C 4.109185488900439 6.20713112183565 8.139435609644003
C 4.634210747835784 7.3609446787445405 8.767733293585428
C 9.81549171754564 6.052368974883511 8.771062459382934
C 6.197842995526676 9.305828076452556 8.314275419559978
C 6.7370658252765825 7.0422221856326965 8.14019296633992
C 10.391033073128602 7.35193130133843 9.155604624278268
C 8.127165252248442 10.700753526481346 8.510998300794245
C 10.297507715045548 9.761378924138208 8.958176716632442
C 7.761578245570262 7.74737153715982 8.981914841336613
C 7.608649721043106 4.9182132361801765 8.875795304739981
C 6.113473934782584 5.246790240966725 9.070107544651979
C 5.8847294358397395 6.7718370858757995 9.45056009593072
C 8.60891126385218 5.724739291518274 9.544646002191152
C 9.405680470379615 9.361448424536128 10.040897707334496
C 6.9794121432355505 8.89682995961698 9.6159192353905
C 9.516274985938342 7.926211433081 10.158492261040136
C 8.247988409681842 7.039480872925794 10.195047251668948
C 8.084988711209537 9.917839280341665 9.725110191824667
C 6.688664184144327 7.5632781306871575 10.548768405406744
