49
Energy = -388.11972394 eV
C 10.12017280754109 7.692106033433029 5.251969817160225
C 8.067031417108458 6.094244684495668 5.43350447031748
C 8.76480153987041 7.297520381722765 4.752940302816675
C 7.857435455024307 8.522405482522682 5.195808557928917
C 6.42931921155043 8.782729832568315 5.691143420322759
C 6.611621258508281 6.213135605642374 6.036031074763299
C 10.019443469475984 9.124404172392826 5.669326035174014
C 8.718143494468286 9.656454221283479 5.563644281198296
C 10.814736241862363 6.923510814795875 6.336339799087606
C 7.920751172062838 10.579048363429072 6.3679861634038675
C 8.887876040088884 5.160548111513122 6.310073144115133
C 5.780365914188916 10.69203111510519 7.549782547164214
C 5.9898563522996255 7.541007455044763 6.336295078893211
C 6.52747615351408 10.095624850315636 6.37107648512117
C 10.089704089031091 5.793500127667092 6.830798247821245
C 8.26572920104453 7.40649767574194 6.194318756944216
C 6.792452351268799 6.7212611172199175 8.640561407342567
C 11.07228431407386 7.971293692755561 7.441794409260946
C 7.9386283116805405 4.713354780959102 7.351683268502529
C 6.610863832934338 5.203019577802889 7.049425175043838
C 10.612014459715137 9.195397003124537 6.960765428238863
C 8.6745262095318 7.425104549666184 7.472486853256038
C 7.047498331286066 8.845212006535752 8.126612041321856
C 9.28574121728667 10.857953124548619 8.563469453941508
C 8.175020038418241 11.164085311792494 7.6604564880265205
C 9.424874529183729 6.370635520721419 8.023045553141209
C 6.357771424852239 5.301992857468647 8.567709975935106
C 6.074075904122724 7.696187073206037 7.841357679104325
C 5.321873148458635 7.57847307911708 9.205633496544648
C 6.111506314174582 9.783898794073316 8.62290421879329
C 8.406703340745832 8.686614058676643 8.075413134386963
C 6.920104829547604 11.247341342269081 8.473253951873215
C 10.60383766186635 8.342220384224595 8.893540393644711
C 7.685108021607052 4.60709869440512 8.845763129373397
C 7.831690752155704 7.003871262572514 9.584920095489274
C 8.832988439715093 10.93385037950972 9.865374189278905
C 5.776515978492606 6.172877163223415 9.728977236469698
C 9.832107731863056 9.518693685140201 8.213806494290456
C 9.272736387499197 6.424593945319559 9.498720624713123
C 5.619138881102651 8.822157723625239 9.831252319795743
C 8.765909427561644 9.793258498723041 10.836774713116835
C 9.071587520283128 8.434348799265086 10.877832391088665
C 9.995300545753896 7.689870141300701 9.987733783780959
C 7.329464715319468 10.046597046744148 10.878039938576146
C 8.251178824227685 5.344269448565023 9.959562769579602
C 7.643150260747865 7.715943631472806 10.883957229244244
C 7.374097091955055 11.182281778827804 9.92087736028854
C 7.185254690498064 6.1625836826119995 10.753370463537701
C 6.610950438798478 8.840310661224047 10.843305895152898
