49
Energy = -383.5539383 eV
C 8.83146014352084 5.693638993871651 4.802504271422173
C 7.419112768835079 8.039728845107486 4.827343147857287
C 7.715590387927369 6.605323980807197 5.032688292674393
C 8.408336085236774 8.98290602270346 5.283852667919455
C 6.085494807632725 8.411508303317072 5.423623796123016
C 10.103411652169099 6.200106147175617 5.355032561383407
C 9.714733073511184 8.661810989904264 5.944015022647764
C 7.571326584522515 9.902356366001891 6.092370868215205
C 10.459418733947922 7.487325059994157 5.941493120160534
C 6.07205764991842 9.863272937741796 5.908046210875817
C 8.447710803685494 4.389209306494269 5.39845372295529
C 7.150590232508424 8.628019091665596 7.223098644037566
C 6.26561427106381 7.4288500036057386 6.70921112501265
C 7.138863953935123 6.287246703866368 6.263052476796985
C 10.490755073953297 5.459495813432577 6.520869699803243
C 8.438351172375295 8.336642195561137 7.8632623092581895
C 9.721823385983054 9.194136497521477 7.356807878952137
C 7.978365903336429 10.88373699188087 7.111877406716266
C 10.801726667034348 6.733049435170552 7.22075830991693
C 9.121194964841099 4.889854502032709 6.525649927298152
C 5.57735351186001 10.710986524507504 6.871874241935114
C 5.663097010764265 6.821697787845189 8.099327263442122
C 8.048673811153158 5.635296653010105 7.345745109392454
C 9.157707379214719 10.55319657284602 7.716021050747512
C 7.5560063823209465 4.893268685186672 8.61977526152775
C 10.58260318555435 7.1681116019693984 8.52053841479512
C 8.342027614551093 6.919142832544413 8.269581240974155
C 6.667923189999606 10.913810438485411 7.9883699175938885
C 10.491385015821752 8.637365280082411 8.596834489466513
C 6.659720285544164 9.423459587628983 8.35289266060531
C 6.935269124904234 6.984818048488347 8.846753708251828
C 6.282637232616381 5.567219598857442 8.893326987572516
C 9.33818533167906 6.589236154498515 9.386692185384053
C 9.088986517967985 10.406591187759448 9.163657693856647
C 5.658390638092517 7.625297243039132 9.464648156818246
C 8.428185059590563 5.330341246921988 9.758075788572723
C 7.987156662926185 9.106890352046085 9.02037710683765
C 5.649228322476778 9.08615424987535 9.419491181034774
C 6.408871711847705 6.386679413599173 10.153444611738609
C 10.046519710188251 9.3775697729177 9.69366516715821
C 6.797901635524446 11.129212712781205 9.639758290943924
C 8.130311619641548 10.97135893975395 10.115518282204832
C 8.72016487877955 7.339283912559407 10.639715095702861
C 7.778220168331555 6.122734462928107 10.769500359517178
C 7.921649655752389 8.547530018562753 10.366122955088157
C 6.076099636118118 10.03622060076925 10.371759316535657
C 9.380393821504226 8.906013496643208 10.973957743184652
C 8.229226609857351 9.913070094304326 11.240210895080423
C 6.933569921843513 9.292628304098079 11.371757326375015
