49
Energy = -392.84643505 eV
C 7.920353561236347 6.8641117176884965 5.221650872510668
C 8.213343528084128 9.175466478231499 4.942034152082226
C 8.978886561105432 7.91510523630174 4.869769491349088
C 6.689154471872759 9.179306580175428 4.915981324502754
C 10.265279192988238 8.280514482862811 5.393708103815117
C 6.629704398286481 7.6607936486267105 5.582428721520763
C 8.923814409767118 10.231172433119632 5.721529632391123
C 8.152532952996266 5.721810843866286 6.033149694579346
C 7.450262027408977 8.730328486908407 6.192105609462984
C 10.174227356806346 9.655715831262558 6.002662241574277
C 11.198061242141899 7.523136963732132 6.228330114734779
C 9.325373522533507 6.146788772868137 6.711584989167644
C 6.606882831697682 9.994813740441232 6.231083499686739
C 7.357463059434572 5.482135255688231 7.343763581848819
C 5.782084954378054 7.242050820255221 6.839218326620479
C 7.884653081489861 10.724669714516546 6.6465569339247965
C 6.944235718599214 6.915053497560697 7.642328720956867
C 10.915365693652165 9.67912549644786 7.246650753947773
C 9.133969483844938 6.991749467338089 7.906602552794229
C 11.579448749257583 8.411933487513936 7.326557419388818
C 5.903783597087989 5.836770044002322 7.712327771880054
C 5.777557190642924 9.733526900221769 7.382333746498593
C 5.227051202225319 8.40466756337445 7.693822314236621
C 10.721186204279368 6.328194353510735 6.821581982238807
C 7.860944608370411 10.778459117131552 8.056336665762696
C 7.916358859125923 7.824540985237149 8.171018914936456
C 10.28857801841098 9.917726765524987 8.552780941729935
C 6.481552334736113 10.29038904723255 8.467984490842532
C 11.327562139309144 7.822901533761359 8.6063443895908
C 9.027111633550582 10.413256906516516 8.915720425805011
C 10.614172188901081 6.60200289677595 8.351475865087082
C 5.86820362960012 5.8710698285132805 9.196850391539641
C 8.132689132203536 5.183859437051084 8.707954281751812
C 5.285962050532318 8.230674221755397 9.112781075471482
C 10.610641457407972 8.735439145631853 9.4308535443335
C 7.195248723839682 5.473261580982043 9.701807194761896
C 9.371482680127816 6.068313771627378 9.134721365152169
C 7.601827064946874 8.730499093467937 9.210540097117008
C 6.238799120970451 9.300155059287714 9.591708088323024
C 5.468530128840767 7.042943069344254 9.898301187875909
C 8.580467225433528 9.511500720339043 10.077012034088776
C 9.552385031017712 8.33732038873855 10.26141731685248
C 7.63746290954774 6.462068126745356 10.684022874999458
C 8.98198699324383 6.926568081941671 10.348217754873602
C 6.391808245070959 7.20709216407596 11.05208799086525
C 6.328590129407487 9.628760993727958 11.057165187858239
C 7.818466542814187 10.030695467152093 11.333825406280877
C 7.6949507434394775 8.850987175470742 12.021296552259466
C 6.382459503660045 8.343488691778411 11.862929496453443
