49
Energy = -384.9721815 eV
C 8.229197461417508 5.4934534875950325 8.7415574815938
C 7.747308343279123 3.0574612969534676 8.237359003167125
C 6.8552903275649735 11.333301720156353 7.179576431506372
C 8.58098294260273 2.5060616548053094 6.349337524746989
C 7.694378502982818 5.2427680806807775 6.502998297872396
C 6.142296933341394 4.612082805334491 9.220519866562915
C 8.011473373931215 12.133043125038203 7.44107596783339
C 5.820335602155152 8.237468380543488 8.767326552752346
C 3.2792950043391826 9.08178904613746 5.341314303827837
C 6.6927746126271135 4.355676658023632 6.302249290245863
C 4.006176613816347 2.40646502822984 4.9654429133352735
C 7.978043708588279 9.196710196330603 8.536025843238416
C 10.11979480303638 5.734419802148827 6.699071213815129
C 10.318668170044504 6.694231731131668 5.791049547926858
C 4.73053979456521 5.931796456924705 5.935790279552668
C 10.577464900393576 4.346438445072869 6.784554325937447
C 6.376201980706852 8.32729216903061 5.295809936425749
C 3.6658517319047443 10.17320132909908 5.8143874116242396
C 3.1278179078084816 7.784859085480345 4.922078983721889
C 3.7292169622836515 6.51493484743524 5.121140507793666
C 9.293362809367846 9.709659930146806 8.79664350146204
C 9.156705787380732 11.979158024659137 7.90939164544329
C 6.018100120528402 5.969735289802488 9.15859641957551
C 7.068700765666754 9.94730779268692 7.712145321265661
C 7.501944285397886 8.44212415736857 4.717413002795488
C 4.633163219773739 9.983949709829997 7.945943096990543
C 2.631572339497081 6.656869658506153 4.230970768022013
C 10.51195595123702 3.5676883409931115 5.6076463865750465
C 4.7491977053902605 3.622004630517539 5.039340606666566
C 5.624530677369012 11.599375982431559 6.621163033924711
C 7.266784218470057 8.011439659097878 9.037222777926473
C 9.104811181332343 2.7489193550258926 7.732268663089257
C 10.127973382167417 3.6105796750961114 7.915822422276692
C 7.307041851661281 3.0829832341860985 6.840696870687376
C 4.734793930840173 9.34182875361131 9.104213053833572
C 7.416639767544123 6.611533982429346 9.207575750838307
C 9.47032498097207 2.860941436691025 5.349934305528191
C 8.770886803222579 8.23598231860722 4.559421254650458
C 7.446912005494478 4.203093601342117 9.000732122392431
C 5.34173376302314 4.6296630922276245 5.779969813185717
C 4.461846488985367 2.99108253371387 3.8187432543328037
C 5.669731380054281 8.155329434288973 6.434015721069306
C 5.861566215317027 9.127461110429296 7.558732484238011
C 8.707113325002886 5.5996685160509525 7.312356382356644
C 5.148863501763131 6.901820637857259 6.934070805738173
C 4.4827904518094375 10.83609380500098 6.765343934784673
C 5.319507158411533 6.89977372817986 8.350919726630723
C 9.65322638270277 10.86403960598979 8.487632753139872
C 9.762553664741384 7.57383674236314 5.049852229612901
