49
Energy = -398.34759671 eV
C 12.819681719907788 11.271042076285283 9.021732996098113
C 12.160432336168258 12.232520405742651 13.92018108280214
C 13.853748778498844 10.424820814251358 9.687236676324478
C 9.695144885814333 14.532444754396371 12.924152305080147
C 12.06740346360787 14.386128099736826 12.964555748336556
C 14.305854793767542 10.186926737858219 12.64576106539929
C 8.574536008813562 11.258396226015059 11.25606335510884
C 13.68947083677124 9.17169771238713 10.31666087040611
C 13.606009827092166 12.471855336506502 9.303142296845282
C 11.462000942475564 10.71110865145414 8.975101518428392
C 11.242045312856078 8.426680337592817 13.895299479316312
C 14.130521781908428 9.167770455569679 11.685088656317689
C 12.873151276536039 14.898453003390506 9.523265081345075
C 8.507086591241011 13.668190996951672 11.019861021348953
C 9.983594889900512 10.589777033534679 13.276462193666383
C 10.121226772829434 11.250539935096809 9.391142181497406
C 11.1476126862062 11.453865984629775 13.112330690824706
C 11.434251669222734 13.494759443342536 13.947578461585548
C 14.27889654873141 11.569643144949529 12.619764358737926
C 12.6504489949054 8.263724570721596 13.579577887172713
C 10.552451475320236 8.474783660775298 9.73765904769561
C 13.429533253722607 12.490768632160616 13.307789574659445
C 11.780820860828758 15.42496144148397 9.862580089450905
C 10.901950987090135 14.709957157927953 12.078451705405591
C 8.870909743257458 11.40650113762021 12.694654173728471
C 10.203607975153869 9.170268710996524 13.229195695822074
C 8.36111485352508 12.390565538978533 10.442160684942072
C 9.420817844538254 10.427850437528303 10.41043159397413
C 11.059277290944815 7.4528679310006005 11.754014683833807
C 14.473360743388618 11.62939102988136 10.142128302219588
C 9.977428440350433 13.595819235057203 13.919607115846174
C 13.538607265401676 13.778484545750338 9.917741858695
C 11.524960497253604 7.624323969340986 10.41424113135857
C 9.996085738963355 8.456653063958049 11.96067949067235
C 9.815858053160829 13.845859466830172 10.254367772952559
C 13.995055324379614 13.535751315820113 11.322221628914537
C 11.54020771362929 9.307381192837214 9.098541316777325
C 12.550537847734656 8.464798375603571 9.828338782639834
C 8.510020773395638 13.85669029427031 12.388832439363227
C 9.433960795467383 12.508145098454582 9.433911637494523
C 10.749344415426721 13.232278168498864 11.297154463405876
C 13.72373259607028 8.92602450546539 13.003925824439653
C 9.704986984436394 9.07461957538339 10.669717100126544
C 13.317155680769444 13.766624309314844 12.569322062019818
C 11.726821996991069 7.420162615607132 12.987348440494976
C 10.99982159496459 12.089497690588626 11.862067867537903
C 10.68766236878967 15.130703419057905 10.568627467893311
C 8.803222487139335 12.733767696075846 13.255977261390422
C 14.627193715134114 12.235593849637265 11.379558239483456
