49
Energy = -387.04690418 eV
C 9.426888266457942 8.332442254577664 6.210236668094375
C 8.881790163872454 6.27770363901028 6.0526711633514765
C 6.721310404775089 8.475976295114926 5.587898329265431
C 8.06795847738771 7.705099354309425 6.020250379900867
C 5.597642495125279 7.457336199476445 5.749839110349956
C 10.05134505046574 6.977805681510955 6.474470282633806
C 5.851060132121283 5.947449541546556 6.247090957966765
C 9.610116970625034 9.720048666136188 6.235896210593669
C 10.701752697340453 10.621658222983127 6.5768007337436885
C 8.271730215352383 5.211032713497892 6.909345318893234
C 8.664295336544802 10.668406396552351 6.870703332999222
C 6.41358403991814 9.551213815085495 6.539623184062186
C 6.905863726938602 4.98909183052119 6.872834854192136
C 10.86689164711348 6.7165958099084895 7.713230143425317
C 7.435366522179811 7.557329523102275 7.415613758025907
C 6.078958339952373 7.132222922843777 7.136318285324684
C 4.752698537346873 7.98430829511372 6.978523608454679
C 4.880367198089231 5.526530337461008 7.380762681245454
C 9.679649212339484 11.615239023041434 7.195145808384175
C 7.444669649246387 10.129677361998459 7.570517684777941
C 11.726495796605603 9.266763628753832 8.417024616109124
C 11.650617102076458 10.451230286506371 7.534944570668324
C 7.859971155329601 8.744117577056052 8.220098057601811
C 5.264640761691977 9.278474981098766 7.350559543196688
C 4.736966055060166 6.86489467717545 7.986686990408507
C 8.29710600643578 6.835215483952292 8.328417227306264
C 5.977191720475798 4.926411714790604 8.079452277063593
C 11.323720047500597 7.943264434238381 8.457268878903943
C 6.63627872652541 10.486697518393935 8.92108449470639
C 5.543951096684614 9.582141580260798 8.746220986904381
C 5.453949978150534 6.935858887408078 9.274955570960232
C 8.817018294752913 5.383530819611221 8.313588380230664
C 10.169035877773766 5.872433590380317 8.703544318288557
C 11.054481086419505 10.097932650554961 9.454142766124892
C 9.950529189185291 12.174067820858266 8.465832679801927
C 7.319694108692729 8.5150092091396 9.5985531580661
C 5.754762102226733 8.347003082397604 9.693220939929333
C 9.130570604058672 8.015908348695826 8.427110886710329
C 6.325167898090188 5.749172803510766 9.236137188839866
C 11.062520133138477 11.314463548824708 8.663557002969082
C 7.813778049149765 5.88596901119895 9.453642225196006
C 10.303122046112545 7.965564237914368 9.54466297440469
C 7.376969893272081 9.930314499760247 10.218299453769902
C 8.764443008328506 9.370114930567679 10.666966993551434
C 9.93834964044468 6.606089840882221 9.989213828187319
C 10.075046882563639 9.326846335247044 10.151912622693466
C 8.064533874653744 7.997628629753537 10.774652860165041
C 6.560659631747737 8.82013411528918 10.940688403008206
C 8.620453480222217 6.591541202547438 10.525750939109443
