49
Energy = -391.99376169 eV
C 7.710811605449854 7.4583328349345805 4.357126358095045
C 6.46360840253981 7.160345026047232 5.103877236272906
C 8.591669945330379 6.361110994699107 4.703546336024451
C 9.831098740826066 6.9356943218766975 5.34795964825894
C 8.183005025949814 8.655062048199746 5.221370822011871
C 7.777890258897866 5.285214287686358 5.349231328035202
C 7.409043665917977 9.824893223230006 5.797314464947893
C 9.640026848230733 8.411725661376586 5.3104706169748965
C 5.479890786085246 8.080101677793767 5.702585854017741
C 6.421430129310687 5.7675740165524525 5.587156078706652
C 7.549970565086167 7.685437017335462 6.286504682460793
C 5.937844724508679 9.52841990942905 5.994487265179066
C 5.578927806396345 5.871092217200415 6.787444111313529
C 10.409795858387328 8.925589497886055 6.679677212362838
C 4.938128737329143 7.173762733620629 6.711277156924784
C 8.179999204443101 10.324787978403068 6.958891320644518
C 10.322394799772765 6.608814072340855 6.6984696990450185
C 7.092974601495436 8.226039973243022 7.625027247341432
C 8.357618582885435 5.105490440270502 6.7168786187397655
C 10.869867566750495 9.139278720857495 5.266018321059576
C 9.492734280855268 9.811481181014095 7.355706655508785
C 8.162767142999076 6.562137525626326 7.059541892222738
C 5.291754178826278 10.15243280546685 7.093309495602895
C 9.758178014955368 5.408337468366816 7.232435923077082
C 10.665263478098838 7.757440507787198 7.556280587576758
C 8.046443149020757 4.48088249952537 8.081594661835343
C 6.081051864718797 10.698239373688343 8.247175085744203
C 7.466887051859118 10.559410748281543 8.227524031073605
C 4.5943758902364324 9.175858081261728 8.110354263345844
C 4.679632434716074 7.643591632664596 8.075628482144987
C 9.368513102772171 4.944381440071167 8.555264876731062
C 5.740867423527668 5.5315913771890735 8.279997341321488
C 7.763084472790182 7.221327562318716 8.23005097384861
C 9.479365907741808 9.407856941641386 8.73546432475723
C 6.952291214585081 4.828412662410496 8.890107862853691
C 5.928462241048135 8.487688328874498 8.365672968276154
C 7.365343134405162 6.900256992471438 9.535860457925411
C 10.057886352114357 8.047218071582 8.862728485872248
C 5.376969221835021 9.771963054001983 9.233533771539566
C 9.52097147435019 7.152421055409731 9.92526714148277
C 8.246939396389049 9.85317091890324 9.310395622095044
C 5.073318629134035 6.533443909272981 9.060078346955102
C 7.695409283722496 5.532475360743299 10.048464754164659
C 9.189129163931554 5.745513108917076 9.713430989693384
C 6.004456380488436 7.20377787302129 10.144104999162565
C 7.6111957502835175 9.01036615810885 10.240681589543073
C 8.249484542880644 7.714495273460881 10.573286205207703
C 6.171971904182384 8.7089237932868 9.952539853137067
C 7.19343787433722 6.600320454047243 11.072386791282327
