49
Energy = -397.09996494 eV
C 7.717534352218757 7.781821119095131 4.1093709142613415
C 9.090708585216644 7.98158429585184 4.3513519719225675
C 8.821778022746761 5.64614152142095 5.000851678902846
C 6.702668907277541 8.64642485931749 4.584251756462234
C 5.973774105516837 6.430128345758726 5.190322469213523
C 7.480181722570038 6.446174837979051 4.8401982675471205
C 9.746137586339396 6.703163990524861 4.765449056905125
C 5.593770185120525 7.80677983409024 5.0591500049166225
C 7.474638666578289 8.413785233559704 6.549577359199315
C 9.615924605981489 8.654700055056747 5.487168117028983
C 9.980973164599918 5.342254377525273 7.151841253595852
C 5.376150351257709 5.8345623448921975 6.436420965509717
C 8.978696202571875 4.874414619546865 6.212665607930477
C 7.703195420753597 7.036560799845704 6.2703582434001595
C 7.182135497203494 9.706092291657514 5.560129058194477
C 8.55805911621843 9.472872714475747 6.271745157957336
C 10.420126696836029 7.358329455797336 5.852824291587044
C 4.959488375333091 8.167830080704709 6.345845115599918
C 7.716359394607754 4.71728159057326 7.178317146817726
C 7.731785683191593 6.255756158428309 7.345319182319004
C 6.096979451103663 4.881597960422003 7.3178985785533
C 4.595847426650186 6.8729001439937365 7.049747640740586
C 6.339032024635308 10.40353639147641 6.571731269527388
C 5.197073087757149 9.508358392384888 7.059544455071551
C 6.2485650170576035 8.403605539997791 7.268909228067115
C 7.106579825908865 10.594721795173225 7.817442765417142
C 10.306158495182599 8.735514951407533 8.359653748429977
C 9.101696639677987 9.354245795214371 8.753923503614917
C 10.641251019306582 6.664383151561859 7.04195585712381
C 8.443777301307327 10.12105119537246 7.681963989076955
C 10.430939541668167 7.361447952321797 8.312155659893643
C 4.977133686269114 9.673374897484681 8.548874508976821
C 9.505647462010435 5.219750924645369 8.536048355073072
C 5.900163936295878 4.922387135711123 8.751997294467985
C 8.24736198074026 4.488200143626309 8.562944146672919
C 4.666103178951466 7.050297200408104 8.515202453757732
C 7.4142641591730145 6.869095041064547 8.593476420602256
C 6.324486825957828 10.151725333818938 8.980865594966009
C 6.2254788140089605 7.612329847285196 8.47105442633257
C 7.214423058743805 4.845835578813263 9.422287929515663
C 9.637723411333106 6.4956109625892475 9.163662221123964
C 4.667980365742426 8.462934929937381 9.217734392935737
C 5.136064415697478 5.979758561305885 9.428809261501062
C 8.262080914681373 8.723188530368756 9.75146243261784
C 6.914171413585669 9.200101479433126 9.907436390160806
C 5.94503118312371 6.6636691527873255 10.426779838723093
C 7.300634450606907 6.168274814168575 10.119612479032241
C 5.879078024597478 8.121180714599465 10.02205201366271
C 8.428856637897702 7.152933348336839 9.760285916902411
