49
Energy = -387.80438806 eV
C 10.962086882465407 7.761584932043571 4.6223385150739995
C 9.518947941546802 7.239158208591597 4.4413769800479095
C 11.128768938460992 6.504781892390554 5.346064919871262
C 9.821617532857594 5.953519024799926 5.034633361183212
C 6.363842470855822 6.70758902476268 6.131123414729656
C 11.33241631086363 8.899611768759677 5.247492108168999
C 10.293742279441886 9.526811124331141 5.99605309889787
C 7.064562108785268 7.679484226705993 5.250261383001996
C 8.42106413466305 8.00471824435461 4.855634571055853
C 5.469147237063052 8.898847074739868 6.650467205675483
C 6.546557271957628 8.974343147322301 5.68462042004207
C 5.29786651330875 7.453598920080294 6.871722903551018
C 10.877426526623676 6.291145794174419 6.80245317606268
C 7.580594845891462 9.98279177217764 6.043236026151437
C 6.887031862594493 5.7003975422892745 7.054097958862956
C 9.523076386683588 5.5682920478014815 6.391481058170624
C 8.808917197920874 9.281110044628761 5.633929060271684
C 8.324283518867242 5.3060993124686515 7.180556941887622
C 10.198385645439979 9.628283387920032 7.537862777304011
C 7.597613541004352 8.033557748654813 8.134834598613642
C 5.775507137085439 9.900684857296524 7.75001830208651
C 5.22901205082888 7.059938845908268 8.20619283389725
C 10.948226388887532 7.080170204713839 7.990238717016902
C 6.943035325827565 8.97843951776482 7.283136208606505
C 7.055109932498649 8.020406530089051 9.456644401678552
C 7.186728958176789 10.4942032744647 7.410143831961325
C 9.377658086386264 8.604134828499605 6.850166019110716
C 8.798236722868568 5.416549900499893 8.520058280539322
C 8.822223999699537 7.621915333612367 7.783163892099581
C 6.129258030642044 5.907224155382535 8.32945833234394
C 5.663463965180209 9.685100306944097 9.165708190445834
C 9.324772048759648 10.138886339544273 8.74673906176961
C 10.871265920577422 8.574709459814063 8.452833024072147
C 6.825211073831867 10.51097041423553 9.739174176697064
C 5.489439179875765 8.05237444896179 9.373552886008607
C 9.70413776154849 6.618394682971613 8.640244182928956
C 7.95544214630698 10.592595289522361 8.714322090554623
C 9.949920208815412 9.023492847751347 9.513370759181472
C 6.707001154932579 5.962375915290908 9.647366854173884
C 7.789651097994587 8.311811016500178 10.696817950099785
C 8.15831653103352 5.7607751534675895 9.735493801673373
C 9.230226608453268 6.788853319879461 10.036023419211773
C 6.094676033487731 7.1218285879829155 10.403316042733001
C 6.822315820155386 10.76494303811449 11.080043799365097
C 9.209460806001196 8.130006017126899 10.42828755321534
C 6.8454705113444545 7.778065793480271 11.575916006958606
C 6.549475586183924 10.646517804096232 12.323807799157331
C 6.500011490798512 8.168088208689193 12.882363720545515
C 6.5813135521597825 9.445335946036494 12.909674660882517
