5
Energy = -28.24850321 eV
C 5.820182978893729 5.66300905978557 6.991712457344286
C 4.758575033206957 5.424738732623757 6.1427580014491525
C 5.224918772425547 6.709964175148892 6.324813175363676
C 8.32690485310351 8.2146508398595 6.908878519506661
C 8.585325266073719 7.060581747645945 6.344945818942444
