50
Energy = -400.3971031 eV
C 4.23755476130136 6.673212779706559 4.000564205836266
C 5.232647121364243 3.7153474312722348 6.673584086571645
C 3.702214616655327 7.750891640514627 4.80709845203225
C 9.902207857534098 6.205132856019598 3.074656379888317
C 4.343634336093458 8.59122700841584 5.7928203329678265
C 7.111773691095648 4.564232454684237 7.913736512154231
C 6.423077507653184 6.6052904800072945 2.542077084551118
C 7.290005252252741 3.4772235186594833 5.538428325134208
C 3.4023484692782593 5.5323369263581075 9.196606787550888
C 6.170647053220523 3.223434840806593 4.655391060636314
C 8.027434686421019 8.97380441360573 6.4534687093598455
C 7.55830281416719 7.221614751871071 10.318293374459474
C 5.895010626170735 6.302714138744186 9.052590743650553
C 5.24219216784963 5.292071021947223 6.740546528962628
C 3.5799787317788376 5.596273253662822 4.800768714051399
C 8.799061821687907 6.706492550087654 2.445551377350335
C 9.500214429324217 4.88057659514638 5.037861873923103
C 5.111259779998119 4.69126884263806 3.297003569768884
C 7.817505818177492 4.88159277153005 9.053416869577047
C 2.6870164358790563 6.929960541305218 5.459639055077759
C 6.788128856366893 3.5974529451421513 6.8563529618290255
C 8.83060646133704 8.040776976386706 6.639590881064188
C 4.166845311534172 4.308899305467295 4.351254739471654
C 2.738522209191001 5.847568418910004 8.00587832481065
C 6.965758401277154 7.8826540229811775 2.2348580158623133
C 9.443641494766885 6.856774536431949 6.605691110020221
C 6.7711116372559985 9.517363279738564 6.500145004323738
C 6.713935448614659 8.193263351971618 10.012373870940394
C 3.1626094580173425 4.7098263567431085 7.227099149041512
C 8.225293482221181 7.950196459301173 2.058163766803162
C 3.151989024893047 6.881249497567386 6.941477595805034
C 8.29537511147056 4.195536919668587 4.702293906688963
C 10.248520206680297 5.367449851789738 3.9470073615991343
C 5.707616056922913 9.514528589941117 7.399278632124675
C 7.594461290904164 4.575351498079981 3.438246112694288
C 4.035131024297375 8.071517670731259 7.115438186046059
C 7.3101847451811794 6.023130811800744 9.700404808681549
C 5.199573914537313 6.120740123930295 3.1120918493529346
C 4.736561996510447 5.468972658574864 9.596962617752718
C 7.6416271357450585 5.798364188312097 2.6929540260203426
C 6.318298331451291 3.9527950239207263 3.4461578743534944
C 4.903402759222428 3.4283697255817294 5.232342831375721
C 4.959145560778711 8.54515512614033 8.12745169651707
C 5.442806631018268 9.482253523699896 5.992145110663616
C 4.189046959325292 4.271288391883048 9.076176196876398
C 4.107802021868726 3.7537367930985974 7.7688986162947
C 3.902282912028257 5.6409875485418395 6.29235365968082
C 5.692746622706942 7.836978130315216 9.145476226975964
C 9.598166369142774 5.696747753602097 6.183466241224642
C 6.1006823156147725 5.631333431549461 7.71982631038664
