50
Energy = -412.73551587 eV
C 4.47010198633523 4.640293101680436 1.5801396373365355
C 5.317247124589104 6.751624239482364 1.3954703936908561
C 6.849411692241692 3.670948198814584 2.4143338708836306
C 5.946812518146294 4.530653828449512 1.6937443564314496
C 3.4904682264463394 3.7636799757339228 2.193226350648169
C 2.2382797671030916 4.375848954200536 2.6798665119414737
C 4.117689277785827 6.029498129281159 1.4528095629119742
C 5.82131872220172 7.275256547025186 3.820593427342292
C 7.106387551751683 2.80691423347665 4.865803196824372
C 3.9914476385500333 2.628099630016458 2.821977509232088
C 1.8783549283217018 5.664859187353346 2.21836462304705
C 6.152950937254331 6.989496456126641 2.49588418220601
C 6.422548653305098 5.902185271386852 1.5523357619234244
C 8.534748861821962 4.926878971681706 3.3604058831354635
C 5.206816160801762 2.25174692783998 3.4138706418477613
C 8.187479314342902 4.12444507417981 2.46487672092741
C 4.378759268178453 7.487210813552364 4.184881704540255
C 6.484459155988777 2.7715059110872353 3.5169365735471754
C 1.8253097472606081 4.253196813670292 4.05979710746624
C 3.2996712245815965 2.430196393732263 5.241504414185867
C 2.9982431353674914 6.495254002039517 2.21052572299272
C 3.9720461018243416 2.049374120101828 4.096995832501779
C 7.596460743265679 6.122488453466615 5.464689454346825
C 1.9028573181521538 7.641722472743374 5.533966353010274
C 3.15590117609313 7.194252857274205 3.462856871217463
C 3.923993900558345 2.6388083192528233 6.545982137655633
C 6.503297789763292 2.3099571199768687 6.063476364473004
C 4.319114354423553 7.390331381883479 5.651508714656215
C 1.9821867663431945 6.88705794911943 4.366963735538044
C 7.972051736186561 3.887391500988322 5.370935685753254
C 6.515294472229642 6.940434647541975 5.044530014582236
C 1.5655737967904262 5.532463796824562 4.743109553314978
C 5.241064373780069 2.267329077673781 6.865048164628573
C 8.286301292987437 5.11317037081869 4.696548244944574
C 7.2484841292280215 5.540883631055397 6.77920069956305
C 3.157045849746412 3.730408600287252 7.168989402769764
C 2.1367838665142966 3.281305521025132 5.110790619756869
C 5.948597693582426 6.038960417770809 7.182470918951381
C 7.060739396270081 3.0057429250161274 7.2270340314995485
C 1.6989060803155924 5.296988889658036 6.176648598556097
C 3.0315378085634963 7.271988730368135 6.296783475033364
C 7.681463378839316 4.167534674576824 6.7668977650465045
C 3.6243829174552133 5.061628596306843 7.523713401041328
C 5.557959866080298 6.9559927102935495 6.121022488398337
C 5.952605721191526 2.7457607376712985 8.081718973532384
C 5.408165017412611 4.25968040764936 8.82036315513692
C 1.9821189821603558 3.9268309518946434 6.359884491253423
C 5.000481978867125 5.280667885977745 7.955940296383863
C 2.726564225967625 6.0234097612936495 6.925898684756404
C 5.614150390328447 3.1522778479753955 9.443320735935384
