50
Energy = -408.15445036 eV
C 4.254619399015286 5.818901002416604 1.2446863814864442
C 6.479870750718886 4.917231817820394 2.213511109623413
C 5.603658090159988 5.805805677468868 1.5512044255966384
C 5.811126642271206 7.08429368329227 2.241402832632604
C 6.901393496598435 7.062759259072344 3.0769991467700115
C 1.8956670455241327 3.993725398107307 3.7319835516592312
C 2.5488116588209335 2.739546253795423 3.5836732540518135
C 4.579880956931926 7.462683817989207 2.9079346474663725
C 5.906001249650191 3.9179193615813155 3.1256487617725965
C 3.580316417003576 6.6876168609767594 2.1592567594742045
C 7.9653604807471075 3.5748610539363415 4.277771737065227
C 6.710575275100767 2.979140056545025 3.936973170018975
C 6.46294458089372 7.775989273329377 4.2546595827713345
C 2.328438598783318 6.170678778135862 2.504223286853011
C 2.1054910873602277 3.6552771881023096 6.326990813609284
C 8.16558814935232 5.053702666888577 4.046280778132487
C 7.473290406572552 5.706116715322386 3.0377061181756266
C 1.8669002807758779 4.406999301577317 5.0665142348916685
C 4.5581800457734944 1.9005946660290078 4.889721763656238
C 4.288132441113359 7.635855191077402 5.559309950423661
C 1.8920068640528167 5.057103130030636 2.8386801274138165
C 3.4969756803050043 2.0544299978581373 3.9923154061932893
C 4.931072339171263 7.836421306480206 4.269396118310585
C 5.957010566462721 2.2371738402634547 4.925616151808257
C 8.53745024381886 3.2496346064729567 5.49779178820415
C 8.535195464403733 5.595781227133779 5.357050356042829
C 3.295337516023937 3.022688016672041 6.904384388905908
C 4.705691884251599 4.833355568445856 5.20750857524992
C 2.0797147650595043 5.737407266287144 5.782053583071853
C 7.245921291673511 7.8366254886480675 5.361898369879864
C 8.467568791394985 4.4192479634066375 6.270447470260016
C 6.627393390757663 7.933426420406745 6.66018836691491
C 5.027352856395754 4.454035559859777 4.04459893670596
C 3.1142978327072255 6.788072356077527 6.010780018759202
C 5.241377384904599 7.782500778152812 6.779160555743106
C 8.233401522196747 6.851549255585252 5.858492682982492
C 1.9649173131583328 4.9187700963805705 7.0063575304809556
C 4.892167909770877 6.870488144506141 7.810508207149513
C 4.379219993853755 2.3144139406126643 6.284456084358877
C 4.581262635672443 5.148382443330614 6.506104600110335
C 6.316272986644858 3.6062626363391765 7.28531477962687
C 7.104791382732477 5.791667110860938 7.828390137449374
C 7.481893323061946 4.484660553986945 7.2944363348360834
C 3.783696140385096 3.980352819267148 7.931732624963192
C 3.713065857874496 6.218584142476254 7.271118695584105
C 7.569228524456303 6.955167100183288 7.175534401841259
C 5.813131238193815 2.6057211419446142 6.4195399280891445
C 2.929977616126076 5.1550770959942716 7.962107463799204
C 5.753768170481264 5.816797391192878 8.261191463244227
C 5.193769867750139 4.445682984588681 7.81757095279957
