50
Energy = -405.86293513 eV
C 6.614633009543822 6.472982342355355 9.732878198566642
C 5.77828573777263 5.359598583438232 9.251068011635722
C 7.989879512659393 4.680023198120895 9.234046161117455
C 6.627981916494529 4.265041773486539 8.937949870445802
C 4.460361417015763 7.825062765268608 9.863888547844532
C 8.106657505164986 9.48965414913977 9.352764103774765
C 6.228034272554013 3.521716888257149 7.831622807821127
C 8.00388374017236 6.084232999803371 9.559302144262002
C 5.834940038551935 7.667632538919654 9.417277174607197
C 4.456145835860268 5.112776853731031 7.1091007084563484
C 9.119861148879444 4.020853200071587 8.72612119634769
C 6.392425472611435 10.418446357959985 7.773328909577088
C 3.674036596214566 6.810654177504783 9.213779510393385
C 8.718098899903671 8.412035399056393 9.417198094163373
C 4.648446050215359 5.880378114334555 8.372050095298537
C 9.336204134450503 3.913305788316512 7.495945199415651
C 5.789670968626182 6.8963457315174574 8.094923593628806
C 5.362198780027725 3.967094136534403 6.855624069801424
C 8.918288936705318 7.088395774095786 8.981354722452028
C 3.4857797025691557 8.180309131920222 8.732689007980488
C 5.699148143987869 3.953968732496803 5.419623010687589
C 8.391959331137707 4.107516523315065 5.223946507999995
C 7.22646788053029 10.24613287531096 8.676966462826314
C 7.027023186120001 3.8739565467960344 4.918524497838658
C 9.528189265206448 7.096693530064773 7.669643747566194
C 9.236732186766508 4.5298121437386065 6.291100118112491
C 9.803444325784048 8.32162561681876 6.963324778762913
C 3.826639875054849 8.788635829507866 7.641529795797462
C 9.214945212977304 6.088605428217934 6.3514556316531925
C 4.906221151523681 4.9790596781349326 4.853177432563945
C 7.637575486107059 6.095604910982557 3.6582807091791696
C 10.008794762978406 8.122393450792835 5.600741731409659
C 5.785272530583591 9.986771124447273 6.60035249001037
C 7.773223603916382 4.801328742525522 4.162981301365525
C 4.161445818430475 5.68748704224717 5.859592522804
C 4.561263732343912 9.141532407788667 6.554139636014443
C 6.7251155803263005 6.7418559854799645 7.0860441003310894
C 7.795554530978428 6.402095390797762 6.585595812058959
C 9.149837998258048 9.189949414688671 5.93233357697727
C 9.599712968172335 6.909997804700131 5.060589994031722
C 7.916824344639191 8.388836459294954 4.056782016592102
C 4.353534472617861 6.981691875966657 5.077092781488934
C 6.560204619320142 9.699122667133587 5.4332900548475855
C 5.147944713373279 6.217445469300935 4.108226694110158
C 6.322881268007248 6.725544015411343 3.5317143876200174
C 5.751071906699298 8.867698841368705 4.592407825540383
C 8.590646416005047 7.111090068875022 4.057783914734182
C 7.961694513909087 9.358197198226387 5.167534010022281
C 4.636546265410783 8.333757542109682 5.334251715839552
C 6.547615391387878 8.121886534543112 3.7147584364115094
