51
Energy = -419.46966921 eV
C 4.861582871413746 5.196145399097377 4.813970140479691
C 5.2136134387405315 7.517843454374612 4.302120124053662
C 7.004315372199758 5.613393029400917 3.9950077931673476
C 4.3032804990576015 7.891167933325141 5.359948950922
C 4.1316086084804695 5.560922058357487 5.9857628124710835
C 5.6719573877083 4.030684745600152 5.054166790784788
C 5.814961858364365 8.748721768068917 3.750635927255958
C 5.636950693014081 6.167107185504 4.125847703794698
C 3.8493618050518292 6.889637805445056 6.3360345453569025
C 8.11947180485922 7.8345542103295776 4.0261310757719775
C 4.386387161195067 9.383651713619628 5.425267651676483
C 7.009917033779322 4.297971174704943 4.626337933403057
C 5.454727051783546 3.6055878580122074 6.370030495387819
C 8.101798029218864 3.843180499005593 5.465738636839989
C 5.820183302464755 5.496458824672104 7.715686854087267
C 8.189161093766783 6.444864227925191 4.0913253091525075
C 4.206333076911341 10.002210153586315 6.691546783306941
C 4.640381920355706 4.628540035622222 7.035333184730715
C 9.042229943677825 8.80156582785751 6.162608807588581
C 5.1494298329118315 9.82448395340659 4.37451343259715
C 9.273476041727381 4.62740153701758 5.394766052728656
C 7.185444851186861 8.836083811682714 3.581569815404993
C 3.823405838472893 7.075991217712518 7.796722264570919
C 8.731014005051092 8.907852410881468 4.7651653025411855
C 4.899038052894713 10.112684667617708 7.969180136693279
C 9.268054811375157 5.938055625724182 4.864144219998483
C 3.597510074103871 9.539177586937996 7.814494416188489
C 9.554283247945774 7.578061072130901 6.809517127004327
C 3.590651683998102 8.264150432426014 8.474770386604463
C 8.39141249412605 9.546320223475457 7.134432850742602
C 8.17333126615551 9.904937149471175 3.871482175054248
C 4.827886514556188 6.2065061795536085 8.682758768225828
C 7.82218797662664 3.3210576734004276 6.799769829381099
C 4.79155321938766 4.660731446752503 8.55902185935507
C 5.668668380953464 9.407734536595216 8.938273397789755
C 9.953583598778923 6.443834554626778 6.087973690593543
C 6.485794703767145 3.295750426612734 7.237454651162824
C 6.9970696655370705 8.79806089885375 9.147751948755275
C 9.875459901867044 4.419276805267358 7.749934713323046
C 8.183465826170165 8.816339990953159 8.336586340581666
C 9.103026907551808 7.640898614204758 8.20000684643975
C 4.723320932730703 8.380384226811662 9.38278873146315
C 5.34084936021664 7.17720406074853 9.716120366817291
C 8.241995248164567 5.452697864354084 9.561695947397594
C 8.6171388266981 3.7994539646770193 7.927867949867735
C 7.779956602860254 6.678795521904908 10.005981671115624
C 6.338394307420925 4.199523952327399 8.43093335065549
C 10.064714201590256 5.028693540910253 6.564381805296703
C 8.916444019814804 6.658909801720429 9.173209896507919
C 6.720790139649328 7.5381410342814075 9.845822032833299
C 7.763873666935239 4.281698726759227 8.974375500765253
