52
Energy = -430.83316286 eV
C 3.5440824612800093 4.960314019402772 3.8986913996924932
C 4.377983186122507 7.147323131273285 4.652622880106853
C 7.868453174305038 7.178867490566481 3.675037711804988
C 6.606400346135011 2.316532598453058 4.940866381160087
C 2.014581938130777 3.3769213034242425 6.659641439906395
C 4.848398252337823 3.8444908216192686 2.121507289918351
C 3.797279202544761 2.586156368252027 7.964573149754234
C 8.10383106273957 5.652581490955996 5.427278512826121
C 5.435968635185827 2.7029575888200976 2.647857478218394
C 4.4144724392881365 6.724796350806336 7.665450935204817
C 7.251548700569538 3.9791783132113228 7.129168275977625
C 5.196510825684882 7.596117541738898 6.915684769779946
C 2.1838327525473233 4.421170376348018 5.719043978288243
C 4.566146981945282 9.43371808783469 5.129631079217108
C 2.7374727057621353 5.704913880304395 6.015840492170897
C 4.314606969392212 5.031507242512848 2.701844704904612
C 2.5119553456976584 2.1688477289942942 6.038469831340647
C 3.6306072860464806 1.7392373678488158 6.8475059428496765
C 6.200720914974291 2.989648171614982 7.342664025530532
C 5.0413276938514855 3.259485413925987 8.230145785373011
C 2.6900000343125336 3.5738731203941496 7.896106219216512
C 4.382156186219618 1.7725522411476442 4.6453071329281626
C 4.84438440810805 6.325698517706122 2.340426670330937
C 5.259574083224925 5.857188364183747 8.487140179761157
C 8.43662934165853 5.913407317943065 4.0020943954094195
C 3.0658704914630186 2.4628860041568346 4.740403819115398
C 4.739663502195543 1.4958008160709715 6.008670981175327
C 8.609745232309244 4.757277435136679 3.2755026651566164
C 5.563159555299492 2.1174864901070602 3.9414627055973557
C 4.841073086420046 7.073692545739488 1.1589323113204113
C 7.828325587732876 4.267257623175337 5.815327987655865
C 6.607169793966759 6.114536933140053 8.141042149116604
C 7.4576144225996135 6.915909174520573 5.969779870623741
C 3.184055362055788 5.9678500935773 7.351530639773628
C 2.826091416326976 3.873588334029351 4.509946471047849
C 5.230784605723727 7.135160077807947 3.497066875896186
C 6.613063669039411 7.107955800539149 7.090643417999997
C 4.635464472868419 4.624745972977542 8.613244548833682
C 6.524251348071434 7.625096531738155 3.6764049409302073
C 8.349843355087208 3.579719756667984 3.603359630813948
C 4.41935630684562 9.505701511601183 1.5773835402223775
C 7.661243061275933 3.236349517970237 4.76871696497352
C 5.48289833156286 2.9192929237548646 1.2523749604693926
C 4.385310971744595 10.081045853618246 2.7174147356836893
C 4.350936175523218 10.048127599758008 4.0282798490985625
C 4.742892307289886 8.33823482393407 1.0423240601640555
C 3.4698222422651432 6.10646140056169 4.806703615078581
C 6.003675326522877 2.0873030274325806 6.2443026109440485
C 7.350676638184852 7.783473786438427 4.833162173520767
C 3.222077577034377 4.816111113396644 8.218671567259562
C 4.672474942732107 8.191067557086795 5.677996203393199
C 7.479728416282563 5.086575572268863 7.920943168953174
