52
Energy = -411.55175172 eV
C 11.482840470037797 6.796495289925696 8.66620094037058
C 10.64234675914507 7.676439384043178 9.288611272423925
C 11.193768168892891 6.258496405263264 7.508098241623061
C 9.98644862001138 7.373519094837863 10.560375963232989
C 10.06729532910195 7.8517800432717495 4.441159651106014
C 11.16112453411004 6.374269861606986 6.12177645841306
C 8.942892815331808 5.154643852633296 10.350733696353092
C 10.427067189406658 7.536285171101634 5.739193547713153
C 8.704595321981099 5.1331075112996984 6.9417775238164126
C 9.8852990750192 8.525782620916171 8.354842165924095
C 8.524277192027021 10.784962219438077 8.169981689565775
C 9.181613820636189 7.29619019753968 3.7506315257969556
C 8.268324863508777 4.802904683114297 5.677959115217785
C 9.753272940284472 6.205239651919993 7.069626838845229
C 9.039498798466328 8.335522576796247 10.961564430552187
C 7.791731271702266 4.922486657987233 9.691573608850613
C 8.222835708249152 5.15942790079656 4.259807121924137
C 9.495624441544532 7.831214613443683 7.056063542802663
C 9.179937126560974 9.704379204050316 8.858684402480073
C 6.629229272974378 7.226218448913989 10.857018996465113
C 8.11928384124763 6.439630099272774 3.583719507530557
C 8.025979233604954 12.123714662859982 8.195873440176962
C 9.727650199829144 6.03962434315948 10.799726641657937
C 8.051810791054272 8.148398732265694 6.741699870099133
C 8.729649709175956 9.520280552527886 10.20385460400687
C 7.678022247730436 5.02522641873376 8.106662365469738
C 7.312837255005661 9.12897871981825 6.132624259676595
C 6.299679741476602 8.227848923245467 3.824391243841821
C 7.628008363640788 8.17461290829153 11.203131014613326
C 7.297043991006981 9.530281704273376 10.672304085654712
C 7.173849223167483 6.395530712151213 8.3868713087727
C 6.7589436699249035 6.095260937948003 9.894534910411029
C 6.906289527020386 10.430552259676736 6.244444169084545
C 6.777291467035271 6.950214018862623 3.8484782504631876
C 7.048995931191967 4.774403449750006 4.900300936429153
C 7.580272947189488 11.17724296795955 7.23724176385661
C 6.271423707069761 6.547039813166527 6.302271581521706
C 7.0940713013482055 7.2265503046495505 7.188574590403867
C 5.591952631347501 8.095242792596933 10.413164494709862
C 6.079067072998526 4.98814488486136 7.886184436453387
C 5.772185033818256 9.479498725696297 6.009432102023748
C 6.175488098412292 6.023257766425632 4.902451599032404
C 5.402912974215115 8.665638928907121 4.729358166889068
C 6.025168273869978 9.433055941095995 10.120543886394726
C 5.600284577858837 5.858117898257429 8.971537042900957
C 4.689399673466419 8.650268995749352 6.74254619073459
C 5.096078853258398 5.850217887108837 6.965851718953667
C 4.517490841415324 7.843680114139523 5.55227811495059
C 4.651837895640572 6.625827149669082 8.160626921998626
C 5.085462966438155 8.691120557419366 9.289569000097988
C 4.873219684466046 6.408867213383137 5.584368260543499
C 4.689789131900962 8.0794758571101 8.051089691747082
