52
Energy = -418.76974564 eV
C 4.287803031693392 5.606054516266526 8.694422190515407
C 6.132400279906676 3.405522335869845 4.3295316156922805
C 7.314503228321086 5.850013776399162 4.4330664628215235
C 7.712781018954509 8.285154666263725 8.953056149278376
C 8.5163457259147 3.2883327403810765 6.836571613672166
C 8.531623723928528 7.364930941949606 9.28786315777126
C 9.379610276627858 7.358485784963469 4.369913451126236
C 2.68471105299435 5.128615367480903 7.006196100480355
C 4.658472362908632 9.116850760390337 4.592917926536151
C 5.451998874108183 6.259265207815953 8.664148678639002
C 3.816602480549499 8.721449723458718 5.685860591973177
C 8.762110687436776 6.215309900355888 5.108922732363658
C 4.5232030929640334 4.223363190327632 8.876682743242121
C 2.834310534573205 7.702804032577976 5.854625203345291
C 5.325885626810871 8.283985893743022 3.654617560910131
C 4.925124215234832 3.1466848085773185 5.15939357308589
C 9.155023213196918 6.32815429316993 8.564475703043632
C 6.824555577546114 6.961375355974797 3.5577833778143497
C 3.2506478844052995 6.171050073373777 7.786475379091878
C 3.7855709743799766 3.921960431742252 5.081252740053163
C 3.306058963797798 7.452207094613555 7.236667197800872
C 2.793544143597521 5.944963165251569 4.098584549323026
C 6.458780233657397 8.451003167217788 8.380862574937606
C 2.998430102671352 4.239799307423308 6.206805373217102
C 7.923212172911698 4.06492672276316 8.894588900928136
C 5.06548973830746 5.461412678224964 3.5761375574489866
C 9.560753937885274 5.506991719813923 6.2928841513129505
C 9.356476180730732 4.403360012353651 7.133765786120433
C 6.258775943056617 7.021570126706347 7.978194816953378
C 6.38336866771018 5.951419839050356 5.715932729560348
C 6.306101955361118 4.70853822970479 3.9151292053030957
C 9.003512395385009 4.895270466236459 8.505723478699325
C 7.736011192166781 9.215791676382965 4.314415697545225
C 4.31212481492621 8.646292653689231 7.0462259091112065
C 3.78547253185161 4.988148308287651 4.026299155836999
C 5.432672273889013 6.797400078296455 3.314626238434678
C 6.9547526433554525 2.659268173639321 5.265275111339093
C 6.783846413184105 8.400961784819403 3.6061062075169104
C 8.96638664039556 8.535394671991273 4.374781012293356
C 8.266047711475213 2.7418000657650006 5.6205624034435715
C 9.466814978951565 6.670202807775548 7.179702266368758
C 8.330654580095317 6.9120211577106225 6.4199033822016025
C 5.593414162351905 10.035503218902527 5.147234697052575
C 5.845190573748519 2.547431768179467 6.1875761704782954
C 6.131654346253748 10.033256970365214 6.414922661946982
C 5.617052696199469 9.183356372840086 7.471335353895689
C 5.115067924231107 3.224769907833368 8.4513304122252
C 2.4174278782826732 6.846857478021004 4.878553845528936
C 6.989594809869382 10.02364550247187 5.2177526225529585
C 6.115532222385049 2.789954519772475 7.568692064278829
C 7.481687387957593 3.1688140383985868 7.9286289061016575
C 6.938428499811208 6.705925093325497 6.700645187695372
