53
Energy = -417.4369816 eV
C 7.704860381911652 7.103057506443359 3.020609783216629
C 7.184622036417314 4.661661651685402 3.760791859009207
C 7.548225888976704 5.888625514076797 3.171112810507293
C 5.831476446651005 4.559348921586093 4.247472741629656
C 5.2228627379422505 3.555800736706677 4.898085241692334
C 10.598848204037132 6.721876102603769 6.170681954537604
C 8.165319340880284 4.001698403009755 4.483752248350519
C 5.124648985654647 5.933463353631173 4.626709611739446
C 7.644657745329902 8.446281512011673 3.447270776200715
C 8.99782134421176 3.9443105181410627 5.409421699937122
C 7.023320829186586 7.54414863461287 5.853466684026393
C 3.5948933727212893 4.602272753157958 5.851818008108091
C 3.6365930495348886 5.608079158042623 4.935735066056768
C 10.699173684215408 5.4599943470593075 6.26849838780495
C 4.409783803284532 3.3554879727741196 5.952032815866277
C 3.8977392906082517 6.472660176816168 3.9528320966179944
C 7.162329393936697 4.388693174312582 8.823157348984665
C 7.113368079235446 4.842920464510956 7.508324687412235
C 9.555106683700664 4.696008945302413 6.427178536364676
C 7.500371200929557 9.53735690232426 2.6580459848546667
C 9.030555401408964 8.755460460353504 5.843188658797342
C 4.603948779726756 4.446564279671418 6.980350028299926
C 8.612627984202335 5.32865825462995 7.467039836830087
C 5.8833087730771645 5.3429271253837145 6.886658268744167
C 8.751267983992943 6.971532398053582 7.599688188472853
C 5.9349016574303555 6.539083346927972 5.773387349728506
C 6.23046808055936 4.898218121273302 9.837316219510956
C 9.677146075244291 7.640627651633472 6.516584605017341
C 8.47484531454217 4.979694096565233 8.95260109912995
C 7.6637609232804085 8.58306529802202 4.947151571879406
C 8.279137445828763 9.633567668814749 6.638466706546763
C 4.585855216269595 9.342809380668994 6.375764395941554
C 7.219727577646417 10.59851455795847 1.991951376514181
C 5.2926597372641435 6.680842568951709 7.194876727088962
C 3.415125205441957 6.120578044648325 8.303582022153918
C 7.003708984322746 5.964436879690113 10.47179523956229
C 7.404555417781156 7.686446511387846 7.307934399446302
C 8.775654811596379 7.272362375415221 9.109108306433173
C 3.8757683001488945 7.103303177439435 7.510986420946919
C 4.068387757733046 4.858246325285136 8.416565166730667
C 6.130641136051283 7.466992247130401 8.067277403412621
C 7.720196577783294 9.191901911953872 7.965678090648292
C 7.1407934157644135 9.804909855926985 5.761497531662012
C 8.365624214596801 6.0618178166893415 9.826452275569702
C 4.867239484541389 4.887411304349787 9.540956087698458
C 5.9144894130714425 9.918596232979386 6.543783686991952
C 4.1593002636612635 8.593790194506031 7.446461079296021
C 5.826943760907133 7.921603208972406 9.475332972784889
C 8.200618322608458 8.542857614749446 9.304590937202262
C 6.449102474378038 7.260563998892647 10.679665574210123
C 6.292473609673261 9.733832304431498 7.8944959320905435
C 5.280267766737913 8.816487842136135 8.447970540120822
C 7.0835680128438385 8.356134133825504 10.167373802917883
