53
Energy = -417.05576079 eV
C 11.393232362616798 11.086837943797233 7.903353571380666
C 11.39395039785099 11.70304632867444 15.819210845870249
C 14.236813512597658 9.91978397544495 10.114463723799798
C 14.439572277468786 10.201515221973802 13.447499217072574
C 12.293259015836059 11.875001589152049 8.704050424205802
C 12.623610718193666 12.058772596474114 15.424295818727654
C 10.199015809106726 11.550491247654 7.999790247029803
C 10.207840281170828 11.903518607847532 15.318243097937618
C 7.6248404821033695 9.68113643577918 10.153282225344176
C 7.454838626903587 9.331409121912467 13.111221529592298
C 13.000786730963066 9.948200239082686 10.829984186537496
C 14.6705900646188 11.240331281386837 9.739053320708923
C 14.740544940924567 11.556454549898664 13.899911822688955
C 13.613596017493917 12.121347729130168 9.182211558307243
C 13.961717159459038 12.346186154556692 14.852419809181736
C 11.376898921530747 12.983649986822186 9.270841404435924
C 12.47390417694219 12.978363967475525 14.277476026464626
C 9.923840196444933 12.662725322561839 8.827228613103603
C 9.268136117410457 12.229695659356906 14.485156721769817
C 7.718560157373542 10.955403468946102 10.058649750409257
C 8.10735296454356 10.518612301447844 12.651711111372272
C 14.611214569677355 9.178600055048584 11.328373843701188
C 15.357529778777945 9.834899056702916 12.327867489296132
C 8.035217473415559 8.504418725125594 10.6210947917927
C 8.306726047894307 8.855772618125318 11.955348629354903
C 13.23762499258159 8.99494848417389 11.872967050712212
C 13.125144847812855 9.759723035367285 13.105286528175307
C 15.625795499148772 11.759307456824812 10.697170654437093
C 15.56345076650174 12.10701169918881 12.822547789279243
C 13.524279721572077 13.454588075542524 9.807836477805365
C 14.082961989487186 13.843018640947742 14.536125686459851
C 12.309884417864177 14.140213446997732 9.505485761159095
C 12.812865576942517 14.377701330061198 14.334636372132302
C 11.838180176520524 15.193117818328703 10.242655271338979
C 12.049271757251832 15.19604932743092 13.525183653053663
C 9.280718491688223 12.748223401980825 10.097124768575235
C 8.674045448214365 12.52336284533488 13.365020898643346
C 8.191692796396719 12.057464818199428 10.759191709075614
C 8.139481249909752 11.935297606134572 12.253808779934621
C 15.971663156561391 11.038511630567822 11.928151015768004
C 9.309163778127282 9.775232171446204 12.407843272034608
C 15.171149254293221 12.854498900364339 11.589908241988343
C 13.95423731976708 13.415744061355085 11.243796536230276
C 11.39645566703478 14.75614077738954 12.41080212129873
C 11.20218404326935 15.586627373354032 11.2481544728201
C 11.948375757129813 10.730299506689056 12.829057263803763
C 12.790569328371225 12.688163192048226 11.791860743768382
C 11.395035326217458 13.269602754551052 12.007791362373702
C 10.90529821982833 11.237439525906241 11.136098244519777
C 10.619331489939134 12.656506476751451 10.768909146394456
C 12.351385127362562 11.1843035531927 11.35194603898771
C 10.620665966484781 10.363140458517263 12.195316535837728
C 12.061480095270857 12.33420167522247 13.061967464287441
