53
Energy = -420.81620988 eV
C 3.9714073387714284 7.793779115800515 5.2205768251817615
C 6.395942873604447 7.624474348768729 6.6872954838079535
C 6.279471137376678 4.418199925802429 8.571061530031203
C 5.277992636421576 8.75498660259683 7.206911384679728
C 5.087067480701183 4.346466468619121 5.6408961029401326
C 7.849877255067832 10.069664014681265 5.432471434299487
C 6.413482957969532 10.256659751187678 5.551320729190193
C 5.146245998636254 5.166183891383854 8.291693090927884
C 6.37290069581004 7.596876585508594 10.33261232502405
C 9.25115193998573 5.476458230277174 9.395754994365268
C 5.524813495756626 9.67121167210477 4.649760305880546
C 3.7269711011439783 5.991023415621019 6.534730328167093
C 7.973879025161211 7.412600662897005 6.418383007871856
C 8.266221268226474 9.037582435771288 10.006753705226311
C 7.133746579338998 4.396206910436106 9.730651094109215
C 6.924653525597045 8.946631921270964 10.155704483942943
C 8.948805272053939 6.29028819139615 3.8974895983510267
C 7.6220299978872745 4.245814185030867 6.058728415596076
C 8.791058582028137 4.335124076329545 5.24595250124034
C 5.259200850759017 8.722084658406201 8.705818926550286
C 4.952052264789366 5.24789277494339 6.821210810804624
C 5.92795452552828 10.125732708212224 6.9120147284284075
C 9.036901543249503 7.923326297742795 9.604224496965353
C 8.830250374112273 8.53585698679076 7.188642873977888
C 3.742447699695595 6.965363609199317 7.539732545367636
C 4.652850413910712 8.778447829014448 4.506464406961478
C 7.533976714340111 4.518693122028088 7.617439398188632
C 10.866515260606356 6.926461580082888 6.559465775248147
C 3.8194583146729206 6.349872839506526 5.1272908797408565
C 7.486407254938691 5.808390258796704 6.771594602731041
C 6.131579576247809 6.287025646254809 6.63070514912505
C 8.649480917624318 6.618692840093403 10.082837192061058
C 8.325185735555719 4.4453702400076045 8.976757558507586
C 9.652312448010742 7.9898409322786375 8.325501545517339
C 10.539359825145404 6.923719350581664 7.941181761470833
C 8.672580105733669 8.425044984024195 3.835233433939954
C 6.7958751540024585 5.212799025379275 10.8076932616618
C 10.376337488507776 5.746239654282516 8.640923013027082
C 7.286462195202793 6.500397939090182 10.636893483561918
C 6.434249857720256 4.0986844979089465 5.1779010675051635
C 5.25719841647571 7.478305411227899 9.435588217992429
C 4.055422422912836 8.088988735162584 6.677121265914624
C 8.572902868269436 9.680906231740797 6.550387285942316
C 6.442143653657134 10.553656425712248 8.093361104566998
C 4.557120656792066 6.458001705254788 8.701717465153097
C 6.11377073271173 9.697598339650552 9.19905216584327
C 8.898673185411946 7.327157600723255 5.011994671216265
C 9.112358697480493 4.943423103316244 4.205616663629889
C 10.212958741701817 7.3579295718642825 5.602676347337522
C 8.34971504036059 9.639803324184992 4.169539636111957
C 8.886076412755864 7.305285205010231 2.9712479511015344
C 5.999864119363653 5.196561436890873 4.360165112934507
C 4.582022445176065 5.2615978041146665 4.5526429350411295
