54
Energy = -436.06004841 eV
C 4.670755945623967 9.090170615821746 5.0571063906236144
C 10.057509748300212 7.1161953376503355 5.299363859342532
C 8.745138531158114 6.802622587297143 4.797232925832936
C 6.28450108543679 10.818770655577051 5.772031612456871
C 6.14673513905569 9.697185754629817 4.931133164164204
C 8.645241527014212 5.334839923396049 4.786097641635813
C 7.364408496311354 7.273007486337249 5.063788032297307
C 10.604259413763163 7.772366722448469 6.4995687756441765
C 7.395019800027211 4.955980612069449 5.318226573187607
C 7.611353539825255 11.00750736420193 6.375754177371044
C 4.4427075118875115 9.441724623743045 6.541654153008095
C 4.461522241440988 7.561321342041381 5.544544621231369
C 10.66206027538813 5.789149658717312 5.749217902076052
C 9.718792641591007 4.787034579383819 5.601240286714944
C 6.500896605556163 6.105194981309069 5.188126933090453
C 5.160933905931539 6.247836775438645 5.71041300030552
C 5.286277556039905 10.628168726743283 6.920249403804594
C 7.367522735621844 8.923718122599476 7.379221546392502
C 4.886519754568142 5.898072156949878 7.066846972297356
C 8.929719697489116 10.84385783454132 6.244740029525333
C 6.866915078920849 8.550335097201145 5.674248058944066
C 7.672998690915441 4.222006187342682 6.556646647769347
C 9.12516836368661 4.155364760578345 6.73477734036592
C 9.999261652017351 8.757121868570833 7.406825876583754
C 3.898302041559975 7.994641599867666 6.892209509989302
C 10.829777889452025 6.402655451688483 7.015285236556924
C 5.473451711861376 8.40370167131736 6.169598112791203
C 9.545481319687607 10.204331895695754 7.391953797764936
C 7.075609797084016 4.4294577581376915 7.83233679403115
C 6.880118983465543 6.750391994228985 7.802658180108747
C 9.393593349076882 4.646099841762678 8.061723792675796
C 4.192081864765185 6.947131443047788 7.814647569018296
C 5.977681642099524 5.419718770240542 8.02133941420037
C 8.132375502876075 6.781464342058037 7.211916152835419
C 10.181429030188985 5.87429210335458 8.200882641558838
C 8.58117687000177 8.100416305881751 7.459409268521652
C 7.346755262807727 10.477223226180238 7.858203025064212
C 8.143567487204242 4.575806282601955 8.824786770432478
C 9.71569159721946 8.252366478593252 8.830547602188105
C 5.95164983262103 10.776888637683484 8.110481193177012
C 9.838219070895473 6.8310277944830595 9.249366556088185
C 6.468754394560963 8.066237009590894 8.190805984090266
C 8.69284569999586 10.334135542654055 8.53437144437696
C 5.576260518332281 5.8790525716784625 9.401840740670986
C 8.865908647043169 9.262395932866093 9.492091055730858
C 5.632623341439002 8.236940707351982 9.364267734270214
C 4.74371312132449 7.025321794412754 9.179173052524376
C 7.947527568687529 5.375265933244252 9.968719975809188
C 6.6387343290682 5.886211224166499 10.372645316913282
C 8.936746837485105 6.4394889623043 10.266741218190422
C 6.492373272182531 8.375982862638365 10.491299274266412
C 7.988348270319135 8.748349437620067 10.475095520520567
C 8.227619003272908 7.438618637811947 10.989902899761123
C 6.830557838153872 7.090026044550043 11.111840273509333
