54
Energy = -443.73304093 eV
C 7.640272990982047 7.547236584235895 4.423608846378976
C 8.965719566931355 8.057007345250032 4.818455072068674
C 7.38864283339389 6.147650943920114 4.7211677442832976
C 8.325768646300899 5.303066502413736 5.510395012889451
C 6.7679516963522985 8.748724380958656 4.5440633239077695
C 6.0737505118318476 5.849922087190452 5.458546868282659
C 9.492666377932304 5.891196856812232 6.034447768168298
C 5.488976524327095 9.015308879631016 5.19350808586111
C 8.96786659015365 9.468077919282548 5.009417053474781
C 9.317154246292834 7.355541101665567 6.079105180688942
C 7.605071307911553 9.899143869135601 4.86484952399988
C 4.843618522037568 8.17969374528564 6.158974283779767
C 5.561841745111369 10.323275878846937 5.807599492183401
C 6.898483812405795 10.80104575106959 5.7648675340441065
C 7.746621712049634 4.633390998139631 6.7489747130958095
C 5.155208634146654 6.803805003158219 6.250295672236209
C 6.38088266881326 5.065996959223079 6.724279935606754
C 9.79136325686427 9.929696992510294 6.049424541079732
C 4.724354277189575 8.900618087965684 7.44460872258221
C 7.813642683381708 7.406895757631276 6.92538626239427
C 5.094312764549688 10.259555727852492 7.169566323281953
C 9.795751159775245 5.5267081590990115 7.382528072486741
C 10.188234782015304 7.815825647845302 7.182176380289181
C 6.662947689781975 6.653752624514064 6.574526507424087
C 6.063855690177811 10.86823415792735 7.999638317999639
C 10.52328243076224 6.682255576028454 7.999792091164744
C 7.2396298898509235 11.193215783593045 7.144286487011799
C 10.921713629769851 7.19095688454631 9.318955068271455
C 9.861425635272886 8.941207103423782 8.113880371691126
C 7.5283279950069355 7.825961424674239 8.178295633571624
C 8.60048583053956 4.809110324392743 7.878946810564891
C 5.177696141999319 8.345241003838613 8.664433801933313
C 8.387465329454908 10.880301035921399 7.889779006261538
C 9.553239930590594 10.232064300411384 7.342098799663176
C 6.455300850592828 10.274052187732446 9.213638822406109
C 5.645439595120615 6.150318099002408 7.546120952614677
C 9.621697381697105 4.656695044615497 9.975687187116133
C 8.422115511029775 8.779056088168073 8.8209915092199
C 6.037841007842504 7.103591842339531 8.676718441810786
C 10.609653845212673 6.741030575198781 10.684836093116239
C 5.822413575976213 9.08452537352461 9.717065508818388
C 7.942496264546003 10.26052330004971 9.217143125749908
C 8.406304675392828 4.894336780336411 9.359142613031265
C 10.686231356137714 8.620191086774424 9.311849102895875
C 10.006594364819737 7.9005500304038865 11.339233777797219
C 9.800482574884526 5.609061673176906 10.957513706296387
C 6.539523056163945 6.809525360259223 10.054149304520587
C 10.053245481687597 9.04087197851791 10.527028099222164
C 8.610081608447544 9.405023539975769 10.267059250691998
C 7.597909260848482 5.874404234853008 10.28320293448886
C 6.541036537597433 8.15354093440018 10.597235652069408
C 7.762839102429216 8.555911392943042 11.20849936631312
C 8.46809452396405 6.175017160309274 11.386239021954134
C 8.633282224329543 7.570898221703215 11.696576523922422
