54
Energy = -421.37843628 eV
C 15.99035593895797 12.043733389156412 11.9252803590772
C 7.571632720150527 12.323012268789459 11.794150557248727
C 13.729697513889661 13.777195393630073 9.013963729115003
C 10.324766091713883 14.33374214031294 10.622699787771063
C 15.705376629166558 12.080709562571826 10.697731205568811
C 8.265138178809865 11.69284233894063 10.730066915036
C 15.445153670746938 11.632470170818019 13.131123321446957
C 8.424247331223624 11.830157989342315 12.801575800222258
C 12.919889098288248 13.925591323801628 13.36954612568494
C 9.945133189027588 13.56362004702377 14.434942422017516
C 13.153812832971093 13.739345560837227 11.884877987863462
C 14.053088377097518 12.422182596382788 8.810198375789064
C 9.260099416540301 12.153545449917852 8.433573857973034
C 14.976869675305686 11.619649413675388 9.593564919660903
C 8.506592450757065 11.90891736873142 9.383996329597206
C 14.256638822158525 10.795932669129114 12.945676180214356
C 9.130645926214925 10.945155065476516 11.723502812775711
C 15.26790154530676 12.05266287675755 14.45377899802943
C 8.864368809811443 11.32044636485176 14.036628348352234
C 14.358392909073439 12.02882229057958 15.349985405368955
C 9.607777424567757 12.210144998559326 14.924432787360594
C 12.317474164192445 14.111924043372209 9.10934807228919
C 11.65017899124736 14.731219783862905 10.24100966590896
C 11.813640259616246 14.762373190432466 13.067950699679113
C 10.651216013754578 14.455743257949614 13.883181157974228
C 12.29758702442366 14.827188179371495 11.536592902582605
C 10.295862410478511 13.493883189825246 11.595903291695068
C 12.61317082763344 11.839684516029024 8.740173293886288
C 10.612372191663342 12.105331677825014 8.034851145688489
C 14.603676541545786 10.275949011951834 9.9505371313871
C 9.924481048519356 9.14673540867154 9.9878734555012
C 14.24117097933793 9.353353352058898 10.700086706014895
C 9.351845476704087 8.9187985958485 11.100267260377139
C 13.6989496420112 8.726422006171102 11.87210886222185
C 8.927640994649641 9.582866074441487 12.30079467280694
C 13.918641786500471 9.40185375123447 13.160553277134513
C 8.85693738647502 9.852553645934051 13.680625495630098
C 12.993206775778193 12.264683370142754 15.492466786528604
C 10.609727331156133 11.816566795141961 15.837564651036228
C 11.684232651154788 12.962113312499826 8.440469696261488
C 12.57067515846718 12.78162212509328 14.220728154951718
C 11.370104687299428 10.876539315649817 8.281134585626218
C 10.86136891106607 10.068344089392456 9.425166627042945
C 12.344667950808736 8.132838875649695 12.029953514222823
C 12.435234419638103 9.259899830282265 12.918563840434256
C 11.814477976373649 11.885608520542178 16.186353827924734
C 10.811746135389033 12.445193910674774 12.27170123111018
C 11.352788755466111 10.898885064268564 10.451803700515867
C 11.787474909701935 10.582075015595917 12.738008820225225
C 13.021809486242265 12.43359978768809 11.366983164661598
C 13.071455507277292 11.417003920670469 12.414404806042988
C 12.352346387584696 11.810349311486618 10.215026707575477
C 11.68430668270429 12.016972816504046 13.406927950396367
C 10.684329938037932 11.08101005408105 11.725463502078034
