54
Energy = -434.07821511 eV
C 3.7760671119755393 4.659111662669425 1.9489964118018022
C 6.062541244696367 5.043523861294012 1.6602239025202088
C 5.853304278637782 3.60654770728934 1.698302749572945
C 4.390694686671885 6.920843323766057 2.125129745162497
C 4.129001651893438 2.4801988462114353 3.0246494626454625
C 4.457553049712162 3.366484270114584 1.994524153977098
C 7.243020409109407 6.646321453346482 3.3841322776783196
C 2.8557130864885205 5.295905406150903 2.834759998103087
C 3.2384086893201407 6.702693100624417 2.9837047765689464
C 4.754475673720757 5.64970036037515 1.5905603402135646
C 5.324441792686466 7.857363076674404 2.429213532603415
C 6.826505258401281 3.0058974446060494 2.5990656107291112
C 7.538048616058267 4.162537072518737 3.2651743547313226
C 5.88253567007819 1.2455586042901488 4.492512626609966
C 7.089853582645477 5.456111654828412 2.6168150352322708
C 6.451963579715171 7.865260992092432 3.187893887099419
C 4.517697297795872 1.291646737901633 3.8500405714279964
C 0.6775738665794673 5.717222431922579 4.624232931064139
C 3.654473852569765 7.885092917335555 5.309409343785402
C 0.9310847208707911 4.352599850621357 4.632821377210885
C 6.4067984606235555 3.524298790500835 4.119003858242744
C 2.151046001492101 4.896864580074389 4.044988753915513
C 2.9546755977649686 7.164926081435733 4.292618026161743
C 4.002634902638662 2.9850263654895905 4.380043207144071
C 7.8238130902295975 6.440922820134335 4.739530025361645
C 8.681609137989964 4.136794034822156 4.223959967214956
C 5.15190231615351 3.7565210417140324 4.866359843853178
C 6.658813555640364 2.169292640585246 3.790071105097476
C 4.30216956885051 1.5560750563846941 6.279915543850964
C 2.157423327442356 6.058954223919788 4.983595222794407
C 6.24212291271819 7.919584233046492 5.705554733334892
C 8.24966116844445 4.242085410250467 5.66519533549418
C 3.7013717133858393 1.64395637702587 4.995143891757597
C 0.6671215703219354 3.273827672920251 5.484012204616674
C 8.666665076569592 5.3627152357251076 4.927183425644067
C 2.7302364312328202 5.957810837001585 6.406575526228616
C 5.989012359187106 3.171628866175805 6.4431650764878725
C 6.126712608531918 8.51096345103177 4.453774008245537
C 7.000696370470206 6.71845819341058 5.922177652715368
C 2.682965566547489 3.4307947190357546 7.077986198036851
C 4.967442185079859 8.396479359980665 5.2619519779559925
C 7.097489524582742 4.234288290925303 6.429093187791452
C 5.616135260910689 5.699454178543129 7.756754539295526
C 3.3680381914324484 7.229338345717948 6.58766805406494
C 5.6823954609047265 1.735360174675797 5.893249209199982
C 3.1080248271819206 4.814260702390223 7.193740556334293
C 3.8599529989370653 2.566441708101555 7.194233138761457
C 6.672541309670594 5.628077942758722 6.780083475322601
C 4.706085830891744 6.709508285411924 8.533602245196409
C 1.5417099453044576 3.0935264143190153 6.362508621567651
C 4.041232572026692 7.483254087473945 7.769956199963969
C 4.942627315826099 3.383109987444209 7.465501635704769
C 4.518196408461722 4.7152318008520515 7.85072146164361
C 5.165929171370346 5.4697581745294 9.158129860703946
