54
Energy = -428.70157506 eV
C 4.520372499778428 6.309923093237203 2.069004592801208
C 4.937521853090879 3.6531291666364125 2.3326254812834057
C 8.30355255685518 7.680014337102559 1.4206375333832932
C 4.907055275322929 7.713927077405258 2.410101079410044
C 2.292486527756643 4.110612670057051 2.7204815779748097
C 4.3069406141862885 2.6279433185911274 3.0283349246794766
C 3.124028491462997 6.359031685207741 2.5271801180459077
C 6.00023475835361 8.455852216918323 2.8028121792168506
C 4.013013149630461 7.149356433166964 3.401458558830146
C 4.95809765915457 4.9520261432003005 2.7137422277337033
C 5.029388299778324 1.7397407089538366 3.8911816535752273
C 7.900830222165822 3.6637212476325005 4.2238018840394185
C 5.822081129668847 8.701057780779403 4.283980292121356
C 8.101655780270644 6.991560748402636 2.656908809829722
C 3.0442157325073462 3.643548046486556 4.806437257998214
C 2.227986719038063 5.3656717428301 2.529889173051541
C 2.963980859782618 3.1625951703368105 3.441990428003541
C 7.248447447354405 8.022553280101798 2.2686543768297764
C 4.923842523841343 6.537817962330748 4.5624334790467795
C 1.237445154243417 6.449809528031114 5.891091271574248
C 5.158184156965738 1.2389026010008501 5.223827151438333
C 4.88911383699164 5.133104212205114 4.154599651130811
C 7.603245478744522 6.941370390022474 4.986824645590922
C 4.812593665355406 9.281741863285728 4.999248277864836
C 7.270315156660997 2.692990808189428 4.974890268852958
C 4.28178820840171 4.299854514270628 5.124471811196256
C 8.146452540994083 6.187822534076772 3.8016576916983817
C 6.282059695132676 1.7916421074923514 4.558196874961629
C 5.077663859179526 7.0919514819725675 5.995046684378757
C 8.266737842513896 4.820848495701067 3.9073537641169946
C 1.2631679168148855 5.221136312233793 5.6839358417972035
C 2.9156588477816268 8.301186006337659 6.287998667177889
C 4.746529705685051 4.443763250133341 6.532719614377306
C 4.758192572967523 1.15197867444238 6.542296830008567
C 2.481387483621062 3.6920742525448556 7.033691006321044
C 6.170153523496228 7.3858629889849965 4.951072851057892
C 6.230601001358906 4.08715268825429 6.800653264040553
C 8.22662763173556 7.131872347877652 6.160554135849842
C 2.018157564628414 4.032747659902991 5.804145070752704
C 8.33159704351772 3.393906571404739 7.22233587258714
C 7.245225439937681 3.121764682445909 6.411689885026989
C 5.201929531322348 5.984216399639969 7.121276638835119
C 6.574798428825554 5.2985025781569615 7.375813136059639
C 1.9022694482163112 7.57920224831275 6.1741775479263445
C 4.659065840271904 1.624005168398143 7.700991388790751
C 3.751773774431672 3.650661258464576 7.374274971259578
C 4.380804157792321 2.7969196031155126 8.43025634241067
C 4.264375096551722 8.406910280055694 5.9723951020822135
C 8.445093813837508 6.887201380958188 7.387000346034021
C 4.60451091313753 3.6475286735381762 9.473658724113271
C 8.594767541038992 4.420477792303875 7.905820740615577
C 7.913882986057608 5.628109128141188 7.810068269727548
C 4.731777820016704 6.0162871162358185 8.537324074226794
C 4.592478463254938 4.982569813973676 9.25314419974477
