54
Energy = -428.48137098 eV
C 7.5334877138715965 4.55848509956558 9.432024959732603
C 8.599601961252576 11.121540796118035 10.107555713526933
C 5.563259146477688 8.66155417269168 6.359096263972845
C 4.026112512273204 8.819593228236366 8.10441926688029
C 8.22315884617398 5.134091001127862 7.09677856862813
C 4.223120097741765 9.018722598568118 6.891995873956457
C 10.484482159453261 6.174730554012093 6.679409657712073
C 7.8249767544160616 11.12802057342046 7.7462550968229955
C 10.607995456156383 10.978359131091167 5.947891579259719
C 6.238596891491526 10.71029718414662 9.516877383466875
C 10.987708283660268 7.757560679858803 4.796102662231276
C 8.661732008346005 8.327707142740662 5.013399868952698
C 8.834074726853743 9.114664573397599 7.535600553036724
C 8.714469328703371 7.445674213519726 10.942393901068614
C 6.562630539635293 7.771107325482315 11.987445813683664
C 5.72554566534254 7.507358344882881 11.111604346832152
C 9.997459899354121 8.831996294869278 8.289962351238065
C 7.823068623367735 8.164673398214793 7.89158203494233
C 9.919474662194428 10.856383799127002 9.556815183446195
C 8.343719764800293 10.541815912753782 11.344836429267126
C 6.291161124397774 9.123766895700577 5.121437394742325
C 10.068234544937917 7.934994915812814 10.289359471319365
C 8.462808545514267 3.5028442435662024 9.340626962025295
C 6.959028448689816 6.575273135253797 5.76867833963356
C 5.3424542727820725 9.861475091664309 9.662913974841322
C 8.425782224696713 7.193093232655303 8.733031591481849
C 11.895985488808266 6.659586197579672 10.074893504805031
C 6.928092881198447 5.6064380900208945 6.814175550447874
C 6.7817226932663575 8.919282684952309 7.304000807090415
C 7.966078212847014 6.680696529910716 9.98150182366543
C 10.355794352462272 10.110132364667429 5.094204757929798
C 10.225106168784986 9.422730004913129 9.536561339095774
C 8.289839340368037 6.93102567478857 5.445521502395951
C 11.137104841214818 6.9105897310466124 5.69487910047122
C 4.583408354453685 8.71010286684481 9.363391938850336
C 5.8179824848060635 6.263323456374799 7.53975787459822
C 5.171267578093823 7.453037120991941 9.82741188247219
C 7.825389074577123 9.992114742988736 6.838365900397494
C 11.350411160882304 7.442550980699746 10.91874791935545
C 5.733608241858821 6.384483878436842 8.978205314602388
C 10.679578457203023 11.5389016699094 7.166319186167312
C 9.858764433308885 7.423468007047744 8.775248971257525
C 10.296855804661147 11.459956759858175 8.356777802676161
C 8.325198114880042 4.316972027250138 8.228275806580113
C 11.925752200180922 6.068569577675934 8.87932152981982
C 10.843644369367814 6.333879246285281 8.115578991140163
C 7.614540405935001 9.344795339325056 5.355347700502713
C 8.237490919547657 9.500190879035364 12.010862644632166
C 7.511897326474463 11.195552062592416 9.112796126321781
C 5.772573844565583 7.189121050665181 6.384345660784053
C 9.992551449676162 8.777881083270524 4.806997623343598
C 6.8437168178018295 5.7274545851639544 9.72356741576889
C 9.133469175288202 5.940717608661264 6.282242542347343
C 7.932402324953857 8.139591017613188 11.927476878555185
