55
Energy = -437.20117838 eV
C 6.239249272194764 7.5642798179221735 5.333260875961037
C 8.744080736027131 8.959124567798012 5.896297282991958
C 6.264558305864859 9.003608923440709 5.785352244300526
C 7.420285129945729 6.745261266395416 5.516111342648003
C 8.776456193615278 7.37981918201575 5.749025683364682
C 5.119025752676312 6.952427549922124 6.060602803042461
C 10.320926037960199 6.686347683529076 6.288889131313007
C 7.492246844369747 9.784726964805053 5.553216092728227
C 9.89905793715358 9.96153720926674 6.058836540171335
C 7.104920038271049 5.8383410748032585 6.630070821814406
C 9.1247275343075 11.081913513597232 6.637797330936791
C 10.914536822045516 9.568427536438609 6.94142115647104
C 5.763687908868156 6.0866790397776755 7.08843254562466
C 7.7555529794461 11.040311366512608 6.157958127298659
C 6.301746113186165 8.508120976050753 7.29283222520963
C 10.991954073652776 8.068886151367346 7.2700701794788865
C 5.056857444958243 9.293256715003706 6.823872395720079
C 9.979684165693836 5.445108726904447 7.202038671110556
C 9.051691199572211 6.928779162472804 7.128488477527989
C 4.476289196694794 7.906972701615109 6.9158513102204875
C 10.711059099997428 10.39166580444529 8.157458318928681
C 9.603238712089736 8.005018426530237 7.953946480379365
C 8.343479321383706 5.675499477944791 7.53058170535753
C 6.693651270469991 11.53328157507152 6.912978975099836
C 5.444613842476267 7.314829281544217 7.977116268170873
C 7.412670302542715 8.855045380470802 8.063744670999654
C 9.509837910045304 11.197076407930597 8.019555710998336
C 8.57263991574876 8.88329821053047 7.424106549222933
C 11.774242653481235 7.647553121009379 8.501500038149624
C 8.133201024080392 7.121108007149152 9.58310885145536
C 6.275189249591778 11.196264840965172 8.146939130843865
C 5.657311665322431 7.910424977665404 9.421782626021754
C 7.197664160362277 8.21502031047008 9.341669549349787
C 5.208445893873596 10.15045246560304 8.1564921859755
C 5.358733383620419 9.460757156589224 9.383641945341076
C 11.62390840163741 6.3052145269132795 8.886214776626938
C 10.725979223886206 5.220289866758323 8.37296690672287
C 8.671522169262419 11.019286208929467 9.265094546262127
C 9.471606224079402 7.6165100437844995 9.306551869642579
C 8.09938585255888 5.751696781649041 9.015528402042296
C 10.72287729056166 9.782162311184047 9.444710780753656
C 11.331608363392911 8.511065833810868 9.64527471191675
C 9.44118014577101 10.157700900951236 10.136649137472888
C 7.19037257464236 10.990664054313859 9.33012408016534
C 5.736621571655516 7.169500960404517 10.755611776560844
C 10.180068493298648 5.101953505155547 9.821880943235229
C 8.806950605000901 5.341157924879414 10.168061493819852
C 6.493318611702524 10.053418730709318 10.154911844196848
C 7.335505937439533 8.973899809589568 10.764868356715017
C 11.07302300478298 6.152864887311414 10.223187941390046
C 10.504112035405216 7.534121203503961 10.449548471036797
C 6.885262504425501 7.497917070079611 11.376811352061557
C 9.376307114469315 7.913999249482572 11.362061134166808
C 8.794726858081267 9.166717330138939 10.978700004184574
C 8.285369794043534 6.8218520945795715 11.079412094486438
