55
Energy = -439.92010834 eV
C 3.1868708371760417 6.349293140195846 6.8326126539644125
C 6.919524569801066 9.228784723807633 6.67585924029101
C 10.715094952029911 9.525129682734294 5.878868588754663
C 5.376700982235797 8.07713974224477 10.103781690591827
C 4.618695696727046 9.41348537129686 5.74882561923044
C 3.08456033473221 8.563232304984005 7.74594258978225
C 10.455294643473367 6.64002477942078 3.4810904492225716
C 6.890007896646681 5.914615554551283 7.236346167070983
C 5.8207956748093945 6.81633937893666 9.521426326431685
C 10.083809585032492 5.277487914530929 3.647559632706646
C 4.903725812507059 4.027025673965705 4.580321115382212
C 4.631640019076004 5.9425394377007725 9.505027573592935
C 3.5796091990349406 7.279984788209151 5.814601859026886
C 9.504051034041614 3.9608204587586715 5.731370049350281
C 6.048534370800189 4.014358710173036 9.16803589939363
C 5.659399017628989 5.161314862021332 4.9914671770117005
C 7.794432144725819 7.89259796091629 8.554476400801002
C 2.9326292608921793 7.144370463538079 8.041594689536934
C 4.626450709833318 4.07883075273324 6.731865665383864
C 3.482956537069042 5.000018187605306 7.068340763829622
C 7.122956980789755 3.8935093597001202 8.562997238797603
C 10.600471460733374 7.597494961470191 4.248814599451147
C 3.9489163776948604 4.172319278930689 8.049572986527467
C 4.848593529442241 8.771445819385555 4.548322067563269
C 4.535892010477046 7.379200371936825 4.6906664642210245
C 6.732754956070825 6.85089823642793 8.477902926742981
C 7.714873748986283 6.697766930687232 6.109642038695677
C 10.001979026918487 2.9816397730287916 3.7631289505256516
C 8.930951703234618 4.729098778976045 6.853946615583146
C 4.756532940146447 4.595878521647789 9.163208317173993
C 7.823566117721122 4.698580757396435 7.643669726680003
C 5.797567776754269 5.073950206649669 6.406295246931182
C 3.5699991106124505 6.91083908496984 9.266275863619658
C 10.126955333218461 7.528390221692113 7.922616235685051
C 9.153626510761317 6.080865203742926 6.098952623744259
C 9.627862565480958 5.157495979282597 4.986575272436691
C 10.586608407935842 8.129660941090108 5.552573391289592
C 9.93752231176689 9.997506609800448 6.746216022135572
C 6.86335137904934 7.159348735814187 4.980570966294127
C 9.95973226511056 8.731826114015087 8.622204932284335
C 9.171640190751807 9.672386113895156 7.863498720671312
C 7.829211968172405 9.146455761519794 7.863615038525554
C 5.7032747597669 6.530168091128302 4.540643189695845
C 9.703815040419041 2.767865108923353 5.019570436336717
C 4.432397466070966 3.2807572712130346 5.473568733470266
C 9.139439650615136 7.598964653089684 8.996000191974678
C 5.177886023447983 10.628909352110883 7.704167573532779
C 4.043115855144754 8.227179421923529 9.798029305447464
C 3.6274287840599277 9.279315877298869 8.886569998857597
C 4.316654007157586 10.441589814354119 8.59784675473092
C 10.224487516645219 4.022694059375817 3.0265197814205163
C 7.248910854644756 8.138797769541322 5.865271109843765
C 3.571110416242072 8.618926415007227 6.42327392455447
C 10.130930883255452 7.178974748372852 6.5587962954475465
C 5.689660423042531 9.98736739789098 6.594523938366516
