55
Energy = -438.73474901 eV
C 13.844032157143799 13.479874943943624 12.35353313768676
C 9.08129646861328 10.133021123798974 12.274353523515579
C 12.43477474787829 9.5103008861121 14.665864464213938
C 10.113525353788152 14.999515445335993 13.157857175467935
C 15.031297678637719 13.154554923907735 11.391932375227594
C 13.984381156850331 12.164173599840097 13.152282624252141
C 12.985254482954195 15.63471537820948 14.74564087781721
C 12.98622350600508 14.185119991592485 9.214178835472842
C 14.040029252183299 15.280756859044764 14.126340971051627
C 13.411204130954879 11.043679513118303 12.619293743114584
C 13.186110296722555 9.763814873163676 9.593174986521603
C 10.69375197002999 13.392773374196057 14.746355657223344
C 10.159018172554996 9.528351389303344 13.044171139216301
C 15.170584180788172 13.119475037093194 10.020987531431134
C 10.73113615773453 12.322737269592137 13.779339385982643
C 13.505508616029902 9.18100819436894 13.870847206192355
C 15.512375093228089 10.013298615624064 10.736676347580334
C 16.116765109935322 11.234721706370664 12.810591893959453
C 11.56077888632028 12.437668936441789 12.649113309306655
C 8.380024221035937 13.293026331911515 11.973598772100935
C 14.196895514863366 9.781915290038839 12.897083578420549
C 10.704869828280069 14.735238583060916 14.449331672419945
C 8.335192106925028 11.275250073923845 12.028539696279811
C 11.824433592091404 15.198450070612257 15.307383409670114
C 11.02330223107381 9.80464207900368 14.174476464575257
C 9.06403339194626 12.272065459159451 9.60472502624572
C 15.87496683587809 13.470350671612032 13.603885013887652
C 16.084656288762954 12.678897522710413 12.370591868777492
C 16.2360664365354 10.972624185364902 9.979786430726179
C 8.612332928343049 12.262570198833464 10.941894294402829
C 14.668180606085555 14.363697367061317 13.394460718790853
C 11.723078306871997 14.46505865800136 9.731579581790783
C 9.56490611162095 13.490877544898684 9.094358994657338
C 15.506347783747572 10.113237995426442 12.188770245960301
C 10.42358789318448 14.886863229738196 11.824265530957733
C 9.711920925068627 11.138850545805267 9.028033941598764
C 12.380607422082536 13.597190335188149 12.067480889462454
C 11.845697294791801 10.079140302538507 9.748465410675024
C 10.489298430367597 14.317060608501022 9.061507275345193
C 11.621255438512074 14.436826722165339 11.163431715636396
C 10.300952187822913 9.714206617751366 11.69427804527789
C 10.733226151746985 10.433097790544288 8.944059753511658
C 12.159934531316283 11.155130390121464 12.044273388888412
C 14.117087680824616 13.710565596898874 9.311884592780745
C 16.14414056538515 12.140430963525063 9.571690570509894
C 11.475483320116313 10.274047689182884 11.132380278577461
C 14.323409361273177 9.666446812458723 10.100741615059002
C 15.325118379182674 12.103205323281363 13.68070490438329
C 7.852565484046836 12.312230876644666 12.930939867112162
C 10.894879818219446 11.110879477324708 14.593795536528297
C 12.084165137883605 14.160679353771696 16.322870269202845
C 9.154826079132228 14.414164035973082 12.240535786630426
C 11.561319999006598 12.976285260089748 15.886653242749551
C 12.710136814165182 10.528312423565838 15.705057162683728
C 11.795540506624178 11.539408575420762 15.706436291656262
