55
Energy = -436.41557995 eV
C 8.62472831100672 10.29143594601819 12.850851653683836
C 9.721296222610555 8.585778707853954 9.958825321217004
C 7.124920800654923 9.391763089623424 10.862150180058364
C 9.156202402200927 9.019296088502232 12.729847618509664
C 6.861037548332251 9.74274949084691 9.68136003703118
C 10.372611532032998 8.365748048311472 12.390007658399508
C 9.968862228280695 11.298843772146158 8.505106564662361
C 10.333241517720287 7.801077588366852 11.016792483050244
C 12.107700709718454 9.274480625773283 14.18713573110863
C 8.376740667304713 9.584727701014875 11.591092231644032
C 8.765497389308388 11.669315697669637 13.004827654916099
C 9.410631615777971 9.937365017572546 10.487031771778065
C 10.604765735072014 8.630932349512996 8.817561339668183
C 8.456584466976082 12.572493943382408 11.868591178413563
C 8.84628822447978 11.020181870773632 9.609552624357677
C 11.711254800298697 8.655500594112521 12.921129624331106
C 7.572756363172766 10.539436273444661 8.797573651885449
C 8.701290468577795 12.276321994490088 10.416602026036085
C 10.99689036013279 10.176308316881842 8.773319671580486
C 11.313630364423059 8.194337696787208 10.029157508715603
C 9.08324622206801 11.337388458462524 7.307024599704766
C 14.001840182410197 8.6992709071238 12.298828132971769
C 13.527830757868657 9.673740178582799 14.38502789638805
C 11.13652270402216 10.075593231110075 14.790110153210954
C 11.015532833210267 10.432704916675135 10.389021524635341
C 12.190687373199705 9.29864714603388 10.567743016916381
C 9.800558875479705 12.08301426662188 13.945366177749724
C 7.915829097585743 10.838772242317962 7.470201522249829
C 10.415885993473353 11.071252621411071 14.675655449745589
C 11.325016693948967 11.891676615427466 10.490712776432106
C 8.798954006441067 13.921881670787464 12.008726158755271
C 9.531225016126664 13.283471316173683 9.87451194545327
C 13.183441742137612 9.846353226058307 9.571885487868949
C 12.695049429550245 8.812895048188686 11.880037127808112
C 10.663916371836724 12.604829485584867 9.12479713359495
C 9.629712764010305 14.334568374212607 10.812211449955997
C 10.56796429695108 13.250927105536698 13.593889896927147
C 12.458257392311443 10.35335245938103 8.44468165700136
C 14.520755541942066 10.170847696244422 9.722835258721158
C 13.816659140417316 11.019908874747061 14.630400832700479
C 14.348450455929884 9.038088863161521 13.462090086072507
C 14.383925010597872 11.260587027352756 7.729471910308536
C 11.549352676748585 13.365679806721452 8.29633843454347
C 13.88792819345306 12.223962055868624 14.32360132094585
C 11.915881325703024 12.96784399268121 12.970097162909097
C 9.959707828266136 14.236206073085958 12.835305007598684
C 11.897542537340941 12.63080627731481 11.450095643181342
C 13.14234003016716 11.077878854213905 7.439719281325512
C 12.116177789557614 14.2077136509912 7.566060298953965
C 13.108535631247486 14.259193519523544 12.731991576399285
C 15.856602350474834 10.598966626061225 9.92749783618672
C 13.31031071017947 13.13982098354213 13.47979194669271
C 10.721533033457812 14.685337698952708 11.652230890407163
C 12.066803891881232 14.07235769778952 11.70928339617462
C 15.211000371922326 10.988276218972619 8.726150478463294
