55
Energy = -411.34952353 eV
C 12.450542 12.450542 12.450542
C 12.450542 13.572406536487268 14.98176527393909
C 12.450542 13.572406536487268 9.91931872606094
C 12.450542 11.328677463512735 14.98176527393909
C 12.450542 11.328677463512735 9.91931872606094
C 13.572406536487268 14.98176527393909 12.450542
C 11.328677463512735 14.98176527393909 12.450542
C 13.572406536487268 9.91931872606094 12.450542
C 11.328677463512735 9.91931872606094 12.450542
C 14.98176527393909 12.450542 13.572406536487268
C 14.98176527393909 12.450542 11.328677463512735
C 9.91931872606094 12.450542 13.572406536487268
C 9.91931872606094 12.450542 11.328677463512735
C 9.629439898362914 12.450542 10.050956658295226
C 12.450542 14.85012734170477 15.271643296603449
C 12.450542 14.85012734170477 9.629439898362914
C 12.450542 10.050956658295226 15.271643296603449
C 12.450542 10.050956658295224 9.629439898362914
C 14.85012734170477 15.271643296603449 12.450542
C 10.050956658295226 15.27164329660345 12.450542
C 14.85012734170477 9.62943989836291 12.450542
C 10.050956658295226 9.629439898362914 12.450542
C 15.271643296603449 12.450542 14.85012734170477
C 15.271643296603449 12.450542 10.050956658295224
C 9.629439898362914 12.450542 14.85012734170477
C 12.450542 14.319511071406033 12.450542
C 12.450542 10.58157292859396 12.450542
C 10.58157292859396 12.450542 12.450542
C 14.319511071406033 12.450542 12.450542
C 12.450542 12.450542 10.58157292859396
C 12.450542 12.450542 14.319511071406033
C 13.963571879216577 9.915768240150717 15.006116245955694
C 10.937512925817067 9.915768240150717 15.006116245955694
C 13.963571879216577 9.915768240150717 9.894967754044314
C 10.937512925817067 9.915768240150717 9.894967754044314
C 14.985315357332553 9.894967754044314 10.937512925817067
C 14.985315357332553 9.894967754044314 13.963571879216577
C 9.915768240150717 9.894967754044314 10.937512925817067
C 9.915768240150717 9.894967754044314 13.963571879216577
C 13.963571879216577 14.985315357332553 9.894967754044314
C 13.963571879216577 14.985315357332553 15.006116245955694
C 10.937512925817067 14.985315357332553 9.894967754044314
C 10.937512925817067 14.985315357332553 15.006116245955694
C 9.894967754044314 13.963571879216577 9.915768240150717
C 15.006116245955694 13.963571879216577 9.915768240150717
C 9.894967754044314 10.937512925817067 9.915768240150717
C 15.006116245955694 10.937512925817067 9.915768240150717
C 9.915768240150717 15.006116245955694 13.963571879216577
C 9.915768240150717 15.006116245955694 10.937512925817067
C 9.894967754044314 10.937512925817067 14.985315357332553
C 15.006116245955694 10.937512925817067 14.985315357332553
C 15.006116245955694 13.963571879216577 14.985315357332553
C 9.894967754044314 13.963571879216577 14.985315357332553
C 14.985315357332553 15.006116245955694 10.937512925817067
C 14.985315357332553 15.006116245955694 13.963571879216577
