55
Energy = -447.24554854 eV
C 9.464238387835533 7.852066108401249 5.316077017716951
C 7.937001815457986 6.021770248915549 5.3243964600284
C 8.030135677063667 8.319795047384003 5.455792501338491
C 9.36140086485815 6.46426459047456 5.376801354673674
C 5.826736489898914 7.3824557754013655 5.925523624532617
C 7.088886963440201 7.1791951571489285 5.285152803869315
C 8.664076721847447 10.563538020870897 6.060533789497042
C 10.165923980913261 8.59541316279442 6.440806246272094
C 7.644812927772953 9.709375689275465 5.611525439722315
C 9.82142993359165 5.871067899917304 6.664068362858545
C 7.729151286323192 4.93915455177499 6.270516070533751
C 5.390211784854207 8.670319896264584 6.446391159498204
C 6.376246948260028 9.93844956790577 6.4565790528441855
C 9.885809159581628 10.029692168254416 6.6911886127996825
C 8.536258889510115 8.114709671912731 7.02453433776571
C 8.741949783707081 6.777542447554551 7.631491268993887
C 6.58649373397396 5.278654682849622 7.196076303296115
C 5.556941743895727 6.348006337056042 6.944684977002506
C 9.001119791688811 4.604805865228234 6.93529887890223
C 11.050870781191202 7.8503654833881695 7.374568762492403
C 11.004874590261434 6.417068988340646 7.439907200589024
C 8.08595440973873 11.559274429654922 6.888012207004716
C 6.658543921423984 11.465170736630654 7.009274304704713
C 4.979711068288859 8.37947917626832 7.853618377582494
C 7.405194122515418 6.301619688701701 7.969183018770897
C 8.735542553014573 11.49282715908853 8.176736993618476
C 7.857347093198506 8.84366554644551 8.058308018308777
C 9.825848410875508 10.506503074729515 8.067977314122102
C 6.38539787438048 11.76799700602847 8.369501451053287
C 9.122162734728454 4.248685424133808 8.289634122315487
C 5.224752932770094 7.027127850120523 8.177297172336448
C 8.018683516762769 4.4419512994922155 9.259783392792597
C 7.696009233035357 11.669326911298478 9.162233668463003
C 10.97774651814532 8.432859281989783 8.720918306900145
C 6.8450588440477755 5.125767173965761 8.72355699437857
C 5.4313971555935 11.01685419139169 9.095933996512992
C 5.431655751007563 9.461199563085348 8.800760399881451
C 10.25188240681928 9.574173711635616 9.117522498434399
C 6.678595540621331 9.454331520777146 7.87150307030343
C 8.326763995624885 8.27798764687608 9.27559340979741
C 9.181653863949036 7.135285127188041 9.023735510648612
C 10.930519119177427 5.964390091462002 8.849072088410757
C 8.907311342375483 5.151114355843654 10.136366718060149
C 10.085206528794185 4.891581645366896 9.208566827988745
C 10.629367131912652 7.278587410291786 9.552118017597005
C 6.4434962300993615 6.61482652161258 9.08182149658106
C 9.24652537016555 9.053399320275396 10.275316642704391
C 7.323699032834526 7.408369755875222 10.141459141892687
C 7.421044362584726 10.960219187216003 10.397177209931602
C 5.95152238281597 10.727297306421827 10.375984320211943
C 5.771852835559971 9.313919782537004 10.320452533233324
C 9.810162523703099 7.6219595821849255 10.82265406586045
C 8.655152272478805 6.5820409709959 10.427817567051099
C 6.884411679322344 8.655163472330818 10.84893350205909
C 8.007091013366098 9.71916874462909 10.83109744291941
