55
Energy = -443.65818844 eV
C 7.524003700588157 7.919857532720284 4.067235853052598
C 8.775000372810881 7.329634648257167 4.379769502577863
C 9.072967993789833 9.59060765108304 4.99193500494665
C 7.590737718079874 9.217361478548074 4.770825100886739
C 9.780601233070538 8.404998971481922 4.668059767559884
C 8.818143737017186 6.2184690038172485 5.281667868936738
C 7.644731296175297 6.082253196824732 6.412041792175236
C 6.729176508862134 7.334945602108978 6.636671150350292
C 6.650732625913761 10.346181318735571 4.712938329910434
C 8.638093242900766 8.695388726269641 6.910719452148766
C 10.894087529389077 8.239572298210154 5.555116107560567
C 9.534641371777482 9.860649249916412 6.534876608085055
C 9.956172697258998 6.180925636656549 6.171594443416226
C 7.484807732018905 8.512535083798891 6.178677823320335
C 6.333964452577304 10.958187101069015 7.057916593950704
C 11.082582877874488 6.999786353010528 6.3224891114678945
C 5.3644162393222405 7.645415973615365 7.453450102026872
C 10.93283714398875 9.2875392052667 6.5169947334332
C 9.099426013356538 6.297614356305762 7.337746747617493
C 6.293842150512953 11.015904897124612 5.688750633874389
C 7.377668028149857 5.222359510319325 7.736715818579976
C 5.556111745139374 10.227197033923334 8.054045720688931
C 8.816879433425438 10.457421095982271 7.889287643839516
C 8.956792609128339 7.671924522768674 7.884641015203426
C 8.662853875305906 5.264351794321961 8.300302655851478
C 7.4770556136673925 10.924079547435927 7.962616519423411
C 4.867426798936019 6.449470003356482 8.266751394000904
C 4.806370072215775 8.960260100507027 8.06126999981287
C 11.50940039519127 7.392218529144728 7.689392076513506
C 6.687196107455363 7.336456948859726 8.134279082133876
C 7.894543854954902 7.752915266313404 8.902443828300672
C 11.6404952514713 8.852764250454879 7.671849693996749
C 6.534144282100085 10.475125940395094 9.078306863553783
C 11.697547461502905 9.317773529293882 8.986967142853704
C 9.243959178804385 9.847468351038993 9.216650926101403
C 11.422155758269575 6.961993954873015 9.143428082963803
C 6.26212054892509 5.83941545148706 8.593976765368264
C 8.030015940564581 6.576557542996661 10.008538680276265
C 6.673763320336814 5.994731695776725 10.04230236253166
C 4.183035961593982 8.477339366068499 9.21156712926439
C 4.1532025589754245 6.997291167433619 9.305994686578446
C 8.150793456556315 8.979908451230905 9.864045199162462
C 6.07871414498822 8.882610235573122 10.985468691539939
C 9.135841257788416 5.715295969510309 9.605033286940042
C 11.76907910438937 8.153027639283383 9.838117555581421
C 4.712114007178638 8.4952809116127 10.624920858147501
C 10.49839226243716 9.685491971677079 9.772310266106825
C 6.88013074067359 9.692216639372303 10.149365408246588
C 10.2847247431608 6.445143656768806 9.954040241761895
C 6.835927256245612 7.779625114079198 11.485483892316717
C 5.973323255656496 6.638315910637695 11.030330118571358
C 8.341652870669321 7.740133636914227 10.957569951456604
C 4.6268222069460005 7.077263080751549 10.71614921425206
C 10.73811738503114 8.575729589387112 10.765314193753133
C 9.850560868548516 7.5329122992978945 10.990945300697716
