55
Energy = -434.79544842 eV
C 8.124239367723487 7.503055767668145 5.187324002820871
C 9.723901256626013 9.416150354925966 5.414631480789504
C 8.392446843431465 8.971792628158754 5.210005368423167
C 11.772312313597585 7.149566357546674 5.40934840866115
C 6.152436863701538 8.457002358359013 5.907631954275235
C 6.707357268687794 7.156664289947573 5.413882810593502
C 7.189312093778266 9.540224619266036 5.8182045421831345
C 9.052148869707132 6.431205843556499 5.758974562318351
C 9.884707739458776 10.498142081107618 6.338888078391584
C 12.151508882893934 6.616012209783334 6.504515547810927
C 10.846823735476697 8.3405573297462 5.861549963902419
C 7.414455705740487 10.52251496884694 6.927812499682938
C 11.766460660119614 9.137496907382147 6.752735257370582
C 8.154154433881486 5.453480063671114 6.350667014272212
C 6.749931082383865 5.824756481261076 6.01320566053882
C 8.497429249011857 7.524238761003248 6.674748464513844
C 8.798031766214951 10.881475352044568 7.197650104286581
C 5.2430648036665275 8.557290712759201 7.019730972335199
C 9.889379793127494 7.362529165480473 6.736116607076797
C 11.133680161057699 10.359644533611512 7.062217414768424
C 6.041455815478863 5.470317438738026 7.266143941382708
C 7.571620621075354 7.496623568420481 7.73040654143583
C 11.876873133424011 6.972647704888936 7.825371795194286
C 6.386891863106442 6.741469831030492 8.073951784378453
C 5.113682719408861 7.537554854326649 8.132607268344467
C 12.084991852973758 8.398184342040421 7.977013007323252
C 5.354765115390814 9.637277623564602 7.974025771616798
C 7.740744821968872 8.544469689167377 8.496212356893645
C 6.465586582615958 10.531014050047016 8.044041654055171
C 8.351528861007111 5.139930160844717 7.829212206724375
C 4.956389296174481 5.938789402824791 8.36281150597263
C 7.013757694040094 4.954320069217661 8.256948698691298
C 10.28665044962396 6.927552213215986 8.195504355533316
C 11.343633782176706 9.075957011161156 9.002849642496292
C 9.416314514912482 10.578546532216512 8.593559702837892
C 10.878506695197311 10.328935993754529 8.4616562769218
C 6.3814676184316985 5.7505998625605175 9.310785680971254
C 5.282712818637002 8.626341779653105 9.18441805038594
C 8.99144819445355 9.120793790317437 8.733084074191288
C 9.165407249563476 5.962694086057621 8.733549968960304
C 6.761882429904386 8.937857696545963 9.48445683037051
C 7.009114239053972 10.411845738491683 9.593202071157206
C 10.12540075223739 8.169038960451974 9.214880219432247
C 8.579016739665569 10.181662094864146 9.788941329926194
C 7.128146689244474 6.2802956297191725 10.469173419090163
C 5.020386437120984 8.420605664821625 10.64590282367442
C 9.386742566404513 7.685763171529523 10.450315924437065
C 8.602079740185141 6.521216467272707 10.044856684514837
C 6.450574227674973 10.510918942172518 11.12302182548985
C 7.325534475038684 8.486611988666027 10.720960048971884
C 6.442131762694867 7.396890258903402 11.179381074560558
C 8.641564435331016 9.083538023523587 10.974820682613048
C 5.409866867094411 9.406419386557467 11.53675895430397
C 7.458699972912736 9.590296580330198 11.852051950112468
C 6.424909308848799 8.593481839334952 12.29154439537963
