55
Energy = -435.93207181 eV
C 7.840360948510773 9.730937439802645 4.52132013240589
C 8.199781958243108 11.037428078127553 4.944386331930808
C 6.178074472348257 7.995101453101998 4.953359647920946
C 6.433821777229766 9.42332451692214 4.966509058165031
C 9.59460588751114 10.809412328484932 5.36818644050565
C 9.102420590284792 9.311596015768107 5.399919934757472
C 8.470597068571275 6.9038197464449995 5.794230536616363
C 5.992782974935874 5.849965615189766 6.816883227916432
C 6.142958462177925 10.352026429593908 6.085246850364074
C 5.701078661752906 7.194561574844846 6.139995136175994
C 7.376864751715209 5.158324649750694 7.055660338261202
C 8.584279076406977 5.57717422896264 6.487681036469495
C 9.664603242698242 7.838555620982697 5.566106418240916
C 7.250683603542831 11.265325480230297 6.075033210928735
C 10.66728796520361 7.381485738851691 6.630052531991183
C 8.473594493767882 9.553986737341589 6.858481997385852
C 7.3556956257947395 8.67013041563919 7.017887972875471
C 5.178347067160049 8.116074682115148 7.241914284083965
C 9.734727301544277 11.203433103137963 6.751124716605817
C 9.854722071611494 6.068006822639139 7.28952089170686
C 7.309838954155808 4.72476471324347 8.537413961892458
C 6.027462488721804 9.388577480436442 7.358768871139604
C 7.219528074646529 7.674006538179586 5.8982667521131535
C 11.286841898657617 8.10415202161972 7.794570368749903
C 5.320862596411091 5.98687698395284 8.221203859383767
C 10.413684000080552 10.732835213557284 7.935839137737754
C 8.24811916383279 11.125966107075826 7.183089855431679
C 11.057772234411033 9.478492479862837 8.354487560557304
C 9.202462507348129 7.414600826290075 7.044606864199585
C 8.160843199976837 11.192925839090528 8.655419049177578
C 6.644593481564487 5.992991429533532 8.932359385546704
C 9.48200546338483 11.042083468221733 9.050411503689709
C 8.406414059405158 7.9266475358374215 9.202773719126327
C 4.900683082247574 4.73932991257379 9.051096055318943
C 5.000341177711397 7.4636742884240155 8.418557874324629
C 8.605969156100448 8.445494418996242 7.8343918660669924
C 11.061324393432093 7.187428792808485 8.908293137314475
C 6.266900904149829 9.572802124522164 8.934144587997606
C 6.083677005241904 3.875062287451358 9.070384841202227
C 10.682625760004852 9.268269130459432 9.80317236442857
C 10.251000887590257 6.037339343315093 8.70321840337198
C 7.32246936109703 10.31240771723638 9.472952804040824
C 7.136526049042947 7.3380015887416095 9.154187903182732
C 9.597387599411347 10.156321208529981 10.18578168220265
C 5.925997709797306 8.177136712600145 9.439675997201709
C 9.246661807904516 5.909558783630904 9.802119894606951
C 10.638411474979243 7.920583656931872 10.081662241998258
C 8.09788664765469 5.156512564214626 9.851552429445789
C 8.297287222719058 9.698787488400349 10.508243743358673
C 5.609475506902222 4.678214926828733 10.386087836013736
C 9.280944955032579 7.345602905262448 10.333819867115583
C 6.178791606539554 3.333215837204989 10.433557495143303
C 6.73987134172468 7.438874649522811 10.619724149991553
C 6.718282322060185 5.804079409273259 10.43861141995866
C 8.10340615936734 8.239349192555505 10.759690075978307
