55
Energy = -436.86879241 eV
C 7.4117745060796745 6.423411793774825 4.751783716800049
C 10.184962537194503 7.215726394155726 6.009600041282075
C 8.118047300022347 8.732733850540917 5.657970048260585
C 10.610571454352595 9.548166763356674 6.303135616122676
C 9.661118077192631 8.566698869431843 5.659926214562561
C 8.300600407711238 5.917456330733583 5.519589320716909
C 6.327642032328146 7.3929792264737575 6.794541661133753
C 7.232925924512948 7.595207143006791 5.6355945190687935
C 9.388995569923813 6.0591236137152364 6.32150377592868
C 8.16472320369079 12.364399492071826 6.468018628715404
C 11.282775038525422 7.285576883994849 6.972302261978559
C 7.60483742237054 9.844430452238104 6.653852166892147
C 11.53054871439797 8.77006060554458 7.188605403945086
C 6.108049607418263 6.332022415240234 7.813818962789045
C 7.272990183251274 11.371114915721245 6.800895178031439
C 5.752426885523412 8.430328641141818 7.642010743315837
C 6.42647409130402 9.65821914327195 7.6577741013635015
C 10.06369350588673 10.622368161654531 7.296176390644674
C 8.795735870267455 9.784995587034603 7.564781745152698
C 9.37241103463827 12.033136976049784 7.434399854036867
C 9.22252104239269 13.131410517756139 6.389641308538157
C 9.3396256664974 5.95084635464373 7.849215934011233
C 10.48892185317479 8.066681125058794 8.111222722929845
C 10.785110152893411 6.5831779894330715 8.295602139480843
C 11.43537350559072 9.196596019094427 8.73084290207621
C 9.15208664859318 8.365294864750355 8.046104482919489
C 5.413177792200177 7.399738009361232 8.670872284419662
C 4.711543737371918 9.715159794319247 11.192499052086362
C 8.43699454402093 7.160267064875859 8.315939415487739
C 8.942383808091037 11.943516117581996 8.871778473560225
C 6.7311628270374495 11.095191226502813 8.126557522071458
C 6.889077958214824 5.257601665192994 8.449313907542967
C 8.414728247881849 5.081278757804847 8.615618918880385
C 11.266151099230688 6.81036706915925 9.699648571072666
C 7.656885725485725 7.463584798455799 9.39064268288549
C 8.64153276887591 9.384043016469498 8.887634430108829
C 7.592613743626399 11.504303486169164 9.265587834882112
C 10.701653514073007 10.46087394594573 8.68937095704513
C 11.497645912376452 8.321767340409588 9.915644422527642
C 9.87699088617991 11.1585789862351 9.63061738106861
C 10.29417913618667 6.84689743746425 10.765289504900219
C 5.616720776664261 8.881926030787499 10.738085327570461
C 10.492899911098302 8.311107120762216 10.984470365176938
C 5.609572602168893 7.568355245126756 10.044840391775832
C 7.622402150218498 8.831843988265254 9.58674872230524
C 8.436115464156577 5.11432308743648 10.116589617500045
C 7.055952108683884 5.427017355400887 9.896536801790793
C 6.816302279172055 6.736508892159912 10.467735939909277
C 7.783129675803123 10.7823207201375 10.57403795894771
C 9.449973670793453 9.195640014763473 11.38521379313571
C 7.123510209612702 9.406850051619534 10.839791388196005
C 7.975417561485274 7.10820607315467 11.408697693984422
C 9.03501183749953 6.183394374265274 10.954401160845098
C 9.177763142647258 10.539675240763138 10.806594001997007
C 8.16174469586168 8.525678981973854 11.59851166008228
