6
Energy = -41.35221956 eV
C 5.309359199171011 3.54342836130004 5.855184637174748
C 5.820917616777302 7.536394847400738 5.2683082091472215
C 5.64720621167408 4.896764692386895 5.684203426503967
C 4.475240649894902 7.302336240102822 5.313800019774678
C 6.634654537156415 3.8818349465715216 5.808162889780988
C 5.352523766151958 6.213212050819254 5.491227031306922
