6
Energy = -36.02951834 eV
C 5.890571659477575 9.704604923776067 7.778915591395737
C 4.636329864440744 9.623648182220903 7.395003716644585
C 9.142543278904078 7.064734184640346 8.536046212242288
C 9.668284865605658 7.383652800477352 9.704921902713634
C 8.486752402701994 6.397325874826865 6.090568415598618
C 8.777183761223384 6.7373283360273195 7.33341838128338
