6
Energy = -43.00470141 eV
C 8.535938037808814 11.547381054599366 8.30541052541104
C 7.305312132324436 7.975367669259407 7.6039859091348445
C 7.17963360220986 6.720223189713128 7.325410723525437
C 7.5408244497967445 9.206259284177138 7.85199096530395
C 7.223051778429437 5.437784907216731 7.062734618977932
C 7.900683549355487 10.42379556426901 8.095585205203149
