7
Energy = -51.97815612 eV
C 4.885729868734143 6.424658525635737 6.31875720815288
C 6.727680166745717 5.1839285673957685 5.057791047424015
C 3.340872303414896 7.992693768505757 7.675078400988367
C 4.060045911244074 7.166538990520109 6.982627646468121
C 7.756793265495556 4.675133389034084 4.462022517977042
C 8.864367888278418 4.285899403257218 3.9140549279019803
C 5.747436777820886 5.740916678368269 5.666253865067295
