8
Energy = -54.01730193 eV
C 4.635371883722319 4.777007223231796 7.537169649237612
C 6.5703874359936485 6.255192147392192 6.349297813075815
C 5.527257263459679 5.359124152131204 6.631769970844235
C 7.045824878722374 7.579341061074635 6.743870029286486
C 4.627310647492587 4.385477287320565 6.226468550343521
C 6.273355696691935 7.757312825207259 5.384952391094397
C 7.376507467705139 6.682154558204674 5.186505629477576
C 8.260146507088878 7.6040080200825635 5.918633285627809
