8
Energy = -59.36927141 eV
C 7.592390739531124 6.837072814951009 9.24726853152217
C 7.3299705428715685 7.220573697838828 10.456783460162617
C 6.97919927417797 7.869454492317063 11.531691505161774
C 7.770998002254635 6.6525003487116035 7.9970876580978425
C 6.772274821988243 8.553147567627231 3.465369407551061
C 7.779407222326699 6.801638822335927 6.7189440215239005
C 7.263823130794863 7.808790699796131 4.417944501992842
C 7.581870636954949 7.231756032444739 5.5316421817746475
