8
Energy = -53.90769853 eV
C 7.528907536377122 6.893453257612524 5.04200784827104
C 6.568205448922003 3.8170047835376626 7.052069578772979
C 7.026355002972849 4.635027533881143 6.15246639892876
C 4.701544585315761 7.433423814171478 6.766380484687966
C 4.634006366752079 6.178300681285344 7.340279986620749
C 5.188251271128599 7.227591689864344 8.036750744421918
C 7.5779045252953265 8.156598302984325 4.753683474155311
C 7.32283562249035 5.724075089257511 5.53874372766997
