9
Energy = -68.38822131 eV
C 7.9896741939915605 4.881567942053062 8.203269374092873
C 7.303432293769698 5.6058185834184995 7.410740621919164
C 9.467230007594459 3.6329991375364536 9.918026704456189
C 8.71284415524683 4.197720955709298 9.031285916783617
C 6.693654086200673 6.512587417315709 6.743585135630843
C 5.010195055804367 11.063238281949188 5.1989853494058424
C 5.322146740799009 9.824611033910417 5.417491334818834
C 6.141606464848807 7.507112297427029 6.155679461405043
C 5.708764765982307 8.635743464377788 5.748062583266618
