9
Energy = -62.32627679 eV
C 7.191075022825986 7.865886278564785 6.746101416233152
C 7.6891177064149225 6.641437420542359 5.9712159470626185
C 7.63528306456873 6.814947573526006 7.507913704304639
C 6.117072130795006 7.090369645390549 7.514651079750178
C 4.622100041207317 4.608658631843637 5.074872707282628
C 5.722812522314149 5.274068365785803 4.6366407740951985
C 5.485025643417495 6.173435443961911 6.645041846997456
C 6.585610808990279 5.860249361751536 5.566296567287937
C 4.411067617510363 5.645150987061827 5.9233033467350324
