9
Energy = -59.50156064 eV
C 8.204802329500748 5.183231080397354 6.026161482853499
C 8.85396631569083 6.274472961341293 5.415333006444181
C 7.063102373839655 5.0405581867054225 6.663370648822064
C 7.82911865188172 6.990923514826159 5.806719354716981
C 6.575944185848116 6.468771121834462 6.619990713427056
C 6.034495917560851 7.238348892691539 7.7938249391303716
C 4.589917722391439 6.937900540939078 7.652850794621874
C 5.177287732422505 6.90839338573946 6.292549592125554
C 5.096458811632552 8.208594232353665 7.084512216827039
