18
Energy = -34.59800689 eV
Ag 14.13333684791267 11.135934183922798 8.76022255645538
Ag 13.973277176987631 13.730722732617737 10.336456625976302
Ag 13.414765726796228 13.50410511304355 13.01001557203736
Ag 13.09522066909247 11.318744385086063 11.334909929144608
Ag 11.65673424453808 9.762571461513772 9.394464505921936
Ag 11.869938447725806 12.554629809249263 8.918085171631375
Ag 11.177298028071704 9.53187528445646 12.120341463003886
Ag 10.945982450723758 13.176370710482255 11.675659467297784
Ag 11.645345516631131 11.556139375591098 13.996364862762805
Ag 9.074197233569569 11.44247291267645 12.965541554483842
Ag 10.494440756391926 7.3587970242887 10.654364215042069
Ag 9.846250853765712 9.22975426478753 14.435046424099653
Ag 9.645822244225753 13.946141516729586 9.24893873236479
Ag 9.807806176155927 11.226042510929318 7.579966916972114
Ag 9.330294336615287 11.347842665816636 10.274347974582517
Ag 8.46853250600417 8.967471518043045 11.76397087280772
Ag 8.879906118690785 8.96487239972678 8.94314326421911
Ag 7.915088019786732 6.654701527643013 10.09017106540126
