10
Energy = -6.85507678 eV
K 13.328169115694507 15.371525145683758 8.890176974172467
K 15.944420633205626 13.176255697140881 11.687358898843453
K 11.979093035898766 11.533581301241325 11.21909110514085
K 15.358282841521032 17.53262431430412 12.525683857224596
K 11.45845523053237 15.718832887596648 12.867649263918208
K 14.977879339266357 10.172583140533924 14.938356598608454
K 11.46298825033529 12.484141164035806 15.705267664980665
K 16.89234630397552 14.379402729544516 15.68699365167251
K 13.3722466493571 16.480888572359724 16.895425334500615
K 14.557333474956302 12.481379922301853 18.915211525681208
