10
Energy = -6.81703525 eV
K 11.266540359039592 13.488478692441236 8.289450213775558
K 16.93348979968611 13.559101178435178 13.303677286701069
K 13.759871546121593 15.78923296691905 11.236941740285324
K 13.46874879108536 11.28064756292176 11.586333794842195
K 9.677836220992837 14.202866942074415 12.345188447341275
K 15.764141469142054 17.619827604293377 14.997861219338354
K 10.460679771568385 10.531214109247728 14.811115486166832
K 14.99219051894507 10.471194382545818 15.715379805007158
K 12.726845177410855 14.327527237103093 15.42369798473528
K 16.494218793195063 14.274471771205572 17.834916468994308
