10
Energy = -6.92924024 eV
K 14.023544003244933 11.46532168978754 16.358665967228816
K 13.604453024359682 9.191070655864607 12.214236152545505
K 13.344448806193338 9.544315100538844 7.671229383931003
K 9.95231148811203 10.62732330354406 14.435938099397346
K 9.605803215578673 10.30467089675911 10.050532271108956
K 10.425073563707885 14.499117985478216 16.41281844856708
K 16.01719786513747 12.180982125796634 9.955676911961618
K 11.82763271144555 13.720673670050097 8.455946007916626
K 13.012141719802218 13.73350458889585 12.68347198693385
K 8.757121144999097 14.392955306542781 12.158560612726992
