10
Energy = -6.93229951 eV
K 14.908024022830194 13.392408514322995 17.177890680864753
K 16.83993223839632 17.164379865839322 18.208527644898407
K 13.829019939056021 15.683040621752285 1.093095543321407
K 15.493429320515506 11.588478783401147 13.267237726093889
K 18.180635272273907 14.946794200097255 14.530900212616526
K 17.55733376674828 12.195848870671542 9.329568931253268
K 12.316087583942146 14.67740620781991 13.794353173323803
K 12.193264398691804 17.071770560800065 17.480207686070237
K 15.115257997606317 18.24917655723837 14.190679645158493
K 15.653269991377131 15.66794653907691 10.65304098951662
