11
Energy = -6.88968601 eV
K 10.56411150787935 10.77483509049596 11.544277239614525
K 11.8258163511049 15.175172266988273 11.6050803694161
K 14.849487975190977 12.078475517460442 12.445288625678302
K 16.152663912844737 16.07105418996502 11.319516785824371
K 7.630155545921787 13.659494437875837 12.682298486907053
K 18.37271122499418 18.3700428033733 14.399328215005237
K 18.389845145372636 14.113975768969725 14.686933879582362
K 12.726951822586678 8.96468634821105 14.702266441202495
K 14.286528612255932 16.197518152293377 15.171305190245862
K 11.074838392736996 13.190530483177254 15.39787790997912
K 15.010734787385852 12.288060219462547 16.92967213481721
