11
Energy = -7.02598315 eV
K 18.029050523059983 15.3515755451279 13.472277315527167
K 17.172959628294283 11.719796398191749 16.023921649832232
K 16.75655771938453 11.383856580289507 11.51070457173864
K 14.179512126764966 0.009626351436644132 13.455936925447597
K 13.399029768330072 9.471415062167955 14.098172076589748
K 13.835245930282834 13.831000374979418 13.80054826709411
K 15.605600832753373 15.958644330083851 17.234126732854346
K 12.198977892211436 11.812781534676063 10.335510040161045
K 10.627059489786626 16.01999312952615 11.506114406774513
K 11.050429379323404 16.391112487937747 16.07502957071371
K 9.557204376652342 12.474176642556916 14.063327519612796
