11
Energy = -7.75329487 eV
K 15.660683262007328 12.524614472546117 7.917665459895892
K 12.776236282114235 16.561439389392575 11.211078290762513
K 15.863788053303189 9.820884395403404 11.48833680653259
K 16.313168438808983 14.16357859081066 11.892138390878728
K 12.283413731161435 12.229854669994479 10.641706953120389
K 15.923278617672633 12.029952524306214 15.643721453238339
K 12.193246991124026 10.243200030578784 14.484993007225158
K 10.375396900070273 14.241342271604356 14.158326069209126
K 10.522145352255158 17.255237646552985 17.378748435209413
K 14.273731450622304 16.057390895448265 15.405222076608602
K 12.150918474750773 13.208512667253256 18.11407061121004
