11
Energy = -7.43835056 eV
K 0.3315022019535799 9.656748194365816 16.338211717427818
K 11.958835918097966 11.484750481293007 11.671711019250981
K 16.254271132305885 12.23384687662038 13.620472024175248
K 13.88107073103896 14.918779128876102 10.426075663109149
K 17.37642143032792 16.660433980750845 11.90124523077981
K 15.974566949105093 12.275752533993371 18.140663721894054
K 12.159847533923474 13.329150879963066 15.605624076143888
K 10.046587415966142 15.918404274854298 12.597340367375395
K 14.933275056978603 16.356298153445252 15.426118773499454
K 12.993476768527346 0.3856323165542034 12.213274170548337
K 13.307178585146824 15.525657424162045 1.1349484458953192
