11
Energy = -7.76698788 eV
K 17.63230155251336 16.396556969435633 12.697610842130038
K 16.2288069695639 15.187374045953899 16.60257724603785
K 13.39441670205449 17.700740860539067 12.619433679030895
K 14.38280724555638 13.331879399616177 11.88299862287186
K 10.798984283766226 10.076542259536994 12.599800030292512
K 15.850396459090712 0.14409449017286663 15.72839797581424
K 14.556547933371835 8.172889365963654 13.373063478760681
K 10.394412784517346 14.483528865366779 13.354584712862607
K 17.430494499775914 11.54641121160069 14.395546360558887
K 12.272931169335857 16.66329415005211 16.80455943452492
K 13.129058720143286 12.03781701510247 16.03457662538055
