11
Energy = -7.74695205 eV
K 14.014030535729457 13.24619772624468 10.03326973758194
K 15.476474266632108 12.86958114022632 13.998808344806651
K 10.868327382386594 12.344992120946033 13.273877893257069
K 16.769489231747496 16.57521733330755 11.407614802464309
K 12.550843290451546 16.579374705569897 12.899475451675297
K 15.428516336488974 20.34853650336708 13.258596624409794
K 16.010831141320175 16.93475193772784 16.012624995810892
K 13.632789155169366 8.93791757656377 12.530322468371535
K 11.998993739005357 14.62051114349856 16.86134489308653
K 12.704446161171516 9.9552509465864 16.75215825004137
K 15.84340666478233 12.885816770847255 18.270054443379554
