11
Energy = -7.70296384 eV
K 15.60899900737739 10.474672602139302 9.301600831101666
K 12.272941996892838 10.023186832285353 12.23152600001767
K 15.208287627699246 17.015398877401775 11.757787616527722
K 17.170261890259404 14.439859834789097 8.989465932631793
K 12.602031446258275 13.797630664414152 10.00403705716233
K 8.908384469565808 12.775779908762722 12.23674676217491
K 15.649645226210309 12.749126779668424 13.165443047972756
K 12.026764603529418 15.021384518986611 14.218854512565242
K 9.000862680594604 9.309400204801811 15.165055484090454
K 12.897180610538717 11.313897216320697 16.337364406863966
K 8.840196895387534 13.265219014743325 16.77767480320461
