12
Energy = -8.12853661 eV
K 14.08271829247184 15.189815035564179 17.73019929952899
K 17.419194298622173 12.602249105354893 15.503277690600415
K 13.508623014996243 11.00946175418444 16.572533142053086
K 16.292716514423777 16.65799198456713 14.112181550056967
K 9.887518394304658 13.726292638242738 16.013965820768426
K 11.880485196841683 17.401030217559732 14.36343743162333
K 17.046896070657336 13.306542206470139 10.947757230895823
K 15.116904573912981 9.622585425826035 12.667762256638747
K 13.470403817681834 15.997218892410123 10.422742537463055
K 10.600386902570357 10.357191879100675 12.936069767427192
K 9.597876738865759 14.432114040624668 11.4957378779155
K 12.887348406393826 11.821169207568692 9.323082207238654
