12
Energy = -8.53530371 eV
K 10.076207565690146 13.372590466224484 9.303947714290867
K 15.267152713686894 12.675217307717297 10.215737408653924
K 12.654504112466768 15.593685486424008 12.07128451206121
K 8.513362811490074 17.071057393102596 11.534855476496611
K 12.246333164098656 10.385956877138456 12.258130473575834
K 16.00508395031992 8.187505864763045 10.42125074473161
K 9.024433475421649 13.047632886912998 13.632271860874004
K 16.629143107367305 10.271230841293933 14.112940414628074
K 16.350011592923234 14.857775717205959 14.160129096277354
K 17.135940636962967 12.274677211898819 17.852584902199748
K 12.833932503670265 12.694091345615787 15.971696483896032
K 10.445542467699887 16.750226703500097 15.64681901411252
