12
Energy = -8.33449385 eV
K 14.334520427563328 12.133662470593572 15.595812642905969
K 17.98926500648366 17.824352042443856 17.702401557941712
K 11.233430035659897 14.324552795865614 12.84344900732372
K 15.040450475840668 12.544247535085328 11.153041876361174
K 14.495661503647298 17.033883748213874 11.260173530726794
K 17.64832664694685 14.878805572983515 13.962668357294476
K 17.283211727707773 19.43586482066349 13.764309105627145
K 12.130820104611312 14.6700714220852 8.384785817024
K 17.62311374829505 13.591527660463893 18.37150260633365
K 13.937618834694298 16.554145009966867 15.805688737520212
K 10.435290554431765 13.598813009172746 17.2059847418929
K 13.71231755396268 14.381124764594233 0.17427350786757428
