12
Energy = -8.13137171 eV
K 11.506102431271957 13.97673595441992 11.157419701482683
K 8.777873640941346 15.53431773325944 14.401829313090118
K 12.91276751232521 17.261373806993245 14.025985856541267
K 15.618104499672185 13.56939956404673 12.249281585357124
K 10.393716302427661 16.331908454071634 18.513500454404532
K 12.677218105929063 13.302131114466667 15.869116368704944
K 17.6621624239666 16.9605795694772 14.466080763414078
K 17.358220835935963 13.266277416146771 16.67364857852558
K 19.704449177084815 12.51061527489903 12.787794042073262
K 14.660449224315954 16.798510895346357 18.20963249152553
K 18.930285048059805 17.284507892254755 18.894662358061677
K 1.1427303658900307 15.124049743702958 15.929876387662956
