12
Energy = -8.28340664 eV
K 10.915297022994029 6.348952500465548 9.114490144103028
K 6.129003742913036 8.18022076821838 9.02898842132983
K 12.950135439946722 10.95955630924412 14.815352132922516
K 8.024968131490125 6.447940187578436 5.645373570455109
K 9.718889765690072 10.57108674337001 7.956611337170187
K 12.894432031181566 6.427838686878205 13.22084393661984
K 13.57088571929928 9.900037315159075 10.597044648567172
K 6.515141367030591 12.164260845824268 10.942769619439929
K 10.737603666463393 13.581995994050894 12.137261606068815
K 8.675875705836294 15.099191136940377 8.311637059590199
K 12.894988237394948 13.604330233843433 8.29333178077587
K 9.476577463787365 9.218387572454677 12.440094036984485
