12
Energy = -8.4400492 eV
K 16.34294767157679 16.622621745080885 13.639498571233522
K 16.706163761014366 9.811075348163278 17.47994393579511
K 14.127590921862081 16.935922544413252 17.77590969412293
K 15.975978210041069 12.218583881480013 13.534329468576766
K 13.837656968587453 0.7067083341952494 14.8014941351438
K 13.07121771897726 12.499882599446298 16.86567894786139
K 11.605503055227643 11.36174133135455 12.465723779059264
K 13.84459042336319 14.222269682013847 10.005606319211548
K 13.79226824468027 8.167101890406471 14.666810181983182
K 13.39266420262371 18.554477419188327 10.71883656796644
K 17.43913779009713 14.170382241373261 17.413970657849916
K 11.994888929989576 15.675939489693889 13.978758105729257
