12
Energy = -8.42928861 eV
K 18.923943583478213 17.820372587464696 18.016030619760926
K 16.72526324205512 16.343676074642314 1.4713375265610904
K 17.500349662316403 13.495014923713939 17.461071933861607
K 14.447313387533043 17.08232895299501 17.621983461450363
K 14.036134642898904 13.229071349321558 0.22075184463009587
K 13.321799747751106 13.055834167601654 15.818452862807206
K 16.63965045709289 12.275753389330294 12.98093147078429
K 17.306134141213075 16.519925115026844 14.078135968674761
K 12.948497625201194 16.75162060599256 13.381774993152474
K 15.579305823402738 15.435811437874841 9.826097250234778
K 12.403597802239458 12.67303651797078 11.298484500961385
K 11.161940537431327 16.515695169291988 9.280384749159426
