12
Energy = -8.56305063 eV
K 12.370423029912578 16.198236859786167 12.744319255049472
K 16.5796066212399 17.860561987013103 11.099344579913923
K 12.052511594839402 11.683982433970797 12.325886208897469
K 8.750804560785253 14.198915332108719 10.61607690332524
K 16.163283728255124 13.707144893475402 12.477662434683376
K 19.871192524589436 16.18555253334941 13.680342001351876
K 15.280990807266063 10.179637834383282 14.909828108358347
K 9.012172782052907 13.654213918697597 14.956606115471617
K 15.800333959584156 17.151984771594346 15.484570481471879
K 10.888817819751925 9.89873159553695 16.388591454726996
K 13.256348217641946 13.818412001013547 16.598404355107665
K 17.985757777662013 13.474869262651382 16.730611525222994
