12
Energy = -8.5930241 eV
K 11.762949605003145 12.549136343683001 9.164339972137201
K 15.87373888007301 12.22931583119008 10.56986505664189
K 13.000518781142947 8.621931972938208 10.609411125877042
K 8.534935840899317 10.002215100620157 10.56567474240151
K 8.81349965797796 14.34523530667487 11.930336508905153
K 13.589495213959005 15.447743818954558 12.455169670925805
K 11.520214321878557 11.578445697858994 13.875557136321637
K 15.670802588703642 10.225833095763146 14.388777682699992
K 10.91911166128577 16.09570579701801 15.829595211938313
K 17.74971069386287 14.443514620975169 14.333245935747605
K 15.104451309797359 17.776624710431314 16.21280579755942
K 14.34196375552059 13.565690013996937 16.94661346894904
