13
Energy = -9.34204899 eV
K 15.038584447615381 16.011503032530708 8.274597095248305
K 17.96445137148458 12.992893004895645 9.779068224210128
K 11.793997035752106 16.085864595075662 11.146218157384526
K 13.768404039670077 12.147236225323631 10.422139398268465
K 16.011146608180987 16.069826482635733 12.480179369553237
K 16.58721797659011 11.880868296878152 13.829950696088789
K 12.399442117669745 13.210503923689402 14.541315043972048
K 12.926177007767388 17.54067163782729 15.394650666519093
K 16.476045211257755 15.230001633621354 16.775612752454148
K 14.638652179713674 11.361541361006521 17.96120465887354
K 11.896511026717683 14.777227480129733 18.70340859107422
K 14.393087525410046 18.2081419262436 19.51968763204396
K 15.878892967149216 14.256329915122468 20.944577229289283
