13
Energy = -8.56599232 eV
K 16.358786950302445 13.00565258818897 15.984638859631673
K 12.628635053983116 18.023059756265475 11.16001704163803
K 8.715855534518578 16.787440411118013 12.633372771667144
K 16.5406249656619 16.042608202952863 12.634298882706764
K 15.316850131476091 11.920771753009394 11.905452285688794
K 14.53592320237263 14.930603150444789 8.631343170390762
K 12.322935254630144 10.755315669010555 15.409851682070036
K 8.910975201003728 9.303191482797251 12.673418232412422
K 8.484881130660424 13.01827552958789 14.89759512175946
K 16.308296455672743 8.555989746419536 14.65330804692735
K 12.628356557507875 15.284986093305852 14.803982133074346
K 11.157551504813986 13.041225223879557 11.18951369479176
K 13.002214962308553 8.235547512422112 11.539462574926366
