13
Energy = -9.06424061 eV
K 17.134738765350246 15.593285531842263 10.666394651984053
K 13.005206106806456 16.059349491465568 9.547622498343628
K 14.15300477400552 13.419682030061791 13.42018469603208
K 0.42013037360298666 14.115063337671767 14.402610223966521
K 11.008809381209073 12.195246890645668 10.68740177210046
K 14.851171955959156 17.77017308965605 14.032265826951255
K 10.326708863664816 16.321859599112422 12.954794854233148
K 16.283802673324306 15.204049547430179 17.711199674443584
K 12.591134665971191 8.943228459606413 13.715677711389574
K 9.872383571966969 12.21034753232919 15.09858058727301
K 16.82524934689531 10.068337928521288 14.829497741855306
K 13.669183652377438 11.456659887066488 17.52486588975602
K 11.96682858967675 15.622943522837325 17.007847546415476
