13
Energy = -7.18641645 eV
K 11.55979162768944 10.68938723503958 11.849770954301281
K 10.812259370602284 18.106701446443598 11.824896618030898
K 12.837772939261521 14.626749941120908 10.082880891833799
K 15.601649520096384 12.463289363056473 12.810118218898218
K 8.57233589998905 14.173913321735991 11.063921142183162
K 18.907979857960267 14.491039526794667 15.079666413838753
K 15.270655655021782 16.82080822351204 12.957999778028592
K 15.188348394021599 8.118911452366445 13.248319077759268
K 11.49459306995184 14.491639558137845 14.320720643539236
K 13.073879401650554 10.761550024850347 16.066313093557824
K 17.47277606343997 10.538344252371557 16.37270045458845
K 12.60552047998746 18.564115778710242 15.830760019824803
K 15.018792106812825 14.569904262345135 16.908287080101
