13
Energy = -9.1663882 eV
K 18.727008499671552 12.603833575448725 12.883397125981784
K 1.3710462433061166 15.283866685610738 14.127360206227818
K 14.902462171165851 15.269281563639392 13.594655576420505
K 14.826194634668369 11.096554843144608 11.537028654627527
K 14.495253079408883 20.103776991546443 13.675640198940949
K 18.60974316060692 18.246901178711983 14.066881531533527
K 11.572525563601884 11.88172295192686 14.456485467161059
K 15.91308557437484 10.770691240164199 15.820774014632992
K 18.233740370156593 14.6787837467055 16.736067668582354
K 15.559572817077258 18.26551311418109 17.390286879876673
K 13.6483834060143 14.129915615229047 17.818788877500076
K 9.095305461986735 14.11878911864573 17.154222614972525
K 11.42974236586995 17.479047319480134 15.607858452780752
