13
Energy = -8.98240742 eV
K 16.56308046284838 15.67727109592802 14.57053344394837
K 12.561672724321092 12.704989539322568 9.165066523998954
K 13.457558244394805 16.33425441226769 11.539206276400652
K 18.24587112011577 11.485900841653953 14.58268617433432
K 14.74438065384599 0.6309733942818847 14.235771566634067
K 13.940688718245248 11.71433046035398 13.24536180644495
K 14.812057535142978 9.80417605265427 17.22670064694535
K 16.787097023735416 13.515779267758784 18.42388382942811
K 16.935945078659998 13.50871782582853 10.484373834025789
K 14.454437179042317 17.66002427740527 18.07129515544904
K 10.931254589511111 17.509853063589222 15.211122251790648
K 12.47599080089539 13.720578426065972 16.87121229850221
K 9.970923611183062 13.719557871326213 12.803825035152201
