13
Energy = -9.16300073 eV
K 18.139135518916213 15.105879958626709 12.081751857556329
K 15.952685917393342 15.52344276467232 16.1202035184702
K 17.395070828383343 11.45547815526817 9.488984884155848
K 13.844327963076394 12.11044317617382 17.691066180118373
K 15.16434859048057 11.792451377833073 13.397796320383987
K 14.76705974206606 17.82286147801683 12.485520440787809
K 12.885303189547379 9.928390074235564 9.893451512939748
K 11.009751248231966 10.227229956959208 14.336691614552437
K 9.49349171683481 12.503046514509228 18.057673195259397
K 14.004094733106143 14.375676312229622 9.888654093194253
K 11.746321447586224 14.713224774285434 14.228831878320868
K 9.810145206565364 12.869197439840873 10.648747186819024
K 7.26807770130197 12.925965268466502 14.361850372437651
