14
Energy = -8.68730992 eV
K 10.384363 16.435757859846742 10.064511251327833
K 12.591579009987669 8.155550685669214 9.385469868934385
K 12.591579009987669 12.613175314330785 9.385469868934385
K 13.149544856092213 10.384363 13.078709035870759
K 10.384363 13.786607377193057 13.492903406284274
K 8.177146990012334 12.613175314330785 9.385469868934385
K 8.177146990012334 8.155550685669214 9.385469868934385
K 7.619181143907788 10.384363 13.078709035870759
K 10.384363 10.384363 6.028895626595747
K 10.384363 14.743026850410837 6.010741871171878
K 10.384363 6.025699149589161 6.010741871171878
K 10.384363 6.982118622806947 13.492903406284274
K 10.384363 10.384363 16.516576883644596
K 10.384363 4.332968140153258 10.064511251327833
