14
Energy = -9.76104679 eV
K 0.3808362009247929 15.951887458779426 17.152440023966772
K 16.88540347157101 14.817560475625708 13.463208983837223
K 15.908373947048766 10.946183687279964 10.870258980706605
K 14.115207997369325 14.824910835428078 9.538161850783355
K 14.496446699418437 18.496896122553096 12.00060528797801
K 17.068311682116946 18.996361649105015 15.50565957301378
K 15.861854911212069 9.932671113832592 15.24277888209948
K 10.527616014498058 16.43233072907169 11.990605582066435
K 12.785258770422676 12.702792656721211 13.412966286887242
K 16.36426185127486 13.438292570235467 17.789688946378043
K 13.349655895239191 16.41173498161872 15.966874000562298
K 12.31897162598019 11.751936389254363 17.854270850162013
K 16.50770007472839 17.417177466483054 0.04814396049127701
K 9.211954068498502 14.084840894446343 15.571935302304198
