14
Energy = -6.0278298 eV
K 8.880106914730153 12.111422101857293 8.355836088468529
K 13.270022264510903 12.0437375520261 8.985324708223596
K 12.19408655492719 10.408467762690112 5.0384728884327465
K 10.585474416181775 12.150339772544227 12.549940347507532
K 9.416855583818228 7.851990227455776 12.549940347507532
K 12.171820696460893 9.488263810990027 15.730252964131072
K 7.830509303539109 10.514066189009974 15.730252964131072
K 15.431924119602462 8.529819061745183 7.557029836975642
K 11.122223085269848 7.890907898142706 8.355836088468529
K 7.808243445072812 9.593862237309889 5.0384728884327465
K 13.935164175480875 8.687943297810381 11.791297608617127
K 6.732307735489097 7.958592447973902 8.985324708223596
K 6.067165824519125 11.31438670218962 11.791297608617127
K 4.570405880397541 11.472510938254818 7.557029836975642
