14
Energy = -10.12734863 eV
K 12.92168788425768 13.754796282973158 8.413599458762205
K 9.170421882224376 12.843923509749912 10.99824608858962
K 16.5703800092381 13.918412508065762 11.153424176259078
K 13.312055819217994 10.548453771459211 11.502033795542724
K 12.602235652803941 15.124821787723105 12.76682497788701
K 19.422722797995455 13.509268761620149 14.827416680789524
K 8.67770920831283 15.690752454471442 14.819268061082196
K 17.869271554932453 9.900590810754844 12.522880206665096
K 10.631778568419383 11.647692267830486 15.064873711268776
K 12.061851974018046 18.862744677450156 15.395887215012669
K 12.550976038955165 15.025144098592849 17.56099816596305
K 16.122089582719862 16.778947647503287 15.079146508643664
K 15.10395531944257 12.094009482299423 15.31822456637449
K 17.065076832388925 14.382655064433454 18.659389512087127
