14
Energy = -9.76814961 eV
K 18.328431722747197 14.654260555718356 9.49238648108245
K 14.849734363776749 17.50771088811895 10.891779112255184
K 10.739950220196572 15.520526103453312 11.44782834819807
K 14.662326206807158 12.934539006784119 11.640790656885848
K 18.62921597348389 11.091648227763999 12.5250381317822
K 11.094920763062607 19.489625596203997 13.166550617685886
K 15.005449187757037 8.58369420402036 13.625393934064594
K 11.119246437162506 11.90254219851494 14.378110496033528
K 17.962659395161257 15.351892567371 13.652457284079393
K 8.816559241362794 16.08350685732758 15.457295154384795
K 13.198390848019683 15.906497001134701 14.967386947976333
K 15.335517746552291 12.000405171467987 16.02156846907977
K 12.450595682197065 8.876319097667812 17.60058843425984
K 11.087930209686176 13.377760522426321 18.41375393020524
