14
Energy = -9.77413981 eV
K 17.89528869411063 10.844491750798237 14.191067813913536
K 18.30027944598486 13.067127582544499 10.145675765345304
K 14.437509559887568 11.087415102611379 11.299214332161458
K 13.74672574885315 10.497244932080685 16.005432252744708
K 17.644293161640054 15.307416766056706 14.15385154371115
K 14.863068817631877 15.727214287655697 10.479765605727339
K 10.4845549292031 9.746095542754 13.083848455768265
K 10.81604945462881 13.658107614700235 10.841370869905525
K 12.342957743423945 13.425519047402078 0.7259467027963251
K 16.69285707053694 13.120542711303463 17.96043775077366
K 14.012332903344905 16.640359698603373 16.794137596029344
K 10.494704668295395 13.796689981637169 15.354343357665005
K 15.67899586149389 0.5787212595794694 13.451313422010767
K 11.595722717984994 17.559480051713535 13.087996206764885
