14
Energy = -10.0186567 eV
K 18.5468499729711 13.285308426816096 15.173631578355364
K 16.682480412632223 17.4328527477313 13.365666638783942
K 16.17826097044326 15.902725014750244 17.91500373833417
K 17.320297892375393 13.315127051452091 10.776909930655066
K 15.216593359499772 11.443122125463914 17.796246478757702
K 15.91552780885264 9.917659206002606 13.392914206481658
K 14.162804671153078 14.057657761358222 14.15710639812329
K 11.383085021023422 17.052122677284768 12.725090225637393
K 13.287376950133437 18.608800354662918 16.327561705127803
K 11.468517508382345 14.477616305379017 17.478394563128912
K 14.384958720664939 16.259848170163828 9.603993665325183
K 11.781981873192708 10.254586035527357 15.19024179280863
K 12.527783840198778 12.176348194734565 10.719384109303375
K 9.159676785650069 13.339615869322367 13.686259403022097
