15
Energy = -11.13348483 eV
K 17.088699167967242 16.691121854883527 9.98263525123878
K 14.505550480973303 12.921178503509017 10.306706254382297
K 12.93842437286101 16.415664757648948 8.14720977619239
K 18.975408363916536 12.58571600988559 10.721854796692728
K 9.938014593192294 14.438304735838303 11.10758423827238
K 13.3250173300696 17.145005340251185 12.632728517059487
K 12.871635788477207 12.911251184346073 14.229424148494585
K 16.37278957598017 9.977303496734729 13.676080362328312
K 8.751998167650076 11.508261803076628 14.7058379837501
K 17.078546956495824 14.55322964542969 14.165391042232475
K 13.745298116760704 16.028537292758294 17.172703860690056
K 9.589799124930597 15.969262228348752 15.392539021156171
K 12.59225991141234 8.866139515315442 16.048505912148336
K 15.618922690865066 11.86132645674566 17.797158875596843
K 11.070436168931769 12.59049798571175 18.37644077024982
