15
Energy = -11.07765738 eV
K 9.964680848010236 10.882040069520384 12.543346448871164
K 10.172009130058118 15.528979986123902 11.879997993097986
K 14.636320323897074 15.505840497379715 12.94016182134273
K 13.910274681026857 8.53852415665892 11.018537993073577
K 17.19473482665664 11.812730224939157 11.433910332068445
K 19.07878892572119 15.521779516326479 13.419973601762887
K 12.951091238995616 12.760871009138507 9.919817434534927
K 7.849245370346074 17.274105601397384 15.310104642518285
K 15.006606756799124 14.682245197807354 17.38297052725793
K 12.16000119355173 18.09289741885075 15.869763113198013
K 19.410829787076775 15.668231733742536 17.926702341755057
K 13.916952697377564 11.233611802190415 14.482390512632513
K 18.12616614785742 11.911585287123566 15.86429950721307
K 10.706130038327133 13.804851916856167 15.893727097387705
K 16.653247272775424 18.518784820422063 15.851375871763324
