15
Energy = -10.53321734 eV
K 15.978485298430808 15.206432632048278 0.7344829397707894
K 12.288735825554388 12.856675777519989 1.7492470788308194
K 12.29763280662817 17.47471941809479 1.8696843831285452
K 14.452051039935832 11.463242145632593 16.51194582634363
K 11.557740286517745 15.280967887193757 16.390885475696386
K 14.376389672014826 0.7392596912948198 16.69533063157073
K 0.5394500383301444 17.648377464076333 16.50664830207256
K 0.5771664988332339 12.908115959200503 16.355676618549577
K 15.720087907181888 15.391928929874133 14.566628112419464
K 15.786764660620246 15.441889568661038 9.947789528728888
K 12.589903063373885 13.117359952155144 12.480807805144877
K 16.95551596194328 11.686473171169498 12.392467288647097
K 12.568138047790333 17.760499239345855 12.538955934343626
K 16.930113808126922 0.7618770080837102 12.49804647311754
K 1.3187830149490278 15.429569181729414 12.47960842213186
