15
Energy = -11.04007625 eV
K 15.735477797732294 12.509364217175614 8.457756529770869
K 13.071647993466184 16.00703744671211 9.47748092360174
K 11.85473550863183 11.865309662725847 11.189899230550575
K 15.97782025945721 12.469415185270272 12.950555403282856
K 17.293560018974595 16.135163279694584 10.91346641443053
K 15.039237464633974 8.645774886636111 10.716446672685352
K 14.524777584343216 19.328996113565353 12.37497184165443
K 13.01140660116825 9.097861367795371 14.749593935772715
K 16.33910036943531 16.255372313139567 15.442856923467184
K 9.871959996343408 12.215107929139837 15.386088144850635
K 12.442498583735247 15.370453251291568 13.815651916213463
K 12.853656307929661 18.983714975111543 16.507802979674725
K 15.069331297318142 12.253404213997987 17.184606987081033
K 11.564663669070857 10.419547674814092 19.007518671259355
K 11.946366648722469 15.039717583892013 18.42154352666658
