15
Energy = -10.01424108 eV
K 16.176561545326162 16.79700977354046 8.668844880760812
K 13.634901706484397 13.397471377137427 9.433841990952995
K 8.911738661396505 13.014090059850373 10.961944416355369
K 11.57147399953129 9.28578235324388 10.569911127426115
K 18.23743676387027 13.560958447025559 11.161226191534237
K 15.51321094923617 16.56862665575299 13.01780620274808
K 15.97867232906201 9.83203142696803 11.591730659808759
K 11.1866051680028 16.75311469312522 12.21551497790358
K 12.520204494235713 12.655725125836652 13.441751727212052
K 8.879341727315788 9.97992702805901 14.35773382741605
K 16.35689022731376 12.62210300427668 15.248988915894962
K 13.113458231768657 8.33762725991624 14.850691823185624
K 8.532727034844788 14.463100387497727 15.248277566602985
K 12.684229572232383 15.981423835503032 16.549012960548637
K 11.555768957921819 11.604229940810365 17.53594410019325
