15
Energy = -11.07262865 eV
K 11.710652105249297 14.580152757120626 8.18757437029469
K 16.0647039837761 13.101401051337938 9.425463276691987
K 14.21091623140104 16.91444949578029 11.09078186849617
K 19.95716044044139 12.15110916743222 12.002172408039678
K 9.833482670168893 16.420559206657124 12.14976458452872
K 12.529733955702243 12.7660927061271 12.294126506486913
K 16.00408588707586 9.941510397529688 12.74069727921768
K 13.307192598322873 16.366056719627704 15.401776384010253
K 18.567057627220176 11.060147243922017 16.32456693251475
K 9.47545359301098 17.9548815407412 16.59807539519221
K 9.622855904222959 13.485559666050095 15.639879481156106
K 16.76456801350357 14.39718593584983 13.843454469485666
K 13.755729993098175 11.627158727841882 16.356081452895275
K 11.835521510090532 14.93205873869391 19.346260788689708
K 16.3540904207874 14.294881579359396 18.592529736371212
