15
Energy = -9.43868562 eV
K 15.477136579765705 20.308545857848042 14.41807782084217
K 19.06761560191889 19.584310916577437 16.71473619705099
K 18.564861203890793 16.72370369985705 13.216124827013765
K 1.7043122330636813 16.27870562679737 15.879056034145995
K 14.842739764431295 18.208199609418457 18.547636688628316
K 14.43770927491662 15.867571298674378 14.539052000131813
K 11.33379426386748 18.942389989401384 15.934953755291959
K 18.178015590215804 15.226696775071984 17.584304769057397
K 14.714570593645192 14.047592884406884 20.059685629010612
K 16.272261471710017 12.882981758613907 11.752402616529393
K 19.752857866389764 12.537628669261084 14.424559942014506
K 9.934235305952821 15.563366851857593 13.322079087791689
K 15.53578428729188 11.749317783207372 16.271518681849646
K 12.16659964533237 11.778541049519538 13.33057501170951
K 11.379254704088728 14.402526510810446 17.398200802562986
