16
Energy = -10.17333496 eV
K 13.111958390087581 12.763555921163354 8.851181597940093
K 12.77271965898189 17.21814418527426 9.426121419775153
K 16.845525464101193 15.019872269409202 9.767506128328609
K 9.546254419020041 14.31253883398027 11.269412219413296
K 16.192244273831815 10.79024970502373 12.067930990287023
K 13.81013472819098 14.089067984183085 13.163899121203874
K 11.265953574725682 10.297841596901545 12.46443579882532
K 11.289148760573523 17.864533783762646 13.552196453472117
K 18.36979386216143 14.983351838025332 13.91323441575487
K 15.705667339235081 18.367368906867714 12.791712437122653
K 13.938409674086058 8.641933798300078 15.459383616559991
K 10.199533799554658 13.870924336981775 15.80872548638512
K 14.64694791618624 15.944598044836136 16.901103114827546
K 16.863583256941393 11.705030918841443 16.533392195277056
K 9.784853513533896 9.561077790683722 16.739555692613482
K 13.09925257270426 12.011891289680834 18.732190516129226
