16
Energy = -11.6913636 eV
K 13.824756747908582 1.2069670496594478 4.339176041752585
K 12.657844890918527 14.049799984949384 17.366138807541223
K 16.79039197557124 14.676190201434675 18.22624890933471
K 16.55025177463576 1.856028789772152 0.631643434528769
K 13.606640205948462 18.451945141816445 17.361271735885744
K 18.2681664275493 0.12292553275541211 4.257301500077248
K 17.877957127548065 18.95936726994069 16.437128972702556
K 3.1234021614814775 19.111556155549955 16.421473173929137
K 0.6840473306202096 15.375716600872627 15.071247453083908
K 1.7907722195901348 1.9070277881548794 1.1253305039014994
K 14.860218738048506 16.96125477148152 2.0346322327649125
K 0.6559296167825828 17.147397451612015 0.6872389761701057
K 0.30057641246856737 3.638105147449699 16.77922341682622
K 15.563248999428176 16.091030543512744 13.824782763504185
K 11.207778310780482 16.757214379925237 13.99129061543039
K 16.10722466538382 11.896188787780872 15.024506407098036
