16
Energy = -11.79878323 eV
K 18.303409561942367 15.51109426409826 18.938398376615584
K 19.122494235606606 16.509687364282826 14.0859321506134
K 18.311802630052384 12.187756742328894 15.638734512568913
K 15.222677142934783 11.899985368879056 19.016943803790813
K 16.373719078202207 19.0714098614835 16.804249078483036
K 18.345656447515616 17.145513177925974 9.609003177417973
K 13.835141917696543 16.402155287263326 19.829637354791537
K 11.799138488878631 12.931072168421741 1.1139347111625506
K 15.140799199453221 15.116343168209436 15.681795218733992
K 13.784404965845924 11.063278403728953 14.55963733633841
K 11.065914899170323 13.699018228521265 17.18667920118239
K 11.858608316327095 18.13566471585631 15.972413355146857
K 16.387914258723203 13.657810660881854 11.670489812769576
K 14.963218729554574 18.27223841415472 12.451912865406994
K 11.845101855414129 14.836989360060759 12.567897894997571
K 14.071770646705664 15.97499100654526 8.701393728406968
