16
Energy = -9.88054991 eV
K 17.004864068810253 18.15853145143805 15.188869210038886
K 20.406433516100506 17.02296273862034 12.543974096657388
K 13.694705651017431 0.7496462835018334 14.805375406722296
K 17.744826919532855 16.689745774092824 19.282485964222413
K 19.269651136408214 14.089493460750615 15.916300582039394
K 12.88106361177365 16.89576879677283 13.326397093534075
K 12.53161441414235 12.203179977517458 12.966831875686713
K 20.473405574319706 12.626216571533933 11.714771481920529
K 9.823672640617229 19.34827685554271 15.547764551007099
K 10.615732870791874 10.790697208279349 17.06286742591761
K 16.40462244463201 14.752575624523638 12.141324751282502
K 14.02621073747174 8.723086174396089 15.937920243493501
K 13.499747853482804 17.83759573878637 18.001282824646015
K 17.050199433943312 10.675360525101798 13.644395369930658
K 10.245877330331032 14.977462570389628 16.29960538543142
K 14.793902165522647 13.696647325048131 16.632347877732524
