16
Energy = -11.81948144 eV
K 18.11152083949787 0.5035548313466287 13.959206296791013
K 15.77979602218334 0.9861045914874992 17.9629404434197
K 19.39648798738089 14.697308612417908 3.6270007539631317
K 17.307701013844532 18.013750540748273 1.4780879817471335
K 14.294537697960177 13.742279626858219 15.982491083230128
K 13.767725984621922 18.50115174823222 14.664016846581466
K 10.226993152955485 16.111482593676747 16.100815098624956
K 0.6881807439965953 18.30921172347027 10.655083682496429
K 13.356236199812832 16.89887065133684 19.101440313738227
K 12.482573105594774 15.049095965065726 12.209361536140332
K 17.403119276817794 16.753315900338688 16.841857498715616
K 0.38373461413117826 0.3415769779964313 18.14549424663883
K 1.6476095765088015 17.236977390262734 14.856403361038726
K 16.53054131389756 13.605394104291998 0.18813084838280128
K 1.1105044604730152 15.780436929948715 19.291597151267116
K 17.026491993827758 15.891474091184252 12.49195576458125
