16
Energy = -11.88227743 eV
K 12.956894983169867 13.41617109739754 8.919209652545446
K 10.009610551357664 11.37233641666614 11.987528479387132
K 11.275696063347741 15.735033242987644 12.509204280357528
K 13.575296899754685 9.148222988211458 9.759588938973572
K 18.5617080019329 13.661911475268626 13.864775979331915
K 15.859709977652562 16.131923279604322 11.04769081582414
K 14.337886674131486 12.114623137528689 13.051354623806914
K 17.304745976927936 11.934511545245211 9.762980526853934
K 7.5871443128398885 14.244453381671164 14.785453495127028
K 18.450184311003376 18.10941666506781 14.405944362678845
K 14.574552798562525 16.03947383845537 15.417722682569426
K 11.315597322938089 12.554532097545579 16.406591717504185
K 15.864129715028639 11.85701046366058 17.176659224043195
K 10.414113274882416 16.980293088937444 16.986868524296955
K 18.105678833035913 15.589552824314062 18.112705490346144
K 13.598257943980736 14.901742097985087 19.596928846900372
