16
Energy = -10.85874555 eV
K 10.973835228834343 16.018614265649926 10.98795468854377
K 15.233754047517776 13.435524343300466 10.847765410488352
K 18.571837250252734 16.177921904287835 11.728889686684996
K 14.91525533902424 17.466008441004544 9.046894805297946
K 11.01914797645139 11.297093703526176 11.262071487742475
K 7.990283716715766 13.582599172789992 13.596259080800992
K 19.11171972957021 11.641892758792011 12.396471870695398
K 14.487874738042155 17.426570468993578 13.547653693514231
K 15.210739304603726 9.963690914083646 13.570162046822137
K 12.528343353878242 13.48956033006806 14.519102917968366
K 17.096424597918745 14.20846905163195 15.542544149788997
K 10.060337171308358 17.294698301994277 15.290744960915115
K 18.2821887839506 10.145748733002604 16.739381178699233
K 13.528750642058812 16.005699811834056 17.821250687883413
K 9.791348528780729 13.42062561527395 17.93929238332409
K 14.179662941873273 11.406785534548778 18.145064301611885
