16
Energy = -12.06413121 eV
K 15.518229106421101 17.001030581075 4.8569221920649515
K 13.56259573438645 1.1617400755442955 1.849451114797788
K 14.817067750826396 0.09520024457157832 16.2278031815466
K 16.59199629786646 3.485332980761426 18.148895785033172
K 10.526861356502879 18.28604525544392 17.69270962770666
K 1.933909789836313 14.735318755254399 14.371241581931569
K 12.840546798168099 15.567778956260147 14.73550774991693
K 17.021382586755724 14.803394309211821 16.693593546453197
K 17.662576154184023 18.12358664421577 1.00364617516906
K 17.760713086455368 13.675128797536095 2.1231890370491873
K 13.677246882982773 15.716700393739455 0.7106303209184754
K 0.6229591269520768 -0.15376075325179525 15.903986297068597
K 1.2158041202203376 16.599614988340218 4.520922312536404
K 2.560581114065587 15.847759055387879 0.001473857375761677
K 1.1316775751136574 11.620695042486384 17.71799545894806
K 16.96461891880504 16.60061125215848 12.472439614779463
