17
Energy = -12.17119036 eV
K 0.9735836877395896 16.070419726555002 15.9614980088037
K 19.494705148229524 15.699290054335469 11.991600766543932
K 17.83265520551288 13.067723045543753 15.353399169878804
K 0.5280441920938364 13.3321970977456 19.099177645978912
K 15.458569813597812 10.450063182580623 13.228480869072103
K 15.114434895737995 14.861452122953938 12.412623347412097
K 17.051414938894442 16.23328307156888 18.274868981886467
K 16.895486903214987 18.382989770068786 10.122246027763095
K 17.075715613907967 18.151823973905056 14.554973654050144
K 11.776090397061079 12.031788074819982 12.611092411855049
K 16.353943084157375 12.286517307848236 19.72337834296074
K 13.422077350311978 18.893868157393072 12.360874361072645
K 13.25303555209549 15.071503774636042 0.3334840810961622
K 13.46212846324668 17.671181950702056 16.652986210043792
K 13.603709522307556 13.208584291123303 16.34709755423984
K 9.850062679522212 15.410255953257819 17.839079158185058
K 10.743581071001328 16.006419986821548 13.760386999012054
