17
Energy = -12.78311667 eV
K 12.909845360750433 12.740027213096946 8.58903274262982
K 17.00120016674542 11.241003174409414 10.035724939134628
K 11.928156177686434 17.175238308836214 8.876730385216966
K 15.318438618283563 15.392679619937327 10.968007906147436
K 13.612711886136756 11.160613197649496 12.72212482206141
K 12.487650163342765 18.585969086322134 13.153093839378268
K 17.144089424298432 8.812257298445886 13.964759026895923
K 17.82377095107678 13.114512583322709 13.98823877831622
K 12.867200212587571 7.947183199389812 15.47176774351818
K 10.818269730866549 14.606118150172469 12.349645845728604
K 16.803753180422778 18.107373220612114 14.15347548574691
K 10.223640482548332 16.46015298705873 16.44055796879841
K 13.98467806475653 18.70521150483914 17.564937937177238
K 15.410022142677544 11.193972641368143 17.300326396725364
K 11.044645687266762 11.941704169197147 16.293974616171177
K 14.142147933397649 14.946161766205583 15.334289927587221
K 13.157982121899327 14.548024183880669 19.47151394351017
