17
Energy = -12.82984995 eV
K 17.504746196453794 13.561026482874277 8.798049054044371
K 13.615272536383033 16.141598777765736 8.562755465185036
K 13.634643945626701 11.909049132772063 10.152029963540729
K 12.945450507337844 19.195222078426266 11.966804174405139
K 9.942657144978359 10.757456764354371 12.740415904672478
K 17.495069821140106 11.566662862475821 12.994181922485659
K 15.943201921461359 15.872296494287143 12.308045265473302
K 10.70955001561842 15.317536495341072 11.891004031039529
K 13.976326226873134 8.608015000235943 13.43221995644588
K 13.436534289658383 12.927158833825082 14.530746541019171
K 9.33287901790325 13.745884617806425 16.117371915769695
K 11.342669028829718 9.708250436679496 17.013039518639133
K 16.28341076059436 19.26465410933766 15.20950688597532
K 12.546042486115294 17.080873433012616 15.979830772692228
K 15.972424614122419 10.409457747725488 17.184878498569987
K 16.832310330957153 14.901554323312899 16.691194805380373
K 12.988973635764893 13.535464889585855 18.930087804479754
