17
Energy = -12.69687665 eV
K 7.660076027514642 13.892007838464044 13.153649163945282
K 9.863129 4.354088650675553 9.511856252182321
K 6.240999892642266 9.863129 5.41216647106819
K 5.821397734968667 9.863129 12.849829744451414
K 9.863129 12.382126533333809 6.133186673870616
K 12.066181972485355 5.834250161535954 13.153649163945282
K 9.863129 9.863129 10.805168371148882
K 9.863129 15.372169349324448 9.511856252182321
K 13.904860265031326 9.863129 12.849829744451414
K 12.066181972485355 13.892007838464044 13.153649163945282
K 13.48525810735773 9.863129 5.41216647106819
K 7.660076027514642 5.834250161535954 13.153649163945282
K 9.863129 7.34413146666619 6.133186673870616
K 13.221684632506328 12.40691406453834 9.109837004248368
K 13.221684632506328 7.31934393546167 9.109837004248368
K 6.50457336749367 12.406914064538336 9.109837004248368
K 6.50457336749367 7.31934393546167 9.109837004248368
