17
Energy = -12.89312208 eV
K 14.673464802550402 18.8057091650633 15.181253168886382
K 13.233949023419603 13.400496767229242 13.559537632917552
K 15.670010600431544 16.864954355803803 18.90573932817744
K 13.586703270770021 9.162034712330946 15.057679007753942
K 19.252338134341176 14.571538197881969 10.86141417844697
K 9.745881945640555 9.890516372804365 13.107928073557433
K 15.732962710595807 16.970164962687342 11.385135619570606
K 10.817872124058564 13.130138652060161 10.075182049929861
K 13.5977022351648 9.613158755993936 10.731448148005088
K 11.66960474036723 16.076523483074943 17.170569072759925
K 17.854260298513772 15.570139853360262 15.115018634635247
K 10.697870354270542 11.728308304019098 17.218732106710128
K 15.469002144416248 13.144202616470015 9.118912424499694
K 17.0980388817234 11.561352060304397 13.202362160221224
K 15.224671101948447 12.860826973467999 17.317359978095222
K 11.538562864755669 17.231725069483694 12.612194046622433
K 8.759332859467804 14.040437790400702 14.001762461645827
