18
Energy = -13.3408226 eV
K 17.83015211971972 1.82247914992494 13.334620755166663
K 19.042221312744967 13.037516310619015 19.081336797340494
K 19.776963084580554 12.623940982239713 14.598280374329615
K 18.285556672203803 19.801237926901404 16.419399512946228
K 14.109941481280355 19.04268913330838 18.219081133268183
K 19.29901229952422 2.598661498893517 17.500448662147125
K 14.433129740903896 1.1978430162837004 10.694372814431233
K -0.0011572806475202574 16.322686007056696 17.109552398938618
K 16.800874494379162 0.34151383551330194 20.833308070030125
K 17.815727816122205 17.14298641132679 20.164217366322315
K 0.7468166756148577 16.37336748518636 4.502666003831658
K 14.811892163937523 1.823189502931714 16.830085611144778
K -0.04484842351507728 20.095307630453554 19.81301202783204
K 14.820690149291986 19.48159761618769 13.756501913072608
K 16.77557534064002 15.646382311345556 15.713794934909064
K 19.389514500367053 19.305622016814148 2.590601068043399
K 1.0513000331225304 15.967389099474168 0.02670780363228361
K 18.65272899262796 14.523457576947568 2.215886271447863
