18
Energy = -11.03875859 eV
K 13.554132638119246 10.369060698700011 8.832350470104977
K 12.748979687650753 14.800546236024884 8.580066666275858
K 10.217997277225287 12.31967322966711 11.582410681536754
K 16.95749978919161 13.873589379757988 9.565008428897325
K 17.675829865844097 9.91873061482991 11.815456238429611
K 10.09666438818907 16.786409289986445 11.383229568015453
K 13.07329466055204 8.417198809622857 12.96583047653786
K 14.69402082472393 17.211454897459642 11.813791412335368
K 14.36937314034804 12.304139441187328 12.384824425128285
K 17.667482028847925 13.76199640043439 14.555677273668925
K 11.633170451987793 18.832159658967814 15.079074812312967
K 12.842916764034332 14.89966850780081 14.814054102395438
K 16.04297198545341 9.646968262002995 16.007749847404146
K 8.7173300870153 14.861498059174295 15.136866452971262
K 15.640208635274282 17.26801748253639 16.747123036587194
K 11.861588869471122 11.149113643493948 16.49078410076508
K 15.549826299486757 13.188628433256465 18.441953347434335
K 11.577516356974678 15.311950705486547 18.72455240958914
