18
Energy = -13.17433503 eV
K 11.01614586184895 18.66200245072964 11.895202996572353
K 15.376330777384622 17.776537166207685 10.9514322975601
K 16.66132673376212 13.53594229627871 10.243381837237724
K 12.213282938596386 14.490821679874132 10.920752188018433
K 14.295446239419464 19.23287275092765 15.15797017389082
K 19.384313911851308 16.135027167017466 12.493596767750562
K 15.033934497446351 14.84425650053306 14.452670441074158
K 10.766741198845956 16.05341634724256 15.399359829030447
K 18.353865452474206 16.661580919233838 16.71122171717952
K 18.63097854403742 12.166001173564748 14.433565935992192
K 13.93215664990804 16.28258173247155 18.791626417590145
K 16.47858053942511 0.35795572870846204 18.883301156876882
K 9.869286828552026 12.086092464225345 13.706986702332998
K 17.010571134773194 12.817409937423417 18.662770844817736
K 14.23385992342179 10.751290983796695 12.83706547028474
K 15.993929476643869 8.96977701223734 16.479092484493712
K 17.718864128044622 16.468117001301795 1.4476736593927508
K 12.78519236308677 12.138814164667048 17.180816345549143
