18
Energy = -13.58393006 eV
K 4.10798133323906 12.14792706212816 18.940101158065172
K 2.5835143033218744 12.519798420187445 14.749600861927942
K 17.715978131409003 2.05611402016169 -0.006626039350304
K 15.507050728192947 14.356219376040926 11.810096706404801
K 16.254920244884854 2.568284621783205 15.64889346548548
K 15.85985727820261 18.44348708047628 13.662842801582629
K 15.820086785187037 14.421681205060178 16.27124475248459
K 19.699334861783612 18.107364211378755 0.9293528239530391
K 2.050512004386741 15.902263615002868 17.729667316816556
K 16.664532275430652 14.739327759480334 0.7986603249483651
K 18.219143871162075 15.845117107505642 4.8589940951240385
K 19.452797799715636 15.641295513039813 14.004500691989145
K 1.317377212892142 13.995699464029823 2.035256172360044
K 18.065500246161317 11.229464034496687 13.989465421872167
K 19.410614293531946 12.192188813642986 18.1008601637042
K 19.54239549050527 19.534381689168132 16.40739921808254
K 15.552978161736508 18.79919031732149 2.7528573677861985
K 15.505830344316857 18.447828377034906 18.21887326906457
