18
Energy = -13.22618702 eV
K 2.192987092428002 17.01158950325522 12.890286173611175
K 1.0826294499542914 1.701781931643011 15.342500242224062
K 1.0564072778559834 0.763624958512872 0.4008970241691825
K 0.3756001454298034 16.670452599963358 16.929745012380174
K 17.493836534298346 14.127962059341705 13.46242246720324
K 17.51667693153182 18.585382877187087 13.047886564149112
K 16.35346313863723 14.21933968612568 17.854930696478235
K 16.363891133556432 0.48358892542155424 17.546407040609513
K 17.484456797710244 16.931450759542784 1.9743743376526524
K 13.185595569449415 17.161736905352335 0.33331726478798335
K 15.740208420964061 10.38351207261885 15.711169091366724
K 14.507170665469754 13.513193072512268 2.5041158915094486
K 14.495431930465328 2.1375969287368646 13.656926967692433
K 14.310755124541295 16.67804795131951 10.724684503595782
K 13.731100295020617 16.886236854013408 15.190576872927341
K 12.050401312708273 13.217811231835787 17.51781482492674
K 13.13087785937534 12.989455023213608 13.063606733116613
K 11.497423317593364 9.293551255988964 15.10233337112519
