18
Energy = -13.43326457 eV
K 17.88075518226354 15.495790989638676 8.472681005154238
K 15.539304732906249 17.978432372803702 11.546610167971183
K 12.781047786784397 15.272377395012182 14.054543782619994
K 16.574115707961273 13.365561987557477 12.222944065186782
K 13.90579029101559 19.71417132763717 15.558764071337364
K 20.006501142615534 16.615860210362207 12.241443553670678
K 18.378917785225536 20.49070510570068 14.359579943868981
K 16.97045237489536 16.404554386522882 15.517033636710384
K 13.700608907568753 16.03214000785738 18.40718288740905
K 20.115050239918364 13.205090354873676 15.346439903269689
K 13.308307375344786 20.025058845307793 20.180676008848206
K 15.614840984933585 12.251796660666304 16.571999130119753
K 14.93857512653989 12.811843425257532 21.140748635391155
K 21.24907588964624 17.58264776549607 16.57392150329678
K 11.87030645036702 16.202719606263383 0.7935698169756478
K 16.18308028545717 17.0944869121121 0.6780610888922665
K 18.671848019326507 14.796933466436366 19.39450098666203
K 17.564713885756262 19.444683073886264 18.7311623695705
