18
Energy = -13.52630951 eV
K 15.169015614778017 1.6706812014192765 18.693287383991965
K 14.670179530037345 16.30725650820386 0.2836996649189261
K 12.09542201278356 3.2601906976017765 16.220984088636207
K 11.620316414897454 14.580111818788506 16.82864016520449
K 0.9458993077923087 15.469131843768109 13.573782986798943
K 18.796178270642983 14.083160453942847 17.68397419307018
K 13.303541178173775 18.217868694284025 14.934087638071043
K 16.066194649528963 2.8031300416271243 14.419418472218451
K 2.766980322502371 17.492153787052718 17.17247848595985
K 15.525357349120531 14.421718601485242 14.763867414081817
K 14.911612246557704 12.130310447834082 18.525900348948337
K 0.525610767577193 2.5482291115885087 17.46450483674953
K 17.653130890558753 18.08110454848771 15.947694028196846
K 11.094066581052015 18.62244251437826 18.65741784237936
K 16.583583972669306 17.988032690191385 11.923543246922874
K 18.499389728668042 18.110956252090467 1.3515712263923894
K 17.313412338893606 14.027143789016673 2.827954409051226
K 2.576959459796399 15.18658674703709 1.9527639982434497
