19
Energy = -14.6630248 eV
K 18.897126814308674 14.286478507289859 10.65789720502145
K 15.912674181418087 11.158968704090013 11.168657966951756
K 14.511786135952594 15.18046609519177 9.778013810223822
K 1.1105144325128078 16.259578978654215 14.08477668378199
K 18.075282024137216 12.8221203838353 14.77863291055043
K 15.335266912463117 9.472254712661028 15.163607694685627
K 16.87792619692822 17.31483238097679 12.997706539224838
K 11.937052508811089 12.645698328608043 12.34762958851269
K 19.524416866157576 0.1500031728791061 15.547573095633764
K 12.21437238710871 17.693388908273768 12.81411916027666
K 14.138312855474878 14.860763313467086 15.580545713967515
K 11.65567635497432 11.122644731029634 16.576828246768006
K 18.347917121563423 16.241087043168406 17.566267643086128
K 15.160330617566935 19.513578200337445 16.289125722155532
K 9.513961214361565 14.89373963403948 15.21803284655404
K 15.575631436745518 12.350688373026275 18.811083162225454
K 11.162822206723634 18.31201634851292 17.354189154784383
K 14.778841471876222 16.96952071248369 -0.058778850266075405
K 11.449123820276952 14.279358080132646 19.510473563594047
