19
Energy = -14.46075424 eV
K 0.5419973542688763 13.474676900271488 13.228770771137196
K 19.774880306459103 11.188497718668803 17.215743735868536
K 15.704389686795487 8.623314948172194 17.190772964933824
K 17.23418304826497 16.09513404487669 11.968036822704715
K 16.702133009438402 11.92736766122666 14.162841051526172
K 0.9260971673263867 17.927099831990912 13.51221766617739
K 18.695504838202126 15.525280181659426 16.814477507357804
K 13.329368087018391 13.129414456387217 11.367999570435858
K 15.735364183241083 12.745750253851787 18.73729506924303
K 12.443241307684508 11.176884602539928 15.40479090200494
K 17.61456162846166 19.523964705922296 15.692052312535228
K 14.186011004516594 15.563611374086246 15.296554438735507
K 9.907448915290322 14.610206303811582 13.845527599422628
K 11.653756573409547 14.011342486067536 19.049938097026242
K 13.087111267235839 17.5644860208604 11.200469465781968
K 14.92325002774237 17.734068021092593 18.955657784926682
K 10.55986710921343 17.939238347939465 17.50908246618904
K 13.418409684984272 0.01281735436105522 15.08052678029469
K 9.448495664732175 19.00674164127897 13.19453469129065
