19
Energy = -14.66721345 eV
K 16.030047447704693 12.600092635115638 18.540595291570487
K 19.777099297297326 15.17904956492753 19.044463097300124
K 19.414145769890833 11.843749099367038 15.878552499846144
K 12.174631838758067 11.079597335379608 16.95483636948498
K 11.878254142032608 15.145853906908112 18.79589822457167
K 18.477319705715104 12.897433551513993 11.755140655890516
K 8.491167080446102 13.601898789717826 16.305662108632315
K 15.671857045068268 16.998078998652236 18.965506525567854
K 15.517814780766866 10.415218240603398 14.003266287750675
K 18.45767662481343 16.264351651204645 14.920103884275845
K 14.439334673330109 14.607672228025692 14.794666756785636
K 11.103741351062261 12.574894756799042 12.949298326747044
K 18.48393549152766 19.927964964106526 17.451353536990556
K 10.439756147580386 17.327489920548267 15.32517500351159
K 14.457215983281278 12.970636243442287 10.086916149612902
K 14.496321141510826 19.030778462303918 15.135334827860111
K 16.55177101656088 16.889202339295657 10.76865952734032
K 18.12377271103657 0.37674625042262755 13.011029674323224
K 12.260536782689782 16.697576239840956 11.401471351848354
