19
Energy = -14.71364079 eV
K 7.207488323553697 8.17341631125879 13.22313619338662
K 5.050542900336049 12.06010140666603 12.968483538979914
K 13.937671099663952 12.06010140666603 12.968483538979914
K 7.251629051871108 13.584272545999559 9.494107
K 13.937671099663952 12.06010140666603 6.019730461020085
K 11.736584948128892 13.584272545999559 9.494107
K 9.494107 12.133934752642192 5.765041929603213
K 9.494107 9.493482286980246 9.494107
K 9.494107 12.133934752642192 13.223172070396783
K 11.780725676446302 8.17341631125879 13.22313619338662
K 4.832241192779213 9.390053864403203 9.494107
K 9.494107 4.36368563690641 6.0196265701738145
K 11.916047082273046 5.508293120709274 9.494107
K 7.207488323553697 8.17341631125879 5.765077806613378
K 7.072166917726953 5.508293120709274 9.494107
K 11.780725676446302 8.17341631125879 5.765077806613378
K 5.050542900336049 12.06010140666603 6.019730461020085
K 9.494107 4.36368563690641 12.968587429826185
K 14.155972807220786 9.390053864403203 9.494107
