19
Energy = -14.67361845 eV
K 15.126714189405003 15.802904537253633 8.652360673920132
K 10.878275345619846 14.956625339743304 9.798131637689837
K 13.878255936527639 11.378147814809504 9.47538290573413
K 12.975057206322456 18.4370986909141 11.577612679401023
K 17.921373445829598 12.903926770374833 11.032859522294967
K 17.408773896835413 17.23341456709123 12.458428332808671
K 12.825276842437983 7.621514021753665 11.7102084640569
K 14.133924705072166 14.33648560543567 12.692243568632293
K 10.766285796340284 11.531097924114665 12.806215204376796
K 15.549975326258773 10.141490616828598 13.763104428783748
K 13.371081998012071 12.727447596429306 16.756713788920305
K 17.625139875450447 13.579565855568312 15.522698263913632
K 18.79008971053912 17.46259084645685 16.734450195656436
K 9.025708936961166 12.426689325618234 16.76268292864658
K 10.253420887472402 15.888602384740503 14.277628630365216
K 11.897447790799923 8.728871513495141 16.014305113661624
K 14.342355211266296 17.405192117956855 15.808265549499518
K 15.813338530557699 15.196694023790922 19.33175456443142
K 11.213893294535042 16.038029373868298 18.621342473449936
