19
Energy = -14.62725058 eV
K 14.243343776972699 11.025479848278612 8.326277625543094
K 15.139107229696467 14.484024808282634 10.982364255995083
K 18.469994836716715 12.497529464986243 9.507241711132608
K 11.444385294395566 14.554302129787333 8.713721770982122
K 13.474785746663683 18.489547568303717 10.696680642621361
K 11.491219133249356 11.1209265063861 11.753181342535553
K 15.908776324982284 10.031604308236483 12.347883436952097
K 18.5087455589845 13.666646776910321 13.98594161263391
K 11.255413640495608 15.517339852745101 12.951340699286956
K 8.301077508352716 16.688096004212543 15.611010546108735
K 15.653136467656045 17.316187341527286 14.531544791915366
K 9.841503694799028 12.342770941867862 15.948084652144903
K 14.186774469549945 12.983910727771763 14.99060560830232
K 12.748535661590399 8.93543138628448 15.516681165053965
K 11.858415737932836 19.52815254614526 14.784344339639215
K 17.100605871284937 10.363745603984764 16.805727275876784
K 12.382249893915898 16.019972345442188 17.49230118216453
K 16.768522038898478 14.67968165427613 18.02194205172594
K 13.191181570364492 11.722424641072832 19.00089974588727
