19
Energy = -11.14547996 eV
K 16.15441711077543 14.19416898579965 8.802644656508377
K 11.553418846622643 14.575054565675838 8.29689145111188
K 13.75007972713272 17.469844828155715 10.857680082059451
K 17.226185237722945 10.895510387294898 11.907315425766182
K 13.425694789538683 12.964994090697456 11.807921969672725
K 17.30603309708631 15.225226992633909 12.987113886116092
K 9.659410165578931 11.1500276083041 11.011681735682734
K 9.69284735950383 15.51015576397334 12.267631474404123
K 13.122508926604135 8.896160396861832 13.377364248161404
K 15.796631312875089 19.20109751890402 14.62527781071815
K 17.098153293916333 8.173035748646575 15.423293655486821
K 13.185485898443348 15.86691983896868 14.962523565151328
K 15.017553329945047 11.826928445346926 16.045614610827162
K 10.536630898345104 12.1861372816315 15.331127622261643
K 16.778171491619876 15.654845240225038 17.510492120205505
K 19.314811071873464 12.25574873858881 15.600889128200574
K 9.386322423240308 16.332341272000697 16.81193890929905
K 13.242179658288409 18.492718464854324 18.347171585523302
K 12.695488500834315 14.07110697138283 18.96744920279042
