19
Energy = -14.5347163 eV
K 16.457490189920986 12.352866242332055 20.50990578154841
K 12.543072526799559 12.215263519834028 18.110025518095522
K 19.208002817934688 15.882679196627379 19.56071598168506
K 15.979420983814027 9.827047618008415 16.587550834325196
K 16.283107526825447 14.308135625202798 16.19922859556784
K 14.420002677764003 16.279217940321196 19.91796561427717
K 19.921246242575393 12.029283419859231 17.360508303014416
K 18.431404030993484 11.810178687529213 12.975565344734076
K 13.50613223253583 11.971815423647781 13.31379979684819
K 20.50220886860939 15.8275456485956 14.790348071149964
K 12.244166222133762 15.823958310987871 15.649305245579123
K 17.23682715648579 18.495135509425474 16.652075244529655
K 16.584838515669574 15.527213083456305 11.809749328044768
K 12.020109831700742 15.544953980321507 11.171348485342381
K 18.97815680526522 19.37627991198018 12.588423019184077
K 12.982261982304674 -0.7541647039738426 17.328938835480475
K 9.938958529017533 18.853588483210572 13.852353581583646
K 14.403364017848643 19.126960797444596 12.983358570244395
K 16.59799313804743 1.8151296098016438 15.340505000514364
