19
Energy = -11.96666501 eV
K 13.873536015204943 14.748010490549328 8.31980282254264
K 10.173077958310124 12.787809168227973 10.0965933906047
K 10.757503351864402 17.3517432065215 10.597180324823702
K 14.283728400730743 10.654061405011207 10.448367340680004
K 15.169031522805223 18.03785305888154 11.202330999147092
K 17.39945482014235 14.020932882268388 11.123385508438083
K 13.291236853537741 14.39765899152924 12.658191375414143
K 18.493129062922925 9.790871845767576 11.678006629338777
K 9.080932623925332 14.802490532319258 14.039437591046397
K 19.557697811958207 13.02025321449865 14.88218776028543
K 15.627893640506052 11.173624615412658 14.669891689812161
K 11.215261653961754 10.681712958880553 13.949311193781485
K 16.565149489342755 16.242062712650682 15.05667369106976
K 8.805728306676016 11.852928557286722 17.435216192776082
K 12.346628976153749 18.202225024106163 14.769955134677769
K 13.062329638053843 10.173138982286787 18.065837705271065
K 12.403432642079627 14.266666095654191 16.981340218291592
K 16.484602648200507 13.364278564474498 18.379327290917548
K 14.519363598502194 17.541396708551876 18.75668215596084
