19
Energy = -14.80898881 eV
K 14.918107060466367 16.23227844555615 8.546598067147652
K 14.4636570301795 11.502826544059177 8.259856182378739
K 10.710679773205424 13.732905095536761 10.387582996622521
K 18.93259971735077 14.798673138447235 11.026910962600317
K 17.494542976179567 10.290793422450848 11.511850063773315
K 12.185500733312036 17.858541025012975 11.5549212938143
K 14.90578392391405 13.691205615752716 11.83478298821116
K 12.594782178337551 9.752792171900264 12.241268108027962
K 12.237792609618293 18.31681682662317 15.988930949440585
K 15.633813324769273 9.508327574947835 15.545112018409824
K 11.459924107417159 9.860867675717925 16.858406460057942
K 17.843627151314383 13.338074315734264 15.303937316906719
K 16.242402453908383 17.5269579896203 13.6475624297773
K 12.919207308890003 13.755452622384135 15.135931490130448
K 8.825673244816072 11.86089500760388 14.075903543905795
K 8.8441374644016 16.25444144847671 14.074995425108641
K 14.847284968076123 12.180345937070253 19.002007807653644
K 15.594764913709186 16.322318617505648 17.919052864318278
K 10.60499382864123 14.474761294106864 18.343663800221833
