20
Energy = -15.72747855 eV
K 14.94121059698798 12.742581786212005 18.241415564632646
K 16.10120944718449 17.577164192463513 15.843053503683398
K 14.732658688675471 9.156220272422503 11.864335996429148
K 15.336691609790577 17.328531320494704 8.20542335026924
K 12.467128556801198 9.849080600006497 15.61439558843434
K 11.083992897722931 11.806138336980675 11.786957731369284
K 12.024928987832109 16.121486192707984 10.805549920001154
K 14.928566766479332 12.994070975550134 9.523229537300812
K 17.388760016662417 15.959238236419754 11.842875824528033
K 8.492260676741004 15.075581134019266 13.32677228594585
K 8.108618014564227 10.90225349787639 14.884005898841737
K 14.63368433558391 19.461763694496426 12.055371375024693
K 16.99419377711471 9.699324600261118 15.607460188735555
K 17.57025174572187 15.963760555501002 19.64699966376749
K 18.421328132934242 11.572926193566456 11.877023765084383
K 18.549581531268903 13.852748750896994 15.783658876693982
K 10.746659953607082 13.768173220834484 16.90684565850645
K 14.373844976395954 13.656281216193149 13.999731722027933
K 11.76714964753957 17.617430925383434 14.962993348228911
K 13.215944830578364 16.773909487899846 19.10056539068113
