20
Energy = -15.20579226 eV
K 13.208190130189298 15.444726253233437 10.274585850695258
K 15.340712341270635 18.407181284003453 12.541718512349318
K 17.291997579194962 14.567432221625648 11.544207847367991
K 0.33701184273371815 17.761914718656165 13.693664295647583
K 17.204959681429774 1.9644619231929246 15.457366840378107
K 16.19014831887784 10.772589317770667 14.109412047735532
K 11.07141442418623 17.344581553307812 13.672906622408423
K 14.10212653744631 14.518853138238889 14.44273560393546
K 2.2036699956492245 1.253306967264681 16.551233383424083
K 18.58501333132121 13.891315321252373 15.628672892846163
K 13.843358988473376 18.632560400683477 16.672099644449652
K 18.61682760720346 10.116512986221155 17.79701554166694
K 15.039443057579767 12.469904269353544 18.17020951777916
K 11.5347113961191 15.205845670924687 17.89256110385416
K 2.8039698902739514 16.05978193453762 17.10915652545591
K 18.22339097692697 17.80466622254592 17.990328469170468
K 18.8075672818812 13.941121663114282 0.7558126753434604
K 15.651850250177134 1.5145059190816816 0.7196282403644831
K 14.998912676873333 16.19184659583487 1.242651465358008
K 11.621539343975105 18.81370729093987 1.246659225252604
