20
Energy = -15.60715226 eV
K 14.752885450561502 13.442394745513198 8.105866946081102
K 18.85271336002091 14.854673794826423 9.518142128642785
K 11.042802378471716 15.761738097673904 9.958491831506942
K 15.14096527611449 16.106094097390788 11.50516077043122
K 16.92316223572507 11.576857896252172 11.601617323307448
K 12.41413769557633 11.92231742435144 11.515336707936608
K 12.4672596383897 19.460734123123405 12.52733397376512
K 8.306402567785272 12.889737908724099 12.515421985476522
K 18.706877658485865 15.066718370668001 14.042731327708314
K 9.927259048467048 8.63714065472158 13.020467451569825
K 14.192923816987074 9.023126926977762 14.471338103605312
K 14.480912944085256 10.952074289301741 18.6071049392861
K 15.208777212228277 17.76707866108611 15.7189125856893
K 10.795018517449803 11.616124262585572 16.105436609541414
K 11.260001342356707 19.237491950358077 16.94148373086386
K 11.059631208711002 15.766401358610032 14.323945894580433
K 18.191814919091776 10.935283108637718 15.905518887541433
K 14.705705319764325 13.403091614021108 14.992791363403786
K 17.17420484670305 14.645237729389446 18.388628643041216
K 12.652547750116765 15.1916861728792 18.490271983113193
