20
Energy = -15.75722709 eV
K 17.041840873149955 15.197731644201554 10.860470442204672
K 1.5371586212389883 14.78586713632536 13.664441720032642
K 0.6740452844675037 18.933970771849552 12.984402105152649
K 13.616072042560827 17.850249508166186 10.728985416184944
K 15.521351520147617 1.8976457385645629 13.609181376809598
K 13.22382317040301 10.208671421327578 15.541670551237388
K 12.919686857191808 14.010144259778338 12.87747603306313
K 11.866129255669824 18.13483319135983 15.04186101619491
K 16.986790874823342 12.31594536334773 14.660868206197657
K 2.9090740271755036 17.080603022241682 17.027555929989532
K 13.29984351208137 14.332164219578008 17.35759211964729
K 16.170952190422476 16.73658784211159 14.937825285888428
K 1.8071653214662555 12.52828622654343 17.445960184973874
K 18.329026504480982 0.9828798284808942 17.377249379103585
K 16.3102935376789 11.21076297792504 18.90618497886439
K 11.814480207430233 17.804829524720425 0.7143425421112534
K 17.80072290215449 15.536887108189775 18.710782051601768
K 14.031660156997658 2.2092647527915896 17.79860833757324
K 14.416610615447706 14.496719453667527 2.687183652918174
K 15.914530362935222 18.887165352147235 2.2085680135689003
