20
Energy = -15.76858559 eV
K 18.56346891483737 12.570792697730553 11.86462879473007
K 13.709014875191643 13.260664012622556 12.152273457838977
K 12.151588633519268 17.39750181611036 11.221552528368923
K 16.64158068436592 16.676548076150553 12.069508272720592
K 9.420544361881642 14.111289394045366 13.642494388166124
K 1.5230630188602028 15.582264056637548 14.620529410010334
K 16.287881474937084 13.329038280245266 15.577693737278501
K 0.1328296648363697 1.053129450708227 13.814072021726917
K 12.594749030077804 16.333553333960577 15.571156163789908
K 14.431424622983322 1.3573638196584905 14.135783746577614
K 1.137756370595733 11.360421560838908 16.26895493152823
K 16.65231282995247 17.397444890167446 16.687818703467688
K 17.02250428653601 2.889111812230729 17.786764257705887
K 1.423160122413275 18.781256351800877 18.162762245587032
K 12.213481110397607 12.1049875788792 16.74711502193133
K 13.238298577806288 0.38603349555794714 18.85314434895526
K -0.06942757465589909 14.514633555037655 0.3385139512661609
K 16.24968958159093 10.921867201185666 0.3187422469020674
K 14.068079723205924 14.835414238708443 1.0548274490980623
K 16.774483026735552 18.268094356850003 2.2430743014769834
