20
Energy = -15.48077996 eV
K 16.157287132831737 19.127087823454453 9.936820042258523
K 19.490985096464474 16.948290889476993 12.002524763023432
K 18.15966721337538 12.862678619227967 14.009818695302881
K 15.028956716861893 15.979421474994329 13.224877050446995
K 12.52282247801282 19.509124093224553 12.945564062393197
K 11.083130347210735 15.786614388872534 15.656434139402808
K 2.2355179463840753 14.91641542098807 15.377158334455848
K 17.13454088027338 0.7367132783922289 13.944765352349751
K 13.25372080274172 11.777877394303262 14.369409794545389
K 18.11927606741176 16.84796365760959 16.241924499107242
K 14.183632621002928 18.80305291947284 17.07616721748411
K 18.208795820482823 0.9227852211346839 18.369239585599708
K 14.868193826729362 13.93126347502422 17.639188134826703
K 16.528956263423787 9.735662386028986 16.91075481825721
K 1.4566570559140153 17.273172227201556 19.301613622302035
K 19.38814938616204 12.978681223941749 18.429083847158573
K 14.69804195729684 0.3525331661741072 1.4800490580368717
K 12.12953675827059 16.355829063379623 0.3650412570166719
K 16.88082762472366 16.32585198240489 0.7423507286235072
K 19.006812311468988 19.51007854042365 2.8039011818256996
