20
Energy = -15.38075214 eV
K 15.522921257239538 16.39715397685608 12.012985771788303
K 0.6295957650975369 15.573246045963982 12.769802970401521
K 18.30276285990364 0.3792778939909324 11.417392260206036
K 13.044912261746227 13.142976477635344 13.885577312284461
K 11.279365930181145 17.14610918249448 12.745566397403541
K 1.0562321450725778 11.56964640705791 14.885681062093216
K 16.995126948384982 12.222505453430212 11.894358978368478
K 14.527872826556852 1.102249213300654 13.696636085337797
K 18.031324632757155 18.495929055853125 15.557540581540996
K 13.69631133691098 16.95010942651655 16.18245186559119
K 15.92224063256535 9.972839130860264 15.575528305459025
K 15.307166901795693 0.9405248517756316 18.475383065915114
K 17.016538716641207 14.009760212344343 15.739105998558891
K 10.061384195916677 14.908506646977239 16.728957805031627
K 0.22880722599569667 19.168393549814606 0.4291206823853215
K 12.651120358727338 16.702830660029147 1.0856080856460135
K 1.4914812464301703 15.464937377471225 17.296385421175867
K 13.665421754483882 12.86643223586026 18.254837712267285
K 16.820234663974055 15.815630876279442 0.30841732254852744
K 15.997972491841152 18.641739654966724 3.307456468219598
