20
Energy = -14.35004185 eV
K 14.588159146502171 15.580614886732485 11.411141652072148
K 18.302299674934904 18.14220630209167 11.468989841285053
K 18.721196801888162 13.748423293058147 10.803402328891007
K 10.988216773025957 17.473477089367606 13.359301085761384
K 11.302184672774567 12.869932331033331 12.673995963279594
K 14.977003128494069 0.04301905013527238 14.25695612773088
K 15.498145909319707 11.657527431340183 13.348762479990333
K 2.6945631058281427 16.134748234960263 13.588868859814562
K 17.730722543363342 15.166861068734415 14.548531500854871
K 13.409099449256628 14.862133858023984 15.680618135967736
K 1.37371416431594 15.147202308531483 17.89241017403234
K 16.783686043461454 12.32072908443305 17.725206555569326
K 16.430055545685946 17.022046903508233 18.24350814000998
K 15.621714194458944 2.253776956635727 17.93051795520725
K 12.79719042052907 10.812588545156817 16.778610571109827
K 12.16988636997453 18.55118581729722 17.593709841385866
K 0.20719385228088563 0.21398427152673477 15.693609549547078
K 13.459970877127576 14.203807718849458 0.9369914744304738
K 17.621562594610896 14.408140162660617 2.4479862851495304
K 14.197904942910478 18.26206489666709 2.4913516886545395
