20
Energy = -15.94751646 eV
K 13.881576506147264 16.79120919977251 11.133786239038855
K 17.910781446578735 -0.01084867943757572 11.253486750596343
K 17.904770737822272 14.421678233611786 11.875311667873138
K 14.17094019230543 1.7938133853341955 13.378537162686802
K 14.054434789124063 13.288283925052516 14.123498232742303
K 1.7223707577819583 17.200406175871656 14.518163763057775
K 11.852748894962053 17.219370139827696 15.281068848626186
K 16.387551720541648 17.184110029343096 14.949547856509312
K 18.715161291008606 13.455995868688984 16.357553008299135
K 17.14072410011017 10.077296691321543 13.752966647947474
K 15.27650349503316 11.044946236772711 17.900150301948784
K 18.295562646226642 2.181744736137692 15.487410948916443
K 3.3459100490195635 15.261723315983463 18.348971109169575
K 11.055328917251469 13.360797150815607 17.549233976945114
K 14.565207222457467 0.9933843789754893 17.95695703902058
K 18.365079836656196 14.137635601086002 1.6891432169605813
K 11.361395701290755 17.50191450199335 0.784985141357898
K 14.885713476059776 15.349182497838127 18.437806476018405
K 18.967543282417452 18.204777915042808 18.74035897923204
K 15.647812839839428 17.91232832190803 2.9194963973400054
