20
Energy = -15.61102854 eV
K 13.32854434306674 16.985974732382015 11.628132130463733
K 17.38408528771958 17.979004552851883 10.716602477277249
K 1.093051629048492 15.832391002951049 13.417281502801123
K 16.362386613729452 13.726486352969452 12.3452789142482
K -0.09264883539824673 0.7765298916904649 14.246261474794197
K 12.529071038390482 14.046211343108137 14.93072729863539
K 14.849509506211788 1.6571579603334545 14.093094255173906
K 11.485798055406427 18.370333458950668 15.46470825681774
K 15.012898187579864 10.455480797570548 15.56426246445516
K 16.017564577125974 16.864120712984597 15.957220127161676
K 18.78723876594673 12.90745411150621 16.22266705130162
K 17.488457324757473 1.9648804974600738 18.221967578825307
K 0.841830402086207 17.582319376150977 17.85912538001733
K 3.773029496595574 14.331309674019153 17.123086129122026
K 11.44975358138064 11.593407519839666 18.399042667869853
K 12.19311702152286 16.13152766229753 19.247032481451285
K 15.570656033362596 13.346732913011687 19.08573202724485
K 13.330644987656786 1.2730655905178947 18.881130967940678
K 0.4922178945487038 14.159370181101536 1.2450447775575946
K 16.420965878209266 17.595418630395695 1.4527893452230038
