21
Energy = -16.3899718 eV
K 13.319593430996266 14.350489194991846 10.423270952477894
K 16.101900492162013 10.70038805360421 10.43882296157396
K 11.349177986173707 18.129442388227712 12.555883265875726
K 17.96642134358052 14.757269063709051 10.20746991868929
K 12.546527881210281 10.761171808860071 13.486245254993127
K 15.804198809059184 17.53323187935654 12.933396955375745
K 14.366643746715651 21.614154401483496 13.448533350350655
K 9.331182599245095 13.939341293328852 12.675904812098741
K 16.295713248492316 13.258052342380648 14.101266822238046
K 20.09925101919641 11.598002190642003 12.918336324694645
K 19.689408742989013 15.905772945655723 14.723800058334978
K 16.55770006025352 8.98883333556977 14.836544197952465
K 12.819024279713437 14.902522900087158 15.274087730523922
K 17.670787191714975 19.74483555800875 16.305140363621582
K 18.94610833055169 11.999080579091968 17.513507667254462
K 13.258179774223755 18.872239762967503 16.874561507179603
K 9.021937505158668 16.650971683665215 16.469274723722158
K 9.910881670364567 12.075646642556443 17.029143868682322
K 16.485273524735355 15.780764136525882 18.16726914009302
K 14.404868087969577 11.489415089462488 18.091621629450128
K 12.199708631913209 15.092863106242925 19.670406851236102
