21
Energy = -15.43178939 eV
K 9.136896 9.136896 9.136896
K 9.136896 6.839637167315602 13.127769873085565
K 9.136896 11.4341548326844 13.127769873085565
K 9.136896 11.4341548326844 5.146022126914435
K 9.136896 6.839637167315602 5.146022126914435
K 5.274475115021452 9.136896 11.45822355988381
K 12.99931688497855 9.136896 11.45822355988381
K 5.274475115021452 9.136896 6.8155684401161905
K 12.99931688497855 9.136896 6.8155684401161905
K 6.652337875751285 12.942700947968886 9.136896
K 6.652337875751285 5.331091052031113 9.136896
K 11.621454124248714 12.942700947968886 9.136896
K 11.621454124248714 5.331091052031113 9.136896
K 5.011671059149421 5.082477595752381 4.987338267274244
K 13.262120940850577 5.082477595752381 4.987338267274244
K 5.011671059149421 13.19131440424762 13.286453732725757
K 13.262120940850577 13.19131440424762 13.286453732725757
K 5.011671059149421 13.19131440424762 4.987338267274244
K 13.262120940850577 13.19131440424762 4.987338267274244
K 5.011671059149421 5.082477595752381 13.286453732725757
K 13.262120940850577 5.082477595752381 13.286453732725757
