21
Energy = -16.04374359 eV
K 19.440815259550156 14.195773918198094 11.073570277456382
K 18.745711790476925 14.401311880683942 15.639428509857849
K 0.29046155001281054 14.953215264472679 0.3587471213216303
K 18.915795960904425 10.402342997093113 13.489062635680042
K 17.045844238376176 17.48993463588837 12.887458052050313
K 16.709755705579838 17.862361931914116 18.141746420247898
K 19.272887009733356 10.755899005477268 18.062566357604517
K 15.643616300744737 15.845213849912206 8.80506336208807
K 15.307319000117776 12.756457581536031 12.008718187025652
K 15.875828462757314 13.363934363404695 19.487171491385737
K 12.736926730822717 0.7486972487924395 18.755571921122364
K 14.182878475122196 15.155804415037663 15.663449209286117
K 14.333186214694711 0.3860360574391665 10.191124219355146
K 12.575100814222022 16.32034692299461 0.3297926079078903
K 13.49640832688113 4.920169199357757E-4 14.642072779620886
K 11.316077214621169 12.555550222919802 18.01864364709939
K 11.784111269552456 13.133824346795887 9.043078727896495
K 15.025647335265216 10.572174581476911 15.970266269452864
K 12.041364054285749 16.562257521466684 11.778778244189688
K 10.938738447197478 12.559187738538489 13.583094678371282
K 10.045671026993963 16.724692660294064 16.079293489917937
