21
Energy = -15.69691849 eV
K 0.1906596331356275 14.467987400023151 19.420851713498674
K 0.7996695781989817 15.99837688505244 15.66221454861483
K 18.009475718249362 12.762133954265073 16.514542065606122
K 1.2096354663913331 17.490850326392994 11.71920649591461
K 16.700477161010152 13.711508720752622 0.30288810515227654
K 17.620342127187662 17.29825168841492 18.210955302998837
K 18.406108160123466 14.387550525721823 12.597422887035657
K 13.8880807754032 12.10706650000096 17.563549641506814
K 15.169671417249434 11.711528127249457 13.508104347259309
K 17.662244789062022 17.75370645744081 10.0159098467327
K 12.63792386227735 13.012486652102693 1.2230996480988918
K 18.010590149324685 18.729443638999328 14.2022657948102
K 14.49948323119409 14.791778626290899 10.423925160945386
K 14.644977301452066 15.706881943009163 14.84172170788824
K 13.50598117667329 16.49836762675744 19.197805260708016
K 14.109588292494962 19.226792552769073 12.074895652722272
K 14.491502509446452 19.624707591115058 16.469761442472038
K 10.980032041544582 12.97040580877226 14.404727261651377
K 9.797300883573662 13.897528250885806 18.571164590634027
K 10.985374243975416 16.42178906790454 12.044960027989582
K 10.600790540472287 17.492803123536547 16.076019954222627
