21
Energy = -15.45517311 eV
K 16.50242327248441 9.92231341363622 16.17483623230144
K 18.50135885676167 13.656175381368566 17.82127158297217
K 14.209238318226163 12.471151352223952 19.098106129813168
K 12.549750917172318 11.740909112357118 14.667105603066663
K 9.899553043077322 13.547694752800146 17.65054603753178
K 15.807163092497431 10.329424864794213 11.742032334465843
K 11.680762447702675 16.123320995275975 0.8476108865608665
K 19.842641707227017 11.90915839699833 13.691831350538864
K 16.147438748261912 16.852139254961834 0.007886140304512177
K 16.200738020789377 14.192587227199466 13.785304134592273
K 0.028987472772704862 16.52732651126856 14.29537784000638
K 19.229203100705664 14.64835076619516 10.100157966007373
K 14.94292879724409 14.003301051905616 9.25134584558773
K 9.552489961110018 17.48465256880866 15.487086896732606
K 0.4010461411418659 17.862002189580494 18.5623398127283
K 12.857897753579019 19.75367091758173 18.161910377317106
K 16.19138356007951 17.99164943932777 11.398253483976557
K 13.615749842844773 15.959128194974575 16.364931053823526
K 12.112588391664914 15.769010703288508 12.150345839577929
K 16.830344087481503 19.27291490824335 15.80956662820238
K 12.86719693958097 0.15702178430741556 13.609736124022302
