21
Energy = -15.93972125 eV
K 0.7669959255363317 14.351136593303826 18.24634029299335
K 19.55361416703996 14.238805080656865 14.128640156396957
K 17.98887082960743 14.336859158750219 10.120780306097615
K 18.963884391289255 17.78629734615162 16.61979794633586
K 17.55695477258874 17.92258378356779 12.447376508707437
K 17.082122517852927 1.1709836419381283 15.097197505282605
K 17.000379354478966 15.330425638257395 19.729835728044414
K 17.53966664629472 11.84004528956208 17.09272482623557
K 16.226439286948175 11.555081252264205 12.94428899626123
K 14.412072168795572 11.87648429876244 9.09839976536851
K 14.973778340593121 15.147129860304164 15.63576207368553
K 13.972018102545073 12.051888899206755 19.48367224237247
K 13.689432076653475 9.913637858641533 15.886083489779848
K 11.74918078083521 11.93215932954236 12.393517992419763
K 14.968001227125107 19.035206982786207 18.05963598058882
K 13.985596607817163 15.614957767206143 11.132978443829087
K 12.69193756648556 15.947086980573296 0.1410666521026998
K 13.61743240189811 18.98922844882992 13.870221502624535
K 10.29583073192384 16.094859455606045 13.128660153435895
K 11.056020400018658 13.36039685266616 16.46300598523304
K 10.884510180375168 17.730737347994253 16.941376035274907
