21
Energy = -15.68528049 eV
K 14.018330329370375 12.850423631048649 9.627630906040906
K 18.017953077121287 14.953307912358865 10.491456675759512
K 14.186811795064337 17.381931536458847 9.731575358482598
K 16.86213114343223 11.207174020710218 12.899813922718257
K 12.550753751464741 18.805244493554085 13.825786282181287
K 10.638228411555009 15.191341677907879 11.69683014716949
K 12.253284615562706 11.368058895616677 13.655315490230716
K 14.694735193549507 15.00757035405976 13.318097325259941
K 17.134415335816765 18.657641360183995 13.057227603206394
K 19.142054818713223 14.81314430596392 14.782196635942777
K 15.412047006108361 21.44990184079435 16.211220314480478
K 10.950910831656085 15.097079453846613 16.133101848424545
K 14.867411265694255 8.40918256325487 15.911735039989523
K 19.414912886316724 18.690979949584367 16.93706451771838
K 15.37594310967613 17.152802211444765 16.953168872176235
K 19.134319759566395 10.856183783944706 16.787404751066013
K 15.200403307799041 12.651164335817183 16.8616964997228
K 11.655928659715945 18.944292736782252 18.24649848633561
K 11.339525512905482 11.11769384291448 18.05869649099155
K 18.185374536151315 14.756898666285867 19.142204233721127
K 13.243156046281017 14.916613820987905 19.949909991903453
