21
Energy = -16.45408945 eV
K 15.578148616556996 13.097927850781382 9.61092289247984
K 11.07882099763877 14.741083088912738 9.801764445160165
K 14.754396957432238 17.749902758419964 9.200160529576387
K 19.751322074733324 11.87098593684422 10.868017507923096
K 18.406853230804252 16.203919463472133 11.893384593246934
K 12.533648802094568 11.356948356182425 12.536294407662101
K 11.28462752484558 18.853289776927177 12.013516857696791
K 14.107358429118113 15.59010518450706 12.984588712370131
K 16.242935796300156 9.019855097579164 11.801273526495883
K 8.171510355889115 11.788888307644369 11.850257776480756
K 9.672021689850535 15.180370112186976 14.263130920829186
K 15.717058554188995 19.783746353556186 13.332724842015448
K 17.183211192449964 12.528995072156876 14.376353738748655
K 9.91767628051018 10.95025402538451 16.212998052743
K 12.632531052485524 18.170245133077575 16.487583170738176
K 14.412295352113144 9.355433591523767 16.22304568571787
K 13.257202649066663 13.6756885705361 16.64365413740443
K 16.966842310176673 16.602804754288538 16.544457122483323
K 16.986061204949497 12.480994952851646 18.80886250197686
K 12.900375803206527 11.067569403925347 20.202144489426463
K 14.372623230382866 15.85851431403505 20.272386193618043
