21
Energy = -16.27438008 eV
K 13.571537403167591 16.918525087987533 11.354315179472653
K 13.548868273234795 12.468632761131087 12.243119232649896
K 17.97299867069978 17.23801395697793 10.330140397446137
K 12.034153846092467 18.757152207589698 15.600310582174354
K 14.320715155540778 1.7934837028251993 17.2553588837493
K 15.767073831213187 13.906287130498525 8.64675929654436
K 10.195708426360852 15.004599992730455 13.868263625410146
K 19.897553448431502 16.89438280659897 14.274870083968178
K 16.12072792023895 19.88026742609997 13.5983471900192
K 18.00032739133507 13.187188762778948 12.536403229098028
K 2.1009936034030607 16.905222217735552 17.980452208463866
K 15.47318054892533 15.759482646448989 15.45372577349587
K 11.738687526365748 14.577909988770598 17.999669248744247
K 14.45724759910291 17.9906519970704 19.399661412028646
K 15.430572341337284 11.2729390408809 16.108837826841054
K 18.28491899987232 19.411757244363713 17.50678618765506
K 10.902609143623748 10.895941997512784 15.458648268809808
K 15.736613778956645 13.553771567963654 19.868305818182467
K 18.765058706141584 16.452618665646458 0.35043429233760315
K 12.730969237758911 10.212748163241788 19.477444251790715
K 19.429689224758995 13.547769057145937 17.16664069802383
