22
Energy = -17.19838005 eV
K 6.81068984537871 8.650081369847186 10.717436
K 10.718004114046458 10.232780253090565 12.796488769839742
K 10.719113327346644 10.35927653701262 4.2166574369252565
K 10.71516859787385 6.124340195107504 10.717436
K 8.385216828832133 7.073526161588605 6.631028319530409
K 8.385216828832133 7.073526161588605 14.80384368046959
K 13.048988378955832 7.066943119411239 6.637167166730446
K 13.048988378955832 7.066943119411239 14.79770483326955
K 14.584585096789032 11.432154846372974 14.600915663600288
K 10.718865238461422 14.275333902388297 14.543155307054796
K 6.849555658428857 11.43257968071723 14.599503843228572
K 13.202773276826528 13.560731666716642 10.717436
K 8.23004544920346 13.56242488033884 10.717436
K 10.718004114046458 10.232780253090565 8.638383230160262
K 6.849555658428857 11.43257968071723 6.835368156771122
K 14.626120419963053 8.656512127570954 10.717436
K 10.718865238461422 14.275333902388297 6.891716692945205
K 14.584585096789032 11.432154846372974 6.833956336399709
K 10.716858028454755 17.214191466681857 10.717436
K 17.359351214365965 12.139965380358435 10.717436
K 4.073927324569151 12.130155354571727 10.717436
K 10.719113327346644 10.35927653701262 17.218214563074742
