22
Energy = -12.71011569 eV
K 13.332912270557792 12.155627188926566 8.34000067198521
K 13.938810932314263 16.69063837116689 9.422791232876063
K 17.307866093131732 9.975208338677039 9.51671325790931
K 20.10866843639255 12.763031837057138 12.072711869338427
K 18.26401446965736 17.05733548169624 11.80287495210987
K 15.89069769759743 13.478898612025745 11.545917272856217
K 10.593868069672963 18.455315159735274 12.266720200246
K 11.057470524802829 14.072167055134278 11.700308728073866
K 13.15404798708071 10.009798209144588 12.254012714635044
K 14.37074651182964 17.030055178365043 13.731196363105798
K 17.17685597605487 10.351260122198978 14.466948910727302
K 13.851614304220348 13.126495793399943 15.300393926988662
K 13.355822941471088 9.149195161509931 16.81917984466278
K 12.5921010040449 19.87815266541397 16.537240980260716
K 9.833747574861949 11.487882628874903 15.102260013126955
K 10.533487572581018 15.958598737255207 16.031294751282857
K 14.65744629338119 16.307671119793437 18.259811451640285
K 18.21512906896874 14.692194817072522 15.64646856980895
K 17.404323856687732 19.056927226941575 15.993430022804514
K 16.37222612373089 12.02259708289625 18.673080657189164
K 11.806374265157935 12.896150364870035 19.104856713319464
K 10.854170833254605 18.05720165529635 20.084189702505398
