22
Energy = -12.50793872 eV
K 18.455008099227026 12.000749771371144 13.705059240794336
K 17.282420502023236 16.301514942018414 12.053149947700312
K 17.77623843569634 15.307614939708303 16.629012711313926
K 15.117950103269406 12.727178637084009 10.628904367149909
K 12.800064413764096 16.66052359816772 11.588737350433048
K 14.687225497661588 9.475263657023204 14.082447581011508
K 16.541606244792877 18.79664506277361 19.286590525524392
K 15.246143483992462 20.450232797531566 12.028095594301277
K 17.86860669779604 14.695679445161556 20.89082744006218
K 14.270515398488229 13.690915964385846 14.617924087353947
K 14.615132009226988 22.14693931208537 16.318218147681208
K 18.553734550343545 19.498718779283234 15.145393268355022
K 18.388026639371095 7.881689996700162 15.636497313355394
K 14.573821544871631 17.889122961114854 15.521927834277719
K 10.632106156473748 15.83521541093747 15.999881756225097
K 11.195070076629609 20.27782092348136 14.24464005629709
K 21.223404848023577 15.905603963654846 14.07026762812716
K 13.828900709635414 15.04969866344154 19.124930098933945
K 16.425843058715778 11.299620944704246 17.9564842958293
K 20.85637440408863 17.46185886961256 18.529889651905844
K 11.854292498756553 11.572735605605365 17.345657683943877
K 11.964360951030889 19.231502078031326 18.752309743302266
