22
Energy = -16.0081315 eV
K 18.286679724412917 11.96959474409256 18.902938108602903
K 18.710377417340354 9.214015482282532 15.47140027158118
K 19.79956253458827 15.913984340110407 18.358725685548904
K 14.272122394083906 12.671493319973315 20.275483272469703
K 14.973147020529622 11.226390816005894 16.18214240383374
K 18.92798248382131 13.347369675428963 14.801913521639804
K 15.604454038262613 15.704339817993159 17.548304823462896
K 18.14519982497553 19.79745226708392 17.794182648131944
K 11.768783275992774 16.01335941050944 20.210208079843273
K 16.466707251341283 10.945659233363346 12.097029698393822
K 11.43215420323547 13.326533157590562 16.808775280828506
K 14.536256035081372 15.120906585769637 13.509653493306207
K 18.502849449945757 0.8136311285067485 13.736265516826801
K 18.929509732496488 17.357993177768744 14.216980344955296
K 14.15141021811325 19.32654813145142 19.326390964430665
K 12.256469371938099 11.548621539930352 12.753991645597763
K 17.773922242812926 14.78903927079294 10.745238052089334
K 11.369070312966182 17.6479997322399 16.198058562046786
K 9.923924009933353 14.988206207869146 13.073131956975981
K 14.84095659485912 19.59549674350431 14.992738230548218
K 12.15088226167099 18.27867619589126 11.800961700744764
K 16.340777229482857 18.807449986680904 10.985608774974391
