22
Energy = -17.05075134 eV
K 17.77673036319468 14.942753174186192 0.6770561670039027
K 19.682101648064364 17.06092859030303 17.07284879753653
K 15.213773320458683 12.091664016667137 18.3593707511635
K 17.421021112413694 10.944308647577403 13.762529625569584
K 13.14504311592259 14.820152523579189 1.304970969539717
K 19.81140222962255 12.578006136698404 17.401023770114257
K 15.21062939802808 17.987568492358974 18.88299891638809
K 0.6882096060527788 14.109715372473632 13.385892905767209
K 17.427933899168288 0.789526054800303 16.286912226046503
K 10.571922391808643 11.866340524193479 18.890654842497096
K 12.762044142589454 11.440346617020596 14.745422441580946
K 18.50847029452116 18.20367562003714 12.764126747459466
K 14.300735098234918 11.129947295776944 10.386893934839236
K 11.890061492392112 15.579132151967864 17.007003117796945
K 16.190036262131173 15.097305057504979 15.200802256893105
K 9.950481742452439 11.507471061748717 10.928354408707058
K 13.71507251749417 18.915006993792208 14.470158968258703
K 15.933145367366137 2.059441649454581 12.237013009853317
K 17.08417690400823 14.445041020515289 10.746315003510507
K 8.586996783019877 13.335453194157461 14.820279198875932
K 14.846418219960844 18.239811037011126 10.056304994194038
K 12.55714788732672 15.039162388968874 12.242645458557051
