22
Energy = -17.01213759 eV
K 12.931484527881546 9.043236788050969 17.843872104187188
K 15.156341872428433 12.558701625069123 19.716747489749025
K 10.985183280631686 13.148022801884933 18.194999011511896
K 17.29429876863878 16.327074380815702 0.4020830211246759
K 16.390467499634198 10.535901820910288 15.617482580004344
K 12.672145816237155 16.633460483955982 20.43656165673512
K 12.182807097850791 11.408590285663335 14.085893126417567
K 18.280683330752993 14.436309866806733 16.91030154922761
K 20.360182610671615 12.165214568555482 13.52431592298612
K 14.027397949456835 15.452186590084839 16.008549907337894
K 19.742618146903535 18.603141333650242 17.762176740865
K 9.603704433375617 15.21034087982325 14.396694575638943
K 1.1517057062300704 16.296528619069072 14.437219503666958
K 15.391115086496766 19.35110662791479 18.190837407926928
K 11.059670264692782 18.884795136342067 16.718659827772875
K 12.515000251102359 18.111190355986583 12.487471617760963
K 19.71536219524464 15.476471217151767 10.339141225124564
K 16.06094910513453 13.626996028988703 12.49587441541742
K 11.90097886303959 14.113620116108157 10.579718787429428
K 17.26095865914974 17.84756578309091 13.766929224080673
K 14.441743777011963 0.9859679517587241 14.4563546808503
K 15.546984457791154 16.75811968511516 9.454566426150214
