22
Energy = -17.11479144 eV
K 12.378487595450585 10.912409205966318 8.69160378970755
K 17.163189808358414 15.744126963718138 11.709543558614163
K 12.732090046490182 14.329950820677036 11.73637404264323
K 16.02921794211349 11.427154467825282 10.804592795750384
K 17.594661102619092 19.591534532716732 13.933121955437004
K 10.399983630818511 17.550795037725617 14.090647981692383
K 13.866530514082793 18.812388965677908 11.378608203144761
K 19.79425172982857 12.684277618960714 13.592443451755976
K 12.407245856873603 10.2417468708675 13.371472762581153
K 15.717647467446971 12.68749827858622 14.956689763536705
K 21.1921490426017 17.01889057193901 12.865197672424385
K 14.507945760590099 16.701502659613666 15.201802996829324
K 13.267249796772683 20.831586965965087 15.409830294363404
K 18.783560970320906 15.984048551708286 16.385637267791154
K 11.465882699656037 13.639526565254048 16.154088408644593
K 18.261723464166995 12.118648771141503 18.467131531404764
K 13.884184034602116 10.286491792258563 17.849185626297363
K 16.30419618860487 19.134419659718713 18.416513477512105
K 11.883644070510801 17.676904708644518 18.55945152422531
K 14.782960954018936 14.525993787093162 19.27241320274427
K 18.6350099370964 16.22403765180428 20.813317806990806
K 14.940906305406783 17.868784470568404 22.333050804341106
