23
Energy = -17.67366269 eV
K 1.8659494342893312 14.24567989215969 19.523170954158704
K 0.3566620811995172 13.46790998235532 15.550137750179303
K 20.42599385445849 17.797464869981702 17.03316338238486
K 20.032669548185606 17.42104413095192 0.7458639646446417
K 20.033728264036718 16.705511662254747 12.62724471262122
K 18.01172136243456 14.44052480226503 18.938737738215373
K 17.436857658856116 20.491782913385016 14.776655847319635
K 17.063550993312486 11.687379000732118 15.384318678048121
K 16.51924320030196 18.922769243773693 19.131779429418536
K 16.49339147276618 18.553027890217184 10.751861104666594
K 16.159754415223933 16.337072202966922 15.215731031892279
K 15.21481110390743 9.853264238795441 11.877487035505103
K 13.722973871140825 0.8749207434241153 12.624127254454429
K 14.792694510717544 11.300588133247937 19.269273407526835
K 12.984731779495196 19.65770142678195 16.589617311814525
K 16.698542673818025 14.06841552937764 11.198506075335553
K 13.005066983946861 8.918671984654605 15.965593503471252
K 13.373333027661099 15.625078384320407 18.920559281006078
K 12.62896546352016 17.211461699710874 12.586833004270188
K 10.543161445526836 12.232913727470272 18.171289308043267
K 9.295528263110587 20.041303223966665 13.710515140851562
K 12.980776167536456 13.196104769738408 14.49155278364224
K 9.891928652181434 16.31151354636092 16.13366761214767
