23
Energy = -18.00375781 eV
K 16.14773338826445 13.633736793250598 9.774599979639802
K 15.384419867807377 18.06852860407944 10.772660172877709
K 11.150294265669183 19.20920472603471 11.10790232294904
K 19.663449711248333 16.15207997160992 11.869221809661896
K 12.146517381744031 14.71295157238562 11.936790277592348
K 14.135657481025959 21.640833724483212 13.620936690866804
K 14.487489882164736 10.872067817043353 13.300491542292361
K 18.97036154869868 11.768186401690413 13.203695204789168
K 15.997953542614349 14.991670708820125 14.003249235390765
K 21.98606144948365 18.666828808983137 15.051810978992883
K 12.61841582243361 17.841000389726226 15.173347030530827
K 17.599856781016065 19.156928341758235 14.711802385096322
K 15.987166090035343 16.11231664087587 17.988826310225317
K 20.083212344596518 14.873359568523735 16.322361684545054
K 12.549479475472564 13.408584709378397 16.676852464205652
K 16.77923408042512 11.69004837873189 17.343125664358556
K 12.017510290741642 16.99615511323804 19.65490566761946
K 14.967921838167962 20.410150943081252 18.18997643550585
K 18.960971777373427 14.26836106767004 20.828574233808705
K 19.39848460237263 18.694352246828664 18.957279443554924
K 14.483186761793196 13.30033351174553 21.125416682433237
K 15.945136700201815 17.732656276627033 22.16281074748562
K 17.179464186042473 14.439642952827825 24.86334230497063
