23
Energy = -17.71620934 eV
K 20.734770294417544 12.628977554388786 17.077130869335193
K 15.579851606430639 16.416059701861368 0.9323631737985837
K 18.612622929384802 16.71657486144253 18.48089788198645
K 16.729469014439587 12.669563773995517 19.14132146785069
K 17.601902436661735 9.27878911013353 16.32052369589781
K 0.3752129484175497 16.42852062758157 14.906460819828073
K 13.573674635064807 15.613145550785493 17.786626730826228
K 13.362442591415206 11.319537918681041 16.332516350380438
K 1.0599369340946643 19.64558886046827 11.891434075955248
K 12.59142263758259 12.573485188203762 0.029230087438511305
K 17.082112561602536 13.363735331632435 14.450415673439254
K 19.288152539899922 20.42735617816502 15.60810817907865
K 17.457304840614665 19.634846155335012 11.11716976375944
K 16.049259156356488 17.42841773480181 14.605327717200517
K 15.580987581138814 20.033858979380515 18.755419761219784
K 9.251671083843938 11.701158744928387 18.185622689079764
K 19.607030680140628 15.558317314759666 11.107481835628503
K 12.231054461390253 14.83168473339039 13.441607633774534
K 9.0718733381355 15.587897736178057 16.356242644855165
K 15.01784023628193 0.9500172684642805 14.492187481575316
K 12.78980916792614 18.88962189679538 11.54614949468774
K 11.764242488737962 19.194979451808216 15.987474657224848
K 15.273469406911897 15.284678145920124 10.348033664215455
