23
Energy = -18.03299993 eV
K 14.720740976139592 18.69322115056468 15.574195353455515
K 17.40472620543901 15.33124567506177 16.874521519841974
K 18.403081334541938 12.12864704016736 10.276123254878726
K 12.637535127584712 10.158656135449903 14.277433812563046
K 12.83268267528069 17.275333788775292 11.74845744494298
K 10.509398864881726 13.102464543396755 17.452285495528653
K 16.932626870991356 11.476350001318746 14.291765317298687
K 16.328343273233056 20.47396541650153 12.089647865804908
K 9.99331798506036 13.904319481895831 13.019183315691109
K 19.167367022139583 18.838098236257423 15.153455600845316
K 17.048137686412208 16.01000145160878 12.176270915714197
K 15.589746240326741 8.552332489818927 11.212684384956779
K 10.535176246783582 17.470636353829175 15.92936590931552
K 14.065664074035256 12.812584299708742 10.91225139550403
K 13.706385017996231 14.47834337969628 14.961067758322905
K 20.50092630926548 14.227036047169902 14.071473710713772
K 19.363725862374725 11.786692228376973 18.077582664132432
K 16.57062956406516 22.477708121013066 16.619836190036956
K 13.033184592429471 20.886325111839657 18.946995432054436
K 13.405505683937593 16.212132946039084 19.214714647846986
K 14.772921515946626 11.860791415357847 18.335037056455192
K 17.12141604685527 14.520111352417157 21.10456958598488
K 17.029092024021057 18.995334533477056 19.353412567852775
