23
Energy = -17.75405242 eV
K 18.828133350802343 12.450300951561587 10.707909283288753
K 17.761479801847738 9.805013444630024 14.312649997054384
K 17.366972576497066 8.08040590720512 18.47841566892468
K 14.700865163490349 12.985594565208928 12.577183836306428
K 15.226337524675062 12.051208952143055 16.974008235388673
K 18.87186696396066 14.23392151367294 14.715177315460064
K 19.934579913752756 11.668109392944267 18.34717322372042
K 17.678541260035082 16.891149110474338 11.134441193540292
K 13.194567516561483 17.01977018012228 10.996646648981864
K 15.063897401090548 16.59968500208762 15.087175280794591
K 11.389221926162659 14.323276123773073 16.23967493529518
K 13.584468708656058 13.334594357101636 0.3562495306420911
K 9.406631026191267 16.95670873109846 13.196412500254915
K 19.309278758828277 18.791146371724885 15.016273451923771
K 1.5067261529620208 15.823998608957007 17.738677587214895
K 17.383042716311667 15.62338905523569 18.78731617212986
K 19.97498751320842 19.561647602229957 19.35775620087713
K 12.799828291286063 17.297517028018177 19.221333539234962
K 10.967674971387895 0.6809561603047951 11.63283113235799
K 15.38760886639142 0.27375757048409904 12.871180763372816
K 15.862541933898774 -0.0589557824434454 17.62576400078847
K 11.752736575547132 19.605948095581343 15.655726597227437
K 16.218962110507704 18.436862011950236 1.4956065077838063
