23
Energy = -17.82132768 eV
K 18.10339771205003 8.111473009289242 15.886254233942049
K 19.563946093923327 11.803365573431769 13.687182922971408
K 0.38050110577290747 15.699381964196586 11.815250979182254
K 17.94456547812113 12.001660604312663 17.92834218371679
K 19.042837714396338 15.847617633877991 15.907898897806671
K 18.458252571384534 15.54807862455443 -0.014382797278308768
K 15.015564328560366 11.279850368653705 14.413132364678257
K 0.5822325679911542 19.55662377462699 14.226846230323789
K 14.022680428282145 9.58287348055862 18.286568823642078
K 16.630959821400392 14.790683065801241 11.847248664357336
K 19.61287295990243 19.473223124899874 18.8138824454171
K 14.546508306877138 15.655555955350046 16.009324952534623
K 16.804679515691756 19.60293302959858 15.319174817644413
K 12.19602651683368 14.017957035956732 12.214943998699422
K 14.400134120282127 13.68533298048079 20.071471793135608
K 11.124640981332588 12.693163611309147 16.788152562205777
K 18.087164430140565 18.886794384005384 11.070151992837406
K 15.312135345472246 18.46209656581232 19.810024826683858
K 13.644920920477466 18.445018314460665 12.220991945773603
K 11.101306028409766 16.618332684784686 19.170799467937773
K 9.97458574166342 16.806056976501893 14.797639235400572
K 12.562654607550211 20.15384811077761 16.621060045384176
K 9.97706123106007 0.38836226670351354 13.290903017569525
