24
Energy = -18.3671225 eV
K 14.883305176202478 15.07191416927214 1.4777819752448846
K 14.45899977609719 17.423762303656424 18.621768198792946
K 16.639466296522762 0.5326742278974504 18.118792509638507
K 18.52713102762914 17.784905011646792 20.2067668863731
K 11.291682380130617 14.077497105237118 19.628164793881137
K 1.1173431319489717 15.907691196586573 17.9734915891983
K 10.205805033505111 18.49962432541387 18.88480055369068
K 18.467482085464702 13.28604323837697 20.32753042768481
K 14.612109749717904 10.774332971952717 0.37525583065710816
K 12.794742686667576 20.626845202882418 15.641543949201136
K 20.259685845249145 19.598548052372166 16.272954443317015
K 16.657062285178853 0.6435665113253964 13.388328290375123
K 13.326302759500875 18.519502463949358 11.84417773485056
K 17.506694141274547 9.259765444059823 18.160245230558207
K 16.697026529315238 17.053378150569095 14.868590308019307
K 15.189681889030764 0.9390691442661219 9.263641619915422
K 11.651137805073004 16.062447106588245 15.291510679392283
K 19.143700289743503 13.094895036991998 15.954075596369794
K 16.304388783284974 10.197215717259288 13.770201800962724
K 14.850619527222463 13.058434777868266 17.067492536068148
K 14.434410827640688 14.106707396855152 12.260278272079407
K 17.037706422703884 17.623170375248733 9.768616449089212
K 18.929171951560864 14.424166826407903 11.873395453566216
K 16.377084466892175 11.308824189670338 9.579455778030512
