24
Energy = -18.86097424 eV
K 8.172126033708683 11.902792788601106 14.453603021524588
K 5.6742802056998425 7.874709942636818 13.380441856027979
K 8.172204696237065 5.437632574357663 10.373425415591797
K 4.144014788095238 11.946907388895394 11.742552763525934
K 10.216126170799386 7.619142205686206 14.453043165592382
K 4.523800817811754 7.759248045640452 8.955251539277862
K 11.514008819999676 5.223935812882167 7.10711603428685
K 11.759496437713409 8.327452224599176 10.380214321010975
K 15.541794415192838 6.401417584848014 9.132189473273673
K 14.859162545135598 7.593054406390934 13.57323065138836
K 12.25698966360794 4.126039179165999 11.739783809257448
K 8.536732736678596 8.551033121118042 6.331975891727372
K 7.954654533149235 10.21312977500917 10.393245692846241
K 5.348608316283771 11.92404566912673 7.2463462176228175
K 11.455270903379509 12.691351613139258 10.452163713206785
K 7.392944489948456 14.84906662134939 10.412317968524407
K 14.835171177020849 15.242286075863161 11.751417760725456
K 13.038096279208075 9.723890726679599 6.358736330197577
K 15.5999859541487 10.82407450155857 10.408504315356812
K 9.767493139331526 13.188518031248382 6.417388019649648
K 14.41161422280301 14.075809590696716 7.394715465538027
K 11.163396018508953 16.938413367003445 9.117055055003302
K 12.851485643411056 11.558434898067693 14.478996296051816
K 10.55306543448264 15.750137297792017 13.688809780434877
