24
Energy = -18.20704031 eV
K 10.965444280571125 10.741912368417854 6.290071169802842
K 10.968457488674378 10.732158697112483 15.599318501439866
K 13.230970027940819 7.727346908612552 8.635179320017961
K 13.219014929830454 7.733229742870269 13.23718821752289
K 14.585722370455871 11.883182166082142 8.666433827146527
K 14.58702888544144 11.91094724867112 13.2620810282269
K 10.953984473079432 14.520139761430077 8.576481240843687
K 10.930741979793519 14.490320840004232 13.304535470433395
K 7.371704592117083 11.885999382729729 8.635330073196329
K 7.3639936845116045 11.912927430261961 13.261152372846233
K 8.783237151518552 7.736114517296888 8.566147058608854
K 8.794090286886595 7.750134819993809 13.17616567208126
K 10.996309775458322 10.796555883383284 10.936825711816917
K 15.440469264598702 4.595940233685952 10.970866865222094
K 16.920095944030933 8.770394958558859 10.992720895408699
K 18.284936639361177 12.974835554449655 11.021080778053307
K 14.67537940373694 15.636821766376324 10.80070983145544
K 10.805909082472335 18.20075361006147 10.95223054898611
K 7.185929539090324 15.70146215462606 10.94401700368153
K 3.6875796195825012 13.004534591664996 10.975218757379382
K 5.077681298518612 8.817437142006062 10.952227367998304
K 6.585000459299172 4.683530181231572 10.825646746926207
K 10.983163267491491 4.629312331650163 10.898905372863213
K 13.627072747382583 17.92266900718846 14.34548737505458
