24
Energy = -18.88007158 eV
K 17.708612934933353 15.060075049003972 22.47611864642167
K 13.724897505097653 16.79339931933079 20.62566232738362
K 21.126081848495378 15.40524751312163 19.61527996776711
K 17.804101498626178 18.92524130017867 20.243918263197077
K 14.495682832773005 12.2945780842356 20.295295982205783
K 18.932538435664796 11.496742669514628 19.43424445424965
K 14.675810600593946 18.97119278123411 16.962682799293585
K 12.511045442889264 14.450899384897225 16.837975328737855
K 16.988258507651185 15.156321038697227 18.250219042949848
K 10.375976349263484 18.028568245309586 17.518367523752357
K 19.83364389686105 13.2013889481667 15.311905515403122
K 17.965758354386928 21.842097100215177 16.592804475351564
K 13.536753424364274 12.655212042314941 8.161920767673903
K 15.085842076510879 16.078772205142577 10.080401745177147
K 19.61546017878809 16.001737495219338 11.834208885814665
K 16.793884473531026 19.510243642843598 12.977589844029833
K 12.718858455756642 13.05752410149236 12.572136267437852
K 17.091199545011843 12.142436814356511 11.548858523324766
K 12.338680406714463 17.762230777555718 13.333557773186799
K 8.978316131852793 15.240448234625866 13.909955103691013
K 16.069597373616045 15.435156411228604 14.249834949400826
K 10.432616280138536 15.670161414764152 9.715032323413123
K 15.837299409296811 11.380760439832548 15.876494737935037
K 19.749464955941704 17.82994590547761 15.96591567096181
