24
Energy = -18.52631162 eV
K 17.586912245237773 19.177513102209723 11.691121014030973
K 13.581880348575675 19.221771777033563 13.942848890955633
K 0.3779577425720611 19.133286439935706 13.793715750807149
K 19.57613380609781 15.129024845718844 12.469194375000384
K 13.574345070231907 19.21592099443621 9.423846855084507
K 17.69952232476864 19.95143333053473 16.182815241639386
K 13.577812095404823 19.587149910412464 18.42149847478898
K 15.048906152995079 15.39478653191913 11.313897704756107
K 2.5827513501092607 15.04637219005573 14.267716321108617
K 20.50133124302555 16.56123475416862 17.316344064646795
K 17.305671176245976 18.018254239041227 20.34032830382062
K 10.566247540142102 16.561477423787398 11.87747558536254
K 15.867963278615502 15.734008543420327 15.926776588336084
K 13.505489451341514 19.555738594555635 1.7882621771328329
K 11.164776125948073 16.171003871122913 16.568507829562126
K 20.362741994664617 12.372227833618323 15.872153316937123
K 16.53318420031136 11.688537489148558 13.600010958067955
K 9.826681892560297 18.077341661836662 20.671709090348156
K 12.107864848935025 12.752551874600705 13.567565985817652
K 17.657300393156685 13.485614166935541 19.410933891368703
K 13.587437541819764 15.508807307394084 20.37559559532518
K 13.632489640669908 12.000151886405622 17.648394997693792
K 17.32335405868602 9.37785554762832 17.343604138167976
K 13.585087893277109 8.46943423434452 14.70558159059863
