24
Energy = -18.45597531 eV
K 0.20908089693450485 11.389061312963456 13.979620161822195
K 17.61401786431865 18.350098933192047 8.748382271227365
K 17.95281026351008 15.21489087255954 12.109060961440797
K 15.798183260082471 11.344472656413128 11.753030074432498
K 0.20763337247200422 15.366177751473378 16.526689847407503
K 16.60301518363142 8.64234217389145 15.584030000052794
K 19.30432701305091 11.014689267234502 18.538417392690913
K 14.332543456610608 15.148050817611209 8.955938143213265
K 18.73124741580232 19.43903615704988 13.045360951081806
K 16.304661158398574 13.072568824909947 15.912439546755463
K 0.18250572900130207 19.706625225766857 17.266525229457688
K 14.315943271789514 18.925360451158646 11.636361385274165
K 16.70568368212344 14.713168779571726 0.18410836883402337
K 10.298434795407484 17.107597041393316 10.688215068677108
K 16.941511521382107 19.08968224882086 0.5688141536017385
K 14.736177980085259 10.639449058476773 19.41487241182516
K 15.780204236229366 17.628643904517855 16.12437162587019
K 13.24421232352461 14.854944817628564 13.221796036587342
K 12.482778343010223 10.797724743071 15.07636315731059
K 11.064651077977665 18.37071073398391 15.039815320599333
K 12.66210412757949 18.30597662383567 19.47609231383308
K 12.25743839857015 14.283884739454042 17.88683399310125
K 9.00500714494628 14.336954633537227 14.483133482204009
K 8.444575061446589 16.886111371317213 18.320201633486764
