24
Energy = -18.80921383 eV
K 19.03397534339421 10.57712064107549 15.99784660339961
K 17.86379579383659 14.862235746475466 16.714113933159997
K 17.893499700179454 11.972614548536665 -0.004742518836600225
K -0.013385137661675001 17.73133178008905 13.096335588694723
K 18.326706275979447 13.40383117797303 12.43486599772091
K 0.010902086047920999 1.9052988394399506 14.196724434140956
K 17.56929502488885 0.6489330033062275 10.88066712241468
K 18.68594173286786 19.11374462470989 17.181632279775805
K 17.565750275992983 16.482242480052808 9.357197887799531
K 17.20286122874463 16.46625325905906 0.7564016455729956
K 15.700689311363417 9.80880862749872 13.073543468770069
K 14.72091672626296 9.896419856693063 17.5308526283499
K 13.705004189378718 13.841427158646134 -0.36898248531465394
K 11.26368942891669 10.572459982736298 13.560556649001729
K 15.68107342839814 17.331265186550592 13.39829175135146
K 14.19226552096271 13.47577668037 10.8078012641437
K 13.834981668372876 13.781817492189086 15.33881232118045
K 10.476657380341848 11.20700952819518 17.936170701923245
K 14.250981485329412 17.96602194332177 17.91460138609842
K 15.678851815292226 1.4174754163723133 14.949756745435682
K 10.17095145640387 15.732701523592299 17.343705479724655
K 7.4841824563964945 12.698494819657462 15.118283410826349
K 11.737857339871626 19.062773090855146 14.5535469075762
K 10.491064401444396 15.162535429539469 12.736473066492735
