25
Energy = -16.7888341 eV
K 20.500725924516157 13.545350939102407 9.835368053738414
K 16.29282739700375 12.749820498126347 10.890859518468691
K 17.276189393339763 17.121616931636577 9.810039008466525
K 14.19855678722824 16.331102545609856 12.823909107272012
K 9.94140158964143 16.422311135068174 14.172288753325605
K 19.090179815180996 15.683790159524492 13.398843688017244
K 12.248459327226822 12.442697794154096 13.343840887138342
K 16.844178257429007 19.79335012830597 13.782765161779501
K 19.763552847688416 11.06605277380318 13.424105377700332
K 15.723496444913243 8.98378506146224 13.463635489650297
K 16.125226693379773 12.862548136272846 15.243996042569048
K 20.36301266917054 18.40046375978028 16.658172756764657
K 14.056730226754537 23.45777306578604 15.94200099041968
K 12.882415133305495 19.340744130468547 15.999686670832883
K 13.353312352203604 10.35203007274194 17.316349405155236
K 12.444490654945579 14.769802948970348 17.212082502345396
K 16.42230964196271 16.72509423541529 16.85883379496465
K 17.979380017463797 9.547732214700629 17.37561342793913
K 19.91639237370745 13.828052973650237 17.49213094241713
K 9.763174447955066 18.39546114076408 18.735854472280778
K 16.579350227053055 20.84225518901603 18.47245246502872
K 12.301340083613091 21.92398222159926 19.695966617709143
K 16.053522174474274 13.257259099465156 19.72110309666904
K 13.93587215361936 17.815103075098577 20.37975478684482
K 18.560059588617474 16.95797599187051 20.566503204896197
