25
Energy = -19.72504366 eV
K 18.13532813919851 18.877566053569595 8.945056897295549
K 14.16062144839255 17.91210055178712 10.507718641081128
K 16.247616214288627 21.57015900728196 12.009106000484131
K 12.391082136591649 13.415372033765905 10.500987843121024
K 15.192728398200272 10.731637956486631 12.867338702491876
K 16.995025607260555 14.237357828143443 10.314590443733392
K 10.51830088551212 16.75653750085272 13.203489808447003
K 11.7576629360301 21.33624450774867 11.736755832410653
K 18.69397144069201 13.172568787161488 14.369333709032945
K 18.07456577677879 17.569167989979455 13.106491405990774
K 14.475799902114808 15.01645859286242 13.810925400102143
K 17.79281309843442 9.090608261495179 16.648450670423934
K 13.735846615940417 19.240719795698777 15.015767257800762
K 11.070359732272152 12.31841595657447 14.70826858895414
K 18.74948473718822 12.884369968992086 18.986227133574904
K 17.721086037460164 20.441687582963795 16.39377094481653
K 20.797835434132782 16.396407701467233 16.584000272536436
K 11.741104858003775 15.829932038691501 17.461648588092583
K 13.291290843387792 8.396936305703303 16.772221113305154
K 16.567095427423638 16.38197808834539 17.300558738654544
K 14.891763502842464 12.32340886365192 17.028957582589324
K 14.049075542426163 18.99723252718652 19.565864641543232
K 11.42952229088297 11.485378003070068 19.521788068407712
K 14.628878302743278 14.430786384088115 20.808632833204953
K 15.521961919195912 9.817788939826535 20.46287010929946
