25
Energy = -19.78254196 eV
K 9.935637033143083 16.10140404153616 11.684979378781998
K 12.8002996332009 18.331499004112494 14.058088750654822
K 15.559210621914168 9.995970759192915 12.318360569627337
K 17.872006265786215 13.900058579639301 10.686554969921135
K 14.942180604627891 17.588172823372997 10.171041173011687
K 21.291909449760233 14.549582014540515 13.750187356267494
K 13.93352713380236 14.23685611423967 12.614260782324319
K 17.658166123777086 17.46711647337056 13.60575324957371
K 20.169292127659276 10.170990074903429 12.787084313890036
K 8.59212168757788 18.914563353465258 14.96080416375758
K 10.85932891627541 11.405414352951198 12.562588209962765
K 11.930027974240147 22.075638559238783 15.978932029597656
K 15.563307541770648 21.435367271475624 13.050778448851771
K 10.437931826807766 14.711624607241069 15.789295668093924
K 14.770747824940166 15.550296638729233 16.708165095885708
K 17.564600002441352 12.881780500922574 14.928930537519816
K 17.636272202650225 8.661195650691576 16.052731772831947
K 21.10655225233103 11.513194904974206 17.05248135776044
K 11.68703423811369 18.33148931252334 18.433783531743877
K 19.094119728116596 16.21292742063768 17.595740904193015
K 13.493666190488982 11.232507201144717 16.203195904700962
K 15.936343137172141 19.69840042665667 17.148900719373295
K 12.452965533287705 13.748504236449056 19.826916498042806
K 16.883790550292634 12.46610242192787 19.264421880864884
K 15.743300454042489 16.733682310283335 20.680361786987074
