25
Energy = -19.37032283 eV
K 18.612970541660253 16.869228900754404 16.93175117277497
K 20.44762518427607 12.990491924806843 15.224310908820765
K 15.970636227709116 19.365914225568577 20.92379643362688
K 1.897727191363534 16.534998816027237 15.629181137181108
K 15.58344219367123 16.735372245546134 9.514623606215858
K 15.600956804103406 17.142336708121437 3.6373008743595823
K 17.079867259873517 0.14333571887756544 17.105083726081105
K 12.634705473309152 16.67867564408793 13.015664850532142
K -0.34001433666791464 2.652888942954767 17.378989210556167
K 18.59833804164127 1.9342815818613401 20.935568593630304
K 15.978888214505977 9.682429459464535 15.601931026215748
K 18.267890405007584 2.6636107254133647 13.695244775579466
K 20.893179667967285 20.287412648493596 14.788306803826236
K 12.949563290979079 13.29600804560296 16.687651608300477
K 17.079670203290117 5.29891432626598 17.47225059398874
K 16.346974646597054 14.30090521018767 13.78120994714438
K 0.6752669936659627 14.5861378252196 19.309746843994642
K 14.123313236263662 17.51383070313206 17.1367667795253
K 17.2224507793876 12.963924802622243 18.538427082483327
K 14.11977911657042 9.910156471016276 19.677477196018284
K 20.971781578240282 19.477569643156443 19.422551301900217
K 14.089540466787303 14.800071771558477 21.110671186439543
K 16.667317000357038 19.368544254992855 13.04916010361302
K 18.64643855110457 15.939634636400225 0.3724613272117758
K 19.382214654782317 19.76143373642694 2.56039629642513
