25
Energy = -19.70461937 eV
K 16.922784429858336 16.19037011829625 9.671128323186709
K 11.218238136313264 10.861687038221064 11.950525825091823
K 17.494027408165866 16.41225979019535 13.830249258144738
K 13.362097765668123 18.02660409336054 12.196767363622962
K 16.880443880062778 20.571944452134606 12.039493761634182
K 18.73156802982896 12.464986700777203 12.144146367040843
K 10.263883495310095 15.17314490109474 13.728888649886883
K 9.25185227889692 19.483348680711018 12.159140524526963
K 15.523269257375944 9.305993961742285 13.579215496987544
K 20.14542876315364 18.9604906414527 15.622657443901284
K 14.366268121906124 13.621670204675157 12.254820911741144
K 12.802647295615426 22.208976315976575 13.18070884098492
K 12.446317659939742 11.620437220889736 16.13727658859102
K 19.708424358525534 9.483621451800452 15.647753938867906
K 11.039706085504266 19.19946196589088 16.13085160375717
K 13.900770827226717 15.81547855812943 16.159440576342316
K 16.789830818838755 12.604767075712461 16.09641784780523
K 15.495790027486962 19.922709138597952 16.153269071025573
K 20.850235791571013 14.034965207505028 15.93744191553526
K 15.941320533156071 8.889917576621787 18.114390752858753
K 10.490842672291617 14.961502777684201 18.469105404826433
K 17.77706476211202 16.352592997123462 18.543806385850957
K 14.640106701379846 13.29948316797445 19.85989145394773
K 19.24666758928952 11.730162063144034 19.508994550854702
K 13.74388642847265 17.836897018239004 19.9170902609375
