25
Energy = -16.65608177 eV
K 18.1502122739797 12.19721671968782 8.896708462144511
K 13.433725372995575 13.84912408617217 10.0661577085342
K 16.58495929019965 20.67364452078011 12.164256181546547
K 17.52199368709004 16.69254626135228 9.828889848840213
K 12.67266701399193 12.60385572894195 14.184684549830319
K 15.267640620095731 9.849857696897308 11.617330251920327
K 21.159439103294503 14.304078371787666 11.641668133560259
K 19.804021744812573 10.199882609504689 12.70333473435718
K 9.985648715173605 15.67496233912834 12.63484730800667
K 16.9832003370062 13.572944415525658 12.741734344564524
K 18.861967045661086 17.497352216144137 14.133055427256123
K 14.130182803501398 17.178790645328654 12.798903356647848
K 16.397254105094472 10.61095309923377 16.089427150740786
K 20.104236641882107 13.420816113120164 15.95563740601867
K 8.902386225202392 13.690600558834342 16.690137228251437
K 15.872976195145382 15.042367618170724 16.45667954991493
K 11.909500345269675 16.719913063636664 16.54676858332856
K 15.47278757831989 19.456613527425837 16.51504116534509
K 7.926779077480181 18.029376053771475 17.098496606610677
K 12.928791704236971 12.698250287219555 18.75754920312308
K 18.92611956720963 17.131299439269768 18.582218356403587
K 17.485403547681916 12.932281585397293 19.809712879961964
K 11.400688624658947 19.838320931030708 19.551413189863748
K 10.04178768107353 15.806890637611602 20.539574531834013
K 14.464666935724335 16.71709771080924 20.384810078177164
