25
Energy = -19.69658768 eV
K 15.770108405139228 13.395800991744466 9.473612237350928
K 11.183430054335085 12.315414596646155 9.203509393570409
K 17.267927231737833 17.955294866799914 9.678148891175546
K 13.992519193950862 9.141167541908812 11.055182998239582
K 12.997462408722937 16.826082538348686 10.580770176033282
K 17.40792308788233 11.406686718663714 13.45888907545003
K 16.65197375788294 15.840738015975639 13.15735467437348
K 13.186136299343616 12.979422970942396 12.90933984605191
K 10.052099982253209 10.006347983977003 12.92837297353099
K 9.21821512704052 14.568486545265062 12.74263794903816
K 15.553053285831558 20.13333666750742 13.311927404727388
K 19.767477533699367 18.69323619124061 14.321065263292564
K 18.28521854038026 21.978819104820357 16.7720270888789
K 15.219822923343708 13.845290154555776 16.623662000708084
K 13.818148619171685 9.458761785114065 15.595931877653925
K 10.744105524141844 12.755109977229335 16.61338127932499
K 12.461700840341264 17.174628109145605 14.887042021179578
K 8.666890116865464 16.652109133923204 16.8724469246367
K 19.62990248356578 14.779162844410719 16.38706098040326
K 16.302954936115853 18.180594725376586 17.27335960961793
K 13.779746848488847 11.579632286981367 19.794439254016194
K 20.296321799189865 18.44255193759108 18.939061394984066
K 17.80918219382586 10.714229310631055 17.929738903037954
K 17.4261200631834 15.20293117148778 20.270824718426468
K 12.547136647272268 16.009741733419595 19.255790968002582
