25
Energy = -19.5652128 eV
K 14.542472962834616 17.162764785759652 10.63160863822128
K 18.000383688399236 14.270834290486155 11.226510047380348
K 18.56122819642492 18.70900140929471 12.549106398534391
K 13.816566506156734 12.919888513336497 12.107447636782254
K 15.7500035884569 15.83530922584345 14.432908950927729
K 0.20901983071596644 15.362695390623587 15.069247972954646
K 11.606788846292062 16.37287536872907 13.909461342028584
K 18.26420664513323 2.368571756672852 15.104065438647662
K 17.143365091887734 11.77020372227876 14.9558933396929
K 14.414288553087024 0.07579202171605129 14.297585640368341
K 17.713169596996686 18.634868778911866 16.895543855093567
K 13.268142796339827 13.219505028104034 16.828905239332357
K 1.7837477060473474 19.54620889795028 15.956776077634176
K 15.275467810716883 1.759947955954873 18.569161104988677
K 16.010140105835884 10.792837572623021 19.367612847507427
K 13.440143704007186 17.583136305429655 17.918526901075325
K 19.721855032571895 1.452584931600516 19.518135269674655
K 17.478808732227062 14.536741468163733 18.39770994387137
K 0.9960793316915372 16.83118002782209 19.370896043531456
K 16.377257226545904 18.34464303953947 1.1882851329370145
K 3.6584603509602918 19.981733181547174 0.27388952495317
K 17.116928395101386 2.2131319817135107 2.7888770444141646
K 14.158198872078255 14.487409911167282 1.0568450772230438
K 0.2981944582682255 18.99456181946758 3.1354653688258716
K 18.52563500193726 14.904125645979887 2.5774902018003902
