25
Energy = -17.53705812 eV
K 14.915592488490214 16.882619237496147 10.85457830345437
K 17.35564508174862 15.027724523961606 7.637460112375297
K 17.995160830120536 19.269703846537343 8.872484475880507
K 15.95861384008381 12.495840740622022 11.450785196937549
K 13.586596251925226 18.57615985104 14.879423591578359
K 16.697199016141468 15.333028113002703 14.69159190430903
K 12.435078702204871 14.226686119577492 14.013675915552154
K 14.850580368368336 21.320206947533592 11.29907754740107
K 19.50092035331016 15.693354628442917 11.352142124662565
K 19.370070230468635 11.983191734634593 14.505224608319635
K 18.065863231237326 19.380028691849105 13.52402239936131
K 15.166879415279208 11.313794176226706 16.04697611719087
K 10.246284168022912 16.744429732556455 17.22090150083223
K 20.688806047999808 16.22136645119746 16.00482910116996
K 15.53888615047701 22.1151720096052 16.177690043000847
K 14.259360433340495 15.294312994421727 18.080235407848207
K 13.397485931072952 19.30533435983748 19.353855330236538
K 11.144936596931695 12.338284088850608 18.06724713968731
K 17.51408293685381 18.540153598275936 18.006703668041258
K 18.29662717765001 13.408742091177308 18.619526780396942
K 20.481095336775972 16.54554788453433 20.639062578223054
K 11.75444001540713 15.447780336742888 21.562944458071943
K 16.134394132128442 16.39792669083109 21.9138453065268
K 14.751277278951633 12.006996160442533 20.99802077205181
K 18.63635316275313 12.873844168346702 22.96992479463361
