25
Energy = -19.82092308 eV
K 16.128272478830787 13.956192244983962 10.165191381858932
K 11.428063963708581 13.932246854868614 9.702800852365463
K 20.566221295526987 14.00632323043122 12.329265815323135
K 18.15095020405547 17.935632444283943 12.34224302310021
K 17.557578802243114 10.386163595919694 12.834132705002077
K 13.494100705942909 16.934499700192255 12.351896277466889
K 14.971434401625352 21.13263002704402 13.451820558204632
K 13.182840873781862 11.632478835667069 13.058540287380557
K 8.950144332164383 10.809892610082057 11.965634406780595
K 16.763450902000407 14.268363584834042 14.558362921521804
K 22.66723067799516 18.15052579782846 13.07147898531841
K 9.517676276722884 14.920678336941009 13.823571241303585
K 11.399181423474067 18.69556747210311 16.040855114539195
K 19.77483000010987 20.743242749678526 15.666046528175315
K 15.16986858347455 10.625556936161727 17.100273193800795
K 10.079626911779682 11.199817141543537 16.46886889816822
K 9.170083969118386 15.288086556816438 18.49836806982974
K 13.04769211525589 14.613935400211124 16.449012041646686
K 20.235770873479375 16.38167025129427 16.438567172341436
K 15.913320175995656 18.265456379977174 16.47872855347466
K 19.647836415721812 11.655604433995157 16.756279869746667
K 13.275064768376117 17.325570887387723 20.102650329119832
K 18.662517265534525 18.936064513126016 19.804843593168844
K 12.486529356810223 12.707947486660363 20.356780395006325
K 16.815532470720008 14.551671772416563 19.239607029804745
