25
Energy = -19.37038922 eV
K 19.444807006003355 20.490665393801844 13.077648313942227
K 15.194838949088876 20.772904835224946 14.446729432548487
K 16.588911325927302 16.683221559549832 12.99747963659706
K 12.272649008772701 17.455579902367774 12.632586500729147
K 20.858449132755574 15.964514862240726 14.070892028013455
K 13.352982454211311 13.167003326462545 14.447827393261802
K 2.6099121748021474 19.32407618296968 13.719580113352624
K 18.548548246132306 18.520772242312972 16.885151947950682
K 13.76692570618585 17.036314084812926 16.74907925990739
K 17.45705070956698 14.027821574676365 16.710660146495247
K 0.7389935655418457 12.874827015329428 17.133341291789776
K 13.634155386093248 0.4038737200410399 18.552318927501926
K 1.758702408585052 17.485443457129175 17.832608935694143
K 0.7050053557258141 0.6102656479435303 16.723461787716438
K 18.90076498637627 10.597783413619004 19.364392294495705
K 10.652424311162447 10.205563200110982 15.971986703598363
K 17.819344889189473 1.7842250114620295 17.749368490957018
K 14.436498583792536 9.837656410554667 18.206592744209747
K 15.926033428595767 18.19486179384347 20.237225987993824
K 14.792850073267932 5.045725406230084 19.369250822147148
K 15.92516807833832 13.699220357692045 -0.3826921584656567
K 20.21637637577249 20.11116500476678 20.748426641134056
K 20.024450676960413 15.414278901994727 20.45161694366327
K 16.398918457868827 1.1015060783311428 0.7833494833369175
K 17.857183121357043 17.825086172675466 2.650649599434668
