26
Energy = -19.92306916 eV
K 15.504758806305176 13.389597634566755 8.178681182458657
K 12.087679711298462 15.483961302230453 10.46462963641545
K 16.3116257504398 16.862551265302532 10.999466720403316
K 16.38486511582145 9.428069246614772 10.532409937622779
K 18.981963080954685 13.242210091912934 11.116038491121266
K 12.903090594325546 19.752062335557195 12.391212900681264
K 14.687708814766419 12.747540377714884 12.389582742440973
K 20.362892547124442 17.42768747737408 13.11867636664042
K 9.598469432266867 17.250574654562346 14.52898073108997
K 13.55949708577251 16.232682649012524 14.727726581314087
K 13.676141835058592 9.066881849590818 14.152521075704172
K 16.72350509158483 19.590190704007025 14.904444279457689
K 17.4470163270101 15.056597607472629 15.053400690175648
K 21.335524315522427 13.918750546260963 15.786915874687566
K 10.838541778128972 12.848361960389765 14.978963841040377
K 17.79552463512634 10.801300989327766 14.992005987893341
K 12.746092942275796 20.084654652383755 17.20392050384766
K 19.811694568992984 17.759883100575806 17.792545645493778
K 14.288455212518937 12.28879365915063 17.601521117664305
K 15.56817187456566 17.033459241185586 18.51911969276519
K 16.571978964036266 21.21659715669284 19.418546099685354
K 11.356618505355641 15.789865957516174 18.635200920681857
K 18.252091097662973 13.498427258827332 19.136981573604622
K 13.240673516435685 18.939416242893408 21.605113305721623
K 17.666624948783074 17.837419632129993 22.134095512251427
K 14.484017938087575 14.63768689696826 21.822523079358422
