26
Energy = -20.61835759 eV
K 16.87993923203518 15.914530169271133 8.0936440149378
K 13.311558554902126 17.493184230500184 10.639351531511748
K 16.83639174058219 20.3925222204699 9.745409632666957
K 19.35291748874218 13.06037438694906 10.906065984202913
K 14.935345897086801 13.06488439039967 11.372715439096119
K 10.65104384196822 14.12654027115189 13.049693137953154
K 17.72340275423692 16.946123918974624 12.22472703298443
K 17.058578592882608 9.572360006830285 13.653474474343577
K 10.593937530624482 18.36691808517932 14.634790556857865
K 14.254829895612678 15.948391626341396 14.768224445974045
K 13.439156654800254 11.482728432837094 15.726934558503503
K 14.834137073907096 20.37312379448023 14.07345693239676
K 19.259465759708434 20.791745620462358 13.760559900663013
K 17.980320960087393 13.359898369737836 15.282470629750797
K 21.37451502898456 16.180382442056054 14.548375141476878
K 10.756098517520657 14.818023690852344 17.79063606789882
K 17.89479823628705 17.739153620049496 16.901784401277794
K 13.352890696023708 18.75634232367764 18.3775971808866
K 16.86682195479271 21.691318266921364 18.053803967293373
K 15.167030979421831 14.532970220710922 18.73039696730265
K 16.770360421296388 10.354159076612733 18.71350574810853
K 12.697528121270151 11.36498579814618 20.591303592022147
K 19.61154261084803 14.366208810891262 19.390585044179083
K 12.65243996357914 15.716169547007993 22.168927353328126
K 16.64391952984099 17.79944920228016 21.44880178780654
K 16.405337173658367 13.09182068790861 22.657073687278118
