26
Energy = -20.40109269 eV
K 18.760008458809992 15.40246910696442 10.02868099565018
K 1.7134258336535333 13.685811645087457 16.810538576015368
K 0.3243004497005683 16.156929563539876 13.330580490186597
K 0.3680450134282731 18.61511720791243 17.73279880490947
K 19.546649587770773 19.935750710502237 13.863545923320165
K 17.777290831049903 -0.7668641822288431 17.62420199089948
K 16.728539568208806 19.43079253251037 10.413094757723066
K 21.516369633819725 14.694481658121783 20.881534963746482
K 14.321746155094432 19.79108252116592 14.517705050446828
K 18.31926964434836 17.95639750722242 21.063402771279552
K 16.824083345680616 16.29578170138384 13.744933931959512
K 19.18630186888148 15.456989918701995 17.18763608327878
K 13.897389213455014 20.317421769435857 20.08518676159918
K 15.16057281246295 16.916858505063576 17.92478875485289
K 13.529198519814962 16.562091935047263 10.41990121869302
K 19.596973583346717 12.38797100745919 13.778350033193504
K 10.258455166919225 17.976497722328453 -0.05429639097466976
K 14.32063274191517 16.649466485851125 1.2937337068461492
K 19.76457209502296 11.1520355623565 18.263803825423484
K 10.292249067511364 18.85147865309827 12.607710166611175
K 15.402636175372717 12.588326801205087 11.882409754794434
K 12.172753058811903 14.384276565643926 19.37541502764125
K 10.611860658555381 18.646854980758008 17.124630411992023
K 12.408395563593455 15.271430876760896 14.638371754164785
K 16.896987031910133 13.62222513335737 20.85667103511437
K 15.647367558151851 12.406014982450627 16.53352199018803
