26
Energy = -20.13224567 eV
K 2.11435945219115 15.108614274753005 19.10025335043536
K 1.1710355987276175 14.207622909188254 14.748968074646205
K 21.014496208969167 17.831986836946747 16.547807966662496
K 19.190119892474485 13.904986569406727 18.309661303341947
K 17.083655215663146 10.001766874099117 17.626650733757373
K 20.23588601243067 17.661300857893004 20.834654755877565
K 21.23947259481689 0.13696888717714648 18.380783445697663
K 15.805902131262789 16.559790107379992 20.404831241130967
K 21.06988180001401 10.331574258490198 15.565868967604835
K 15.493143053056157 12.231354623647055 -0.3813210180735407
K 20.824136306949192 12.370802083482797 11.157452213063776
K 19.711595886393223 16.75601535480017 12.508658600336515
K 17.566207074206893 12.98019502629108 14.101114086326
K 16.999912387441725 20.571767601030245 18.832766690287006
K 16.48430760901198 17.050912644444466 15.924837305913437
K 14.034282528793998 13.364633025340801 17.190410431405628
K 18.371061487750584 21.012799113824176 14.497222722343833
K 11.595859546359309 15.130066034832375 20.847570946415445
K 12.613683450122013 19.80595555040687 19.794258151012837
K 16.860899989032266 14.678423405212213 9.927404814820262
K 13.486641685621613 15.460987949235262 12.95942679872996
K 13.766027069396364 20.585322551139082 15.218686171383508
K 15.758831904627222 18.891922989856354 11.455064164115896
K 11.355893296483458 16.951364389294422 16.58310106806504
K 8.43795327669408 18.15635049526308 20.096360833782928
K 9.523282579862128 21.03548739804272 16.59133163176509
