26
Energy = -20.6751213 eV
K 14.292873037726629 10.300796323111422 13.778916005826398
K 19.544183113401964 16.848624038692826 17.26873544041373
K 17.537447469742883 12.707385832163604 11.17275348264775
K 17.0303120350799 13.428109517561172 15.60355809619551
K 12.424817562583007 16.93157904181976 19.862019166989928
K 13.91945383642465 14.962667966274132 13.029757366602503
K 14.295064468214797 16.024707801401426 9.158291676643035
K 10.244221845005384 13.16938860927729 12.470387207740199
K 15.04807649964189 17.24446948498961 16.510631208432947
K 10.63800178271051 17.229204995356824 15.442040948527815
K 20.181083291339846 12.031350852384117 18.29527919567567
K 16.502868568352515 14.65050208296695 19.957611448065215
K 12.636117887594127 12.443011799968104 21.1186035662292
K 17.96477294421926 17.16379547827883 12.851028333950913
K 10.257483349572539 17.61722333000784 11.008981216528777
K 13.531449597961025 11.389177731832056 9.522942159968471
K 17.38871155428359 20.851645851433258 15.78462326492217
K 15.797007604989153 10.267529367511814 18.308701019850083
K 16.409144343183836 19.4432380829669 20.10807565302469
K 18.890241986605332 9.512979158689285 14.49187987843428
K 12.846757055956171 21.081191360558112 17.304787534347053
K 12.435750499182484 13.203234021051511 16.864496222067174
K 21.080839801707995 13.73245231668819 14.056774353632507
K 9.840176059530394 21.289321103081008 13.890194340147726
K 16.681312822013975 8.216561425902409 10.633756649662862
K 13.918008629267595 19.59603007232399 12.841352209764656
