26
Energy = -16.01067517 eV
K 18.253641774502526 18.16336889983958 11.434503246250241
K 15.632525058818185 11.04628109716265 10.09318913903504
K 14.632361928527919 15.556763585100038 10.730387148422885
K 18.585852945531247 13.525371106747045 12.081962671313788
K 14.308292325936916 19.863259188927923 12.90431166374529
K 13.737555201420449 8.358387759850764 13.436712142748851
K 18.2062064253357 20.311893882078493 15.466563534151323
K 16.375244229244075 16.266990860104233 14.830449526215777
K 14.456193000042996 12.551811331593584 13.996343327984125
K 17.947034272170445 9.448041163064373 13.84876923176532
K 11.94459591809447 16.344086576285633 14.661334839688143
K 21.803486203421823 11.64132831347435 14.869450734609876
K 14.62030056832683 23.17827929006427 16.192296478128824
K 10.898694651855058 20.692904530413596 16.115330593284526
K 11.21860839868868 12.603748872206717 16.987171142718037
K 15.00104194700756 9.854738507995632 17.38045117345632
K 20.76046607326148 16.344354990927243 15.078846841425934
K 14.516036811654121 18.88218039215933 17.411827773305657
K 18.223455379457473 12.765500180141778 16.761837022615712
K 21.913886173325583 14.169695414306364 18.684600575488236
K 16.98058689401661 21.599011327377205 19.781808390049747
K 12.517803090785492 21.703099044356374 20.13166797079983
K 18.333176589244264 17.15477175521335 18.893962445180787
K 14.700639942819977 14.395954644849121 18.9340692448519
K 11.085463961342095 16.960229340621176 19.044252181955432
K 14.78815655359957 18.05925426357054 21.689207279240314
