26
Energy = -20.59578528 eV
K 13.609383414062817 14.900453625606053 10.23314214153742
K 21.264262424650802 15.705364057936626 11.302100848767546
K 17.55088982225639 18.0047997626392 9.34521665730113
K 14.930344479397096 10.915116196567931 13.166643315484396
K 16.92217783517511 22.160188624201982 11.295291278629492
K 14.511545383314617 18.660979709620236 12.449521004500875
K 16.038713698677523 21.411942716350396 15.695862648470618
K 13.339442508503208 14.725744146409337 14.670273437680056
K 17.281763386158925 14.812425076897412 12.521839272573624
K 20.309410870960562 15.140938412895773 15.808334989682248
K 19.428191253588732 11.179877071825299 13.76573014421979
K 10.600322746667114 12.384074512950546 12.483548080193604
K 10.21244620600304 16.860999224197588 12.761442118713251
K 16.36784035823918 17.000414158365505 16.421902654363972
K 16.678983817072417 12.548046101552483 16.928080770557173
K 12.21310776779425 18.58462458960538 16.563712251327747
K 19.135006878942043 18.957572444687667 13.367877142901566
K 15.869824837880477 8.362796287353598 16.908925433373255
K 12.333603260476517 10.981437226622766 17.05857107913978
K 9.538005000798588 14.614855443717525 17.013982648674066
K 13.382950114859801 14.954274782594222 19.359035341560237
K 19.573052754029 18.849594576408688 18.43919986602992
K 15.331814459276545 19.16944474994291 19.919922031988005
K 14.790350404027873 11.018864249092786 20.72156273529409
K 10.289104702059005 12.172050689603878 20.786716638976277
K 17.72087935521529 15.146539302440608 20.234983208146264
