26
Energy = -20.57689962 eV
K 16.287352104624468 15.34043145523634 8.5410619344241
K 15.135473525926537 19.80468970567718 9.620314789294065
K 14.504561446205797 11.89249861697568 11.202198687061847
K 18.6241730002374 18.291852146438103 11.763808095221304
K 18.475616694242955 13.733435025162947 12.534190105578658
K 14.507316830864841 16.219801658291342 12.331576882206116
K 17.927432855314873 22.768154199000318 11.918860901482592
K 11.020057832192732 18.655574309397934 12.704937424183248
K 17.144407272139865 9.61357745278393 14.569303987498147
K 21.426502956185086 16.529478428390973 15.011959578963506
K 10.977970710142577 13.732791112729062 13.960739318401563
K 14.927901925284814 20.463219107887472 14.350706272925887
K 12.608749877031645 9.48983564848111 15.566546995898142
K 19.16303804357284 20.791100576177676 15.955040433562182
K 12.569424570550735 17.10447163327564 16.753394431819753
K 17.145438895469358 16.87922352242336 15.76406417788072
K 15.363790712628145 10.18429869748668 19.107411817660402
K 19.383514100654427 12.920097984005505 17.086098469739
K 14.967710686123642 13.169022808102682 15.590036509738287
K 11.748706837940931 12.978870486735335 18.75615690193967
K 19.77890111312812 17.26856729882761 19.370095121079636
K 12.453076639411345 16.842489345220077 21.24569808479055
K 15.71479057541757 19.45555129234873 19.1836466195694
K 16.00656185059367 14.746833017544834 19.525729897769633
K 14.215168620548361 12.757057010202324 22.89803596554043
K 16.481862711779844 16.926579849410793 23.247888983984822
