27
Energy = -21.43208338 eV
K 16.61401158431536 16.996526138239147 8.7365644928162
K 19.087473947280632 13.162931069729902 9.229530284608725
K 14.697274344918922 13.152511000504049 10.370481129995843
K 20.838868067813074 17.28960107056632 10.521044345665498
K 13.480321636373828 17.440945664212464 12.21763924109567
K 10.653272071643082 13.86998420544949 13.005410900292171
K 17.71919550065566 15.459053568299579 12.628148200059508
K 17.212382029589765 19.88401788564068 12.750640790750825
K 17.782150662492864 11.07435051884952 13.17998950831582
K 21.535049602082864 13.482086641878912 13.04270181596955
K 13.158432967028878 10.095748508144043 13.7043727027541
K 14.467083671585549 13.76459214627756 14.929761537222326
K 13.243006697316112 20.674386529182836 15.61039497784834
K 20.32235218651944 17.69871457284507 15.390567589786851
K 11.378145747944439 16.740545636525624 16.523331864700808
K 18.818190595795624 13.692353512110063 16.94063235749837
K 9.763005063102696 19.872349571433332 18.950544835795537
K 11.04196386504343 12.470806397688452 17.61098070500842
K 17.67922417610014 20.948857510292175 17.24776120937411
K 15.744486374948158 10.543748752670782 17.558643264293014
K 15.943271656720892 17.40166341813707 16.16995460043662
K 14.484074703289084 14.510270145211468 19.263198836795127
K 18.12571004410796 17.140206349955008 19.884995224929167
K 10.60863139591253 15.804595924350489 20.871442468249143
K 17.74554429050511 12.77417382693214 21.36444821967593
K 13.927200264925279 18.953206291531504 19.951537842582802
K 14.770146013078852 15.942242304432346 23.185750214569573
