27
Energy = -21.55307102 eV
K 16.787345341400222 11.382506192078829 8.062986310028023
K 18.62644597911711 15.611972164036027 9.11049876036883
K 13.693259797366155 14.810624205285267 8.810015700623957
K 20.452162622006636 11.809649013502053 11.009651605818593
K 10.701097888872065 17.830134552656688 11.219222968464477
K 17.106321297986344 8.744041759076204 11.802054435121104
K 12.938935061771407 10.365122487771051 10.992472416718487
K 8.708654173581088 15.992915199312902 15.578111084550017
K 16.338247595284933 13.157389041287393 12.019392251948304
K 19.354912131478265 19.614378796926786 11.426581456217553
K 19.701786212608493 15.718797433271483 13.639428405719121
K 15.27182288866811 17.818990789616365 11.86462166765843
K 12.129367085558101 14.273720935767624 13.108651326445173
K 9.537044349957315 11.357072569914566 15.03340487327297
K 12.537632223733947 18.310263519539884 15.582495855693459
K 18.649816916290757 11.484151462774479 15.537655236443893
K 15.629128747218912 15.111012477926025 15.661068117628718
K 13.307359337596772 21.10419111672659 18.97785526092717
K 19.030707922090713 15.47918354910015 18.249632668200576
K 17.08056391445272 19.28247859963336 15.93889817027133
K 8.073243279365592 13.344655958525498 19.356519248733235
K 14.111595107191015 10.466347556826314 15.391848292233938
K 11.05566094542727 9.901840173400373 18.990931021302465
K 14.865551997730593 17.04447056133703 19.741515557467864
K 12.093902519859192 14.046843916561583 17.84742888984273
K 10.254916569382619 17.691579785388697 19.70981185165714
K 15.907301574165512 12.190449661918324 19.282030046803335
