27
Energy = -21.2719333 eV
K 12.109390995391196 10.254585662121864 14.80504583454852
K 9.452438485730971 13.630073357694291 12.884117630805997
K 9.558749192831751 13.241671881644308 17.38681070442103
K 13.743520051984897 12.222205198236678 18.545787023158567
K 11.85814581070062 16.262570110194634 19.712119704704968
K 11.41132889136465 17.032678594250243 10.643800938207383
K 16.633010518495674 11.00343867857532 15.21751097357378
K 13.796250561478619 14.207198160511666 13.628072721796208
K 14.791583757906546 18.96932292594804 0.364512382548142
K 10.988631673747122 17.071922460673303 15.362672018009084
K 15.937620297030051 14.807781836370504 0.585277252716862
K 18.482692694294723 12.893705296386784 18.927051643329268
K 15.912047836494718 16.292990075633423 17.16633328844677
K -0.07477974183586344 12.170656216586504 15.555112248667829
K 18.16167320471006 14.545536400870363 12.92179036137286
K 15.861447253406793 16.689229672239243 9.66936235721776
K 14.805216148615239 18.87331025557768 13.3191376571085
K 13.549357700333376 20.31165308382954 17.520988357275154
K 17.094431717766067 1.1149199379140422 20.09566493820054
K 1.3368832999134272 14.464589175149046 19.426020682006452
K 19.27937212895495 17.876903695206167 20.112576170851217
K 20.477750862881205 16.6370223774449 15.99123512359089
K 19.177677083944648 18.919944040721074 12.105399778712915
K 18.033194285116384 20.42504721506287 16.272351865873638
K 0.02236226790436084 0.9769525994285667 18.947170164879232
K 1.1656542216377257 20.529570526602917 14.808341966437258
K 2.5608788079842 18.56707008582657 18.582245625569534
