27
Energy = -21.54196758 eV
K 11.666057280195533 13.545578642601212 9.385748899207764
K 12.015197948114862 18.025744347275833 10.694950016141927
K 16.120427026935143 15.373022000857526 10.198265015164466
K 14.9924900725442 10.972625917477027 11.677206344032227
K 19.5170569107233 12.421037334921692 11.365870009381922
K 12.794290986130235 21.74754442437815 13.548842908413246
K 15.728183868429495 18.39944151192608 13.527583200291946
K 10.376862471176596 10.979957805202616 12.942990797188546
K 20.22171975338501 16.81420463495416 12.868665590197255
K 8.678171967368474 15.344657165088577 12.414781137404026
K 12.905490570247439 14.634690350129091 13.327746124476363
K 18.418042491158314 9.975903278876194 15.390939958637025
K 17.125711212292337 13.929500091466293 14.495674056526276
K 22.533265981449322 18.371839289215828 16.93193672765927
K 10.12497004533393 13.700406996539272 16.755550285220806
K 14.325867955012614 15.664667363321495 17.252872656898642
K 13.912987352992428 10.996717847615548 16.239737853632256
K 21.321464617922665 13.86933027579141 16.458618756553626
K 10.981591234293806 18.21457854300087 15.368239254512961
K 18.42187388264164 17.273471354791198 17.045311785419212
K 17.65878621734067 12.85972503276867 19.075682976218054
K 14.941088941803255 20.188106764453124 17.69051265758318
K 19.513466943214517 20.25802110352091 19.921153633315395
K 11.631732895934308 17.295174804974025 19.909769346725003
K 13.184856000197406 12.925012104395204 20.446955059000434
K 20.93890437943662 15.848281655796777 20.56518909476956
K 16.472308541206385 16.893626906142227 21.02207340290929
