27
Energy = -21.54995759 eV
K 16.13170969587153 20.623645712561512 9.745976302694867
K 13.147953530495602 16.51646099802791 9.575314391673373
K 17.868516549199068 16.461917326747333 9.850563695658272
K 10.523666546830686 12.758076042345364 11.393084942442826
K 22.099143584238888 16.14540228958374 12.026511636230383
K 19.52690667532714 19.861711751518865 12.779586159773718
K 14.98057693125261 13.487484517840958 12.324715131172145
K 19.42865618147702 12.351596498996496 11.94600551745923
K 14.971058419009799 18.262339636924686 13.143163328759815
K 16.11274241167371 22.34598596970149 14.248450011420909
K 11.053776155780758 16.165624834056914 13.925081501404291
K 18.348806267766644 15.76571802185936 14.365528585491136
K 12.406096356466687 11.60429644974911 15.561011634099348
K 8.236500463129671 12.757649658886383 15.672483753026464
K 21.591646642986596 13.134406421114862 15.804192103128125
K 13.533616468612289 8.315098855559157 18.37756025781393
K 14.662377414825379 15.36160823428414 16.522058250942507
K 21.75235515440472 17.63798581276453 16.43363500266699
K 12.95507499141639 19.50956526155558 16.921627341405692
K 17.422366992907694 19.15513040588661 17.298711051302966
K 17.093296795099235 11.463704725626517 16.083338545568104
K 10.81556681795234 15.330534459219294 18.573203827143054
K 10.113377616232073 10.92899704332448 19.517289788717
K 18.583405518159978 15.009928758434809 18.932013290835286
K 14.620598682144658 12.375430932376712 19.89592742566504
K 14.660669758752366 17.052251750884185 20.62207538952373
K 11.62330989971485 13.881220151897375 22.724663655708316
