28
Energy = -22.46537489 eV
K 17.207069574086045 18.6568601337052 7.676580432136097
K 13.596049253593042 16.535476194150018 9.639564723136248
K 18.015628047157588 15.935728137930942 11.006426409403618
K 20.339623891997782 19.80590946157123 10.673501428066345
K 15.749105614894436 20.763668107666856 11.36530595530063
K 11.370709632538212 19.658832436548245 12.474623786364921
K 14.984775199876124 12.646140221955836 12.833837663810947
K 10.835260238062414 15.067145928209209 13.21168175937029
K 14.692665738736673 17.083859417135915 13.80599288396599
K 21.86282880243356 16.528463330231077 14.030135246359972
K 18.52972955114561 19.471540572959587 14.717892991741964
K 18.174741170050126 14.556057128921225 15.229889922161407
K 14.15652656706704 21.32586718776347 15.74062939129698
K 13.337637233728682 13.604046021163102 16.902748117855097
K 16.883253545794215 10.641403824171213 16.877920588322237
K 15.773563511432169 17.628657024629653 17.833562697179612
K 17.81758316481027 21.30688939814971 18.93974955685691
K 20.403876615915394 17.494926198638385 18.499464238577048
K 21.30403928714915 13.00659606459058 18.00121501286568
K 11.353803853638443 17.874274328759814 16.948217303386354
K 13.558921235548196 20.349216422001906 20.396540988011907
K 17.263258037504308 14.195769107650715 19.576143027441457
K 14.306557222495277 11.18076464236797 20.896439453525506
K 13.198398672306762 15.788058205260295 21.157799692378894
K 17.24901284652445 17.979543534884023 22.229258437642986
K 18.940298939557067 10.612497672493943 21.285293037776817
K 20.742176295993875 14.695613331972465 22.355639653025772
K 16.527278561337194 13.780568269890958 23.868317907412415
