28
Energy = -22.31244239 eV
K 15.686738077075187 0.352825511839334 0.750666315131397
K 13.379970551000152 16.894424040241866 1.1784411654468137
K 14.193985859655703 18.715488373795687 17.778795218501354
K 17.8948677502681 17.233033195219505 20.132371634646564
K 18.28941046177075 0.7095138617032933 17.58310771530002
K 10.873598432399234 12.98983183339778 1.5327166519226971
K 11.047913411461664 15.252666577482396 18.306427132689745
K 11.934752266409903 17.16634876099065 14.107784967236087
K 15.38246769910769 20.31411405454331 13.784240139752221
K 18.35050895557507 17.275681968630963 15.64494271239884
K 19.8156677300449 0.8347687733701373 13.25464583200834
K 15.223232839520932 13.006964844071826 -0.09742112332744222
K 14.920592524938787 14.349608302581025 16.14545964364298
K 11.909515096103627 10.69706579082008 18.361519089656234
K 10.767942928978178 12.61420104437312 14.476826787289454
K 13.067250341652466 19.033046994840547 10.08695235819861
K 19.10825683789225 13.378088176220144 18.281172690582324
K 17.601846696264726 19.82430601232012 9.727280945625907
K 1.71284027134114 19.43380389937497 16.102548983570184
K 12.586751166989629 8.354603482352573 14.563328139255862
K 12.19402755796603 14.473163868292586 10.415488442362719
K 16.197888203610347 16.063055986802958 11.891383198017259
K 16.353989580588767 10.06492453526911 16.772886954988355
K 0.27494020380511464 17.213136748361716 11.91929938704302
K 1.8538731128303936 14.967593247554078 15.653630329257647
K 11.072560864970397 10.006844633419105 10.716782368204207
K 14.937834013539211 11.51171105026603 12.585284612907099
K 19.016055294730982 12.962542515762872 13.786152681086365
