28
Energy = -22.36866639 eV
K 16.017401164726845 17.36547132223684 8.064881735110616
K 14.324667543209003 13.656842613783727 10.047294109096269
K 18.857228994888892 14.551561262779549 10.540130276417273
K 11.96459236519641 18.158039153178645 10.550264779720507
K 19.493822019802003 19.062884432067666 10.7717864033422
K 15.910516218381677 17.259764158142428 12.273622149188741
K 16.58413295858636 9.966494713048089 11.755355430470841
K 16.35901429964024 13.285964205021104 14.154057127399394
K 12.304566516836662 14.916795344100317 13.975379037202941
K 19.815292621021825 16.377020618718824 14.519039481652442
K 8.997689159026315 17.320606706941025 14.403277605806643
K 12.871662363626394 19.62942062259692 14.564931526697961
K 15.389070988031355 21.136617920399477 10.740636916346167
K 20.148791925541637 11.712367350913658 14.474472866099235
K 18.500490759628445 13.409550060652988 18.333735038799666
K 11.580780351134102 16.742804840078755 18.197771902674223
K 12.889006192813971 10.213403981979015 14.323631644959045
K 13.935254633982849 12.90130306367292 17.8048735567222
K 17.615587362584012 20.608250241875243 14.848421854814266
K 15.713900226651775 16.742435233003203 16.591256166308785
K 16.671155994615948 9.578495434199828 16.946910295188083
K 9.60834781738425 12.92747649870412 17.163603395055688
K 14.913933577616135 20.172735424351053 18.659460980641366
K 18.962767305455184 18.14011756517622 18.83286790437784
K 11.593380654848845 12.864333966433346 21.255533808404962
K 12.288385729065576 9.087281424960446 18.601918963024662
K 15.832684558046575 11.001080877393298 21.153509181524285
K 15.369483343205292 15.724488609139367 20.964983508502936
