28
Energy = -18.57717869 eV
K 12.763714877050209 14.679803693374975 10.107209417969996
K 15.669462774715022 11.26298944917337 8.69463536525094
K 17.279191838288416 15.27698923793647 10.437036867189104
K 11.95938988358151 10.428850097200996 11.015892177114125
K 9.39639561747202 17.265880918982198 12.402940716915872
K 13.901640993655807 18.037998382490038 12.637317323330947
K 15.458093900053957 12.148263616412398 12.913635855217082
K 18.099983096749206 18.85148441007109 12.98457684397389
K 15.77445261840096 8.05340715540808 12.110781099588692
K 19.468353902291145 11.24139045029288 11.129571257955561
K 20.299702726552688 14.935189600079585 13.676445404996413
K 10.930676330285273 20.766655498152712 14.6219189003145
K 16.279173024207186 15.312087177924159 15.275410913583498
K 11.853058759970182 14.253574077997218 14.48540757064041
K 22.43092518342176 11.237195546333002 14.808288479444899
K 12.565058631864508 10.005633217613184 15.560117198565388
K 15.262223014927715 21.171682252436106 15.897576246115536
K 19.599369835669272 13.429837409046351 17.745247273202853
K 15.496411318640558 11.726327443813055 17.97642100616545
K 18.53607136977305 18.046396559354683 17.505585663732898
K 15.94901859718545 15.44941668860642 20.154715536509617
K 13.462108108219002 17.627823129903906 17.19175089910301
K 9.278995930725932 17.517976585710315 17.07550851358203
K 11.657599313643054 21.26481821943897 18.869009590651714
K 18.367225591915126 9.840272646777663 15.203013779100228
K 11.765014088192936 13.589495112832358 18.773023587628916
K 15.623453129176447 19.963804409260327 20.45451882810896
K 11.76661657930151 17.508138049306883 21.185824719976203
