28
Energy = -22.36218615 eV
K 13.763442522278158 16.89942923593053 10.250108430052157
K 15.403808836423782 12.240975748318718 10.669127020170112
K 10.720661455909044 13.028922290684223 10.123511028665538
K 21.052461545302503 17.55945261320433 14.119184675607512
K 17.284549760414308 19.99609195295481 12.188597668176579
K 13.368672439991583 18.796733451375335 14.279004486282648
K 20.164475591307937 12.712102860885139 13.008845038144814
K 8.730910584690045 12.465264611201311 14.327187072771139
K 16.276812898368977 11.285453086880006 15.064580256527798
K 12.768511672709367 14.15217902111118 13.697214506840686
K 9.290231959922219 16.79933559702723 12.720381633897919
K 17.01097001856156 15.7339898451378 13.033314390378873
K 20.51464953110659 21.71162834033143 15.875543775310215
K 12.186495517195805 9.750689594434142 13.084181301062545
K 20.525659528899542 10.427887340423679 16.86380241495663
K 9.528280906716008 20.207206747546046 15.862065273883601
K 19.094784975827388 14.629863432072613 17.05638932690017
K 18.500537908009402 21.031591735461905 20.151128450442744
K 12.0908974038888 11.573092065430213 17.414433816615322
K 10.397622416114707 15.987723757815585 17.13768533429751
K 14.860311836189073 15.337303440346696 17.102719790183723
K 17.327361887181173 18.898431983185226 16.53913179407168
K 21.540496509812616 18.033265650341264 18.66715694318193
K 16.51692911799822 11.973802012035327 19.62794495952102
K 13.44510813064005 19.14398669041209 18.939987624289646
K 23.30991262329308 14.126040752322416 16.543895266233612
K 17.348860405539543 16.718685514633314 20.771439189608003
K 13.001297258507957 14.80358587129756 20.906153774725315
