28
Energy = -22.50827351 eV
K 12.74639389116934 17.175278323467115 8.334242414411694
K 15.728292423501326 13.476265857442835 9.898816776777327
K 11.196984640983676 13.104101751256463 9.414289620767006
K 16.508461869029574 17.99510038549086 10.910631838955412
K 9.000093183741177 17.224470220511364 11.021872721103295
K 19.882367323635368 14.595437381851886 11.64597624477502
K 12.389964787812502 20.23058641950611 12.021309637634003
K 12.811922774212023 15.711686838511769 12.521178609169763
K 18.338059992578955 10.270415973087609 13.550003876544185
K 16.454964283128437 21.707167495227115 13.566111501323528
K 13.478559894812975 11.218413055858301 13.373858161349897
K 16.526626930936512 14.20439358185466 14.271402419365913
K 9.385269214455446 13.479138979050562 13.881499548904422
K 19.231881482294213 17.942247938053633 14.734831061972415
K 10.296282118692421 17.766876397618702 15.704971610284069
K 20.616360003468348 13.190043389514038 16.332823494696996
K 20.18295410294609 9.045715955188518 17.97898210334892
K 12.767239339699762 21.671551441754506 16.465993580977635
K 16.15594049761759 10.908717812173927 17.497851536543834
K 14.771287971711956 18.020832650891474 15.444007874888042
K 17.166548065733195 20.108054290438826 18.547007324428243
K 16.896171014772158 8.986046565421193 21.35091236679462
K 12.706545853135873 13.962769739003184 17.224385329520032
K 19.496965747090968 12.720074816482365 20.831007258408086
K 13.475604604197986 17.62489151620107 19.763797933794134
K 17.254064523626685 15.487703739487273 18.26726608482935
K 14.978985246836924 13.14427951342998 21.333516387768913
K 17.60857468913031 17.08110444217644 22.164819151614516
