28
Energy = -22.36078923 eV
K 15.826239350877534 20.48932055344911 10.14325347020261
K 13.128694513495143 16.586721780422796 9.938560131428389
K 15.049547634440621 12.200480802781955 9.5479942447433
K 17.65296026757916 16.153806563209336 10.690927723356957
K 11.65858226423278 20.665781446651657 12.056280187083564
K 19.16048764719579 19.55687555743364 13.517579205363697
K 10.845101860794651 12.224177378431703 11.78212189368636
K 15.399210450832642 22.51964992376821 14.26478051818506
K 14.857163076511991 18.21682468489852 13.716519332887197
K 21.634333160513776 15.344253595739136 13.227850592882104
K 14.374522880697636 13.708760071724795 13.456191102605622
K 18.405495762539122 11.69703823770794 12.796987183928092
K 10.565935080542433 16.50455060293987 14.22005047335106
K 13.935400057802754 9.171155681128923 13.916555056189832
K 16.25450742977404 11.365302918961111 16.933963291919223
K 11.311018743460851 12.024936151223939 16.546206588635783
K 21.083308387799054 17.306543598797944 17.5526864849608
K 14.022084560536724 15.606085005890248 17.31151594953584
K 16.852432778413956 19.439633575916986 17.666050493435634
K 13.546519037766798 8.621025063594676 18.75138957668851
K 12.246873485367411 19.911873361149866 16.942945162810037
K 18.005944009792685 15.41428755904253 15.376980333668675
K 17.635816564873007 10.509914872815404 20.889840834861193
K 10.115075592778435 16.13906456986861 18.811125665089843
K 20.631353326406533 12.416271659343938 17.587931158189424
K 13.544733566512377 12.770076191063657 20.68109495595216
K 13.905077660263524 17.70954070038246 21.007751642746616
K 17.640051295084614 15.014518338547415 19.95333719249793
