29
Energy = -23.22341672 eV
K 14.690131642887497 18.991715680297933 10.373765508806033
K 15.671596377092328 14.926131472658822 12.01037566370265
K 12.3020216108028 11.804026344656602 12.173421180023032
K 18.29943726488429 18.33292147998718 13.360433042981953
K 11.194374341864611 16.33992468323525 11.564221851158733
K 12.547296838661257 14.646150504870327 15.423162563850504
K 13.982224132127966 18.733791462505245 14.524308297683982
K 15.937760563095278 11.482372431298689 15.22755031436421
K 19.59095716313635 13.82202571565066 13.80124398011446
K 21.14132798306392 20.87506440182102 16.13143421853314
K 22.740429379749234 17.079800202257225 13.96922558892792
K 8.685569784425557 13.567542420468607 14.291513790793111
K 20.06967334482203 16.876875618186432 17.332472878482147
K 10.76192280549488 20.762548553264285 12.493295776294485
K 9.512370068207204 17.94045262258088 15.726662772035484
K 11.41377170525239 10.667301728824087 16.542744942292515
K 20.438843817477352 9.976546511937652 15.79215561196445
K 9.728527746509437 14.394575404978285 18.664548797634072
K 11.846361667858467 21.57370606391296 16.886286440922525
K 22.926894550676987 13.494045256787922 16.974520915205648
K 16.315991039754493 15.704358529635194 16.479329402154946
K 16.696165785421254 20.10442084561916 17.732921318764763
K 23.998820192709516 17.93470918609737 18.254604806595893
K 21.56119971865803 15.341493665237897 21.051186132027127
K 12.993421923191244 17.708400740422523 19.012242725036376
K 18.727112025043002 12.628784748628378 18.76360950685755
K 20.405796124825418 19.777271173759882 20.50862691530787
K 14.157689212568298 13.270524353336617 19.44348403061135
K 17.00619698713662 16.58640399448117 20.83453682427132
