29
Energy = -23.21854317 eV
K 13.99240813606084 14.945532387433266 11.043886007348277
K 16.539388499299637 17.198759244316985 8.207335773296938
K 20.966853717955455 15.456323317836326 8.91687438106173
K 12.067153551627642 18.41356700748733 9.284280534762878
K 17.36706378414675 12.800616957660798 9.227660113895233
K 19.8114713789217 19.549662871801658 10.460726523547844
K 9.603954817498465 15.069472509981534 11.687413250930309
K 15.54166506290528 16.39250112407384 15.060123167358789
K 15.535866184805558 19.68181345002897 11.95086932371949
K 12.219920690870651 13.251144905251326 14.837049227954049
K 20.719279154317572 12.261348841185045 12.399660963693558
K 18.4229942775761 15.909346363044207 12.137077719510609
K 11.704891465594978 18.092447573567256 13.877561940044894
K 16.43722581431041 12.036079021869652 13.706705607294108
K 14.057464208097482 9.503396508416623 16.86560880127693
K 8.724393350360865 15.084542832566534 16.757383368857862
K 18.934288501777083 19.15991774689469 15.235232605037087
K 19.51502619357105 14.638715060611222 16.40760974772027
K 18.50784768032543 10.3042177202051 17.53862082524076
K 14.794685456806189 20.3402764116798 16.708074834967903
K 13.44375351438679 19.127133415413216 21.35499970744832
K 15.499429180426 13.35424457197881 18.04732633067108
K 11.379838159674915 12.316659422400727 19.35349326716055
K 12.565331604259518 16.632738650065388 18.02727010940853
K 17.174536165657287 17.46384198047162 19.18849238603028
K 15.316206269338952 10.34742544250576 21.134194723114625
K 9.858381808145946 16.206047429091555 21.149853017221798
K 18.600679813945796 13.294924269053405 21.010662610309595
K 14.314042591601334 14.78334399737389 22.03999416538206
