29
Energy = -23.17215045 eV
K 13.895894482356097 14.968647785241577 16.897937519351338
K 18.24274323834175 20.861685991765302 17.573696500897555
K 9.949405669642344 20.276892834510644 13.981044395748787
K 16.990858851257556 17.005993556103626 19.704360400306854
K 22.23723372814953 12.600193804954642 16.715111723322885
K 15.922517337107028 21.137612008280346 13.62328898611827
K 9.75244596959902 16.65257795997533 16.369186900782832
K 12.768512013512643 14.311865947425513 9.917836729934162
K 15.214113506808975 12.716093856415023 20.34415409603486
K 14.329654636446985 10.495268638004948 16.076205398172515
K 18.08141583694393 13.328495457366007 17.058904967438707
K 21.092818396103812 17.044053645151664 17.380626322274267
K 10.696249864993922 12.101848692122141 18.165334237546165
K 20.353657654645446 19.670773880472023 13.691231369737563
K 12.051206792317686 16.172239638432373 20.342747771221443
K 17.639488940875076 12.926028826455873 9.781466469666379
K 13.568949131825278 19.4507303563437 17.18678636904803
K 10.019234239447757 9.241319224741222 14.629506243228844
K 18.908034037100236 10.743235743053802 13.666513691335204
K 17.160717401737443 17.427098655182693 15.342012680718423
K 9.157062273840364 11.591011050505811 10.75007268091581
K 8.84014615278911 16.226730618217843 11.865610692113282
K 17.124249833787573 17.340098642500877 10.960672328773104
K 15.667586497804315 13.728685985528104 13.242013582170083
K 13.043328899718256 17.467645629657166 13.094562917753947
K 20.266669235204155 14.982438826394459 13.294599651956995
K 11.149716741714515 13.22957917124318 13.97673305456359
K 20.26772491412198 14.004460644656358 20.64287033871302
K 13.476220872695608 10.164550080186636 11.592769131043651
