29
Energy = -23.20491791 eV
K 9.120713098287231 16.407209994656895 10.478274781696417
K 13.871610130595734 16.335244851213144 9.66017949692125
K 11.304379038184882 12.583314212056537 11.088084593518337
K 19.11785129229268 16.010311756972794 10.969152072172319
K 12.07046429721698 15.967967275566084 13.595235004121083
K 15.780787546437388 13.563629967687532 12.640480235529216
K 20.665237790094444 19.272969355396196 14.037545392283846
K 11.708507896465965 19.848435320253287 11.713082619850077
K 22.935149269632227 15.327058724946301 14.00261492742491
K 8.454122753022764 13.514260397740385 14.563966918807973
K 16.018661274281676 18.44460741672752 13.094780509684458
K 19.984023201237623 11.889359526546977 13.152744877547564
K 12.558648742768536 11.802796232676943 15.459482496638989
K 18.89145995627777 15.502264306946955 15.305750747482042
K 12.918648305410647 19.442796494284536 16.33675869454626
K 17.059994614530343 11.486421673117755 16.548180012132807
K 17.363061309241402 19.415595433852495 17.23814743375309
K 21.38433954365068 12.493918363179397 17.51638397827477
K 21.24637564591129 21.36575688552182 17.958843685638445
K 8.560958801352335 18.010422266669742 14.65946573410604
K 21.860487855596798 17.044574558255384 18.090871918796324
K 14.002399550282963 12.633595229545234 19.737623518700918
K 9.513796083306888 11.397502781730815 18.420785175671618
K 18.19931264749719 14.797045593100684 19.778484621975096
K 15.013102105165576 15.536980979928005 16.663177766571668
K 14.581179827035005 17.58604144686435 20.31537743469136
K 18.565947924914948 10.551372508579425 20.512950947285276
K 19.16297273462179 18.8416184117821 21.148899171620666
K 10.770534903488867 15.611656173002265 17.99740337135944
