29
Energy = -23.1022287 eV
K 17.660344630772023 10.731487048812772 13.478578619244933
K 0.0067506093808823745 12.307577906474402 13.6599695892039
K 1.4205030175727962 14.19007670422858 17.444489845224687
K 18.564150140067266 14.216008875201547 10.747828148698709
K 19.258925195342552 11.99079398151854 17.521295434972988
K 14.081261645861979 12.568511104921376 11.660103168332371
K 0.9552608109190064 15.794223393232132 11.302831742211593
K 15.033583711145221 13.316290718849716 16.08454548783287
K 18.977059824500234 15.590477779880397 14.97175804138974
K 15.24772672031633 16.74584218388606 12.832082774774708
K 0.966046485289249 17.984284943839704 15.156326982402932
K 19.52257110676699 18.775740247789255 11.860345118353775
K 20.769506565903736 13.477066572134396 21.44785074776157
K 16.396870570289806 14.387626349192772 20.283294727706085
K 20.060455285071747 17.114547704363392 18.93706257386975
K 12.025342284731753 15.685456107610035 18.973141291019118
K 18.55050780791849 17.102609265297257 1.4244011514985886
K 11.156348985438399 14.937184521032883 14.57278364502312
K 19.272492583503208 20.72703669820277 16.069649703322543
K 15.969691079273755 21.13673132964381 13.283249905795321
K 15.666215433151303 17.964014671712988 17.460857330770178
K 12.05114156088423 19.35957081385054 15.060047629097737
K 14.206545304415057 18.090961221792348 0.3305411483452537
K 17.8548565600147 20.77134814558062 20.544308642164097
K 8.422408702592294 17.671332217823068 17.126712370232298
K 14.932268969195183 0.5778017676117635 17.480783586187794
K 16.7067058545108 20.773701284137694 3.097318213232857
K 11.32846564493401 20.23169521985166 19.44675594756118
K 14.163821056190214 0.9600230623911331 0.012428832139986822
