29
Energy = -23.1503896 eV
K 9.662973536366737 12.969314220083772 16.861660485060614
K 13.67546372647741 11.752464965422266 14.159754247130492
K 9.815672987377361 14.223621772084496 12.37672983162195
K 17.751131548905 10.947497243224253 16.596581528608223
K 13.969504687044402 13.239184107943966 18.510293192335716
K 22.496564786743622 13.368597381480809 11.693214261450006
K 18.087279201701993 12.033174296010063 12.108462205937903
K 21.615544508933148 9.993793763550974 14.414278870862994
K 8.201086895848457 16.999693981548226 15.537156319023374
K 11.004499172540518 18.675033950478486 12.267073251688116
K 10.775131694552837 16.561225832125672 19.41711508566683
K 14.532362900319105 15.246326850633537 11.287733795429396
K 12.365948384872933 15.93074539876974 15.255924162811997
K 21.931635382908855 11.79919865079221 18.725694804171415
K 18.500185841672973 18.859076690520432 20.50120510489095
K 19.26479653829068 18.554952458871913 16.17160701751507
K 15.730280870777055 21.756004185325697 17.130709323819858
K 18.339303150306204 14.596819627395556 19.400300760050047
K 14.707674821787693 16.14671569537111 21.975985478408642
K 23.23853620628679 17.23464713703216 14.375065774797358
K 19.10176575781543 16.57652566867559 12.021060185068123
K 20.764483891705893 14.124862518984864 15.51437354706959
K 11.469334125249123 20.120395052426087 16.59721672038846
K 13.142658035506107 22.594389622524375 13.426715007287722
K 13.188351045301449 20.295426116023265 20.74895578827409
K 15.517501349401249 18.983959193202956 13.541935986811108
K 15.118602499674317 17.639022452981308 18.000651186848756
K 22.262713448375326 16.638760162074682 19.013669146192775
K 16.5261313056906 14.895689306874994 15.12599523321064
