29
Energy = -18.99149163 eV
K 19.65139016919647 17.45729546868005 10.017581462401704
K 17.174306702101568 10.701152945373895 11.503750155493686
K 15.88931753298489 14.751021597129757 10.277409436435093
K 15.389956263589259 19.1771983336765 10.622765573223132
K 19.584389868905298 13.114890690863158 8.474940492778787
K 18.78206497661832 21.193551311647035 12.9827845645873
K 11.50932715781035 15.989390954859326 9.953512238812918
K 9.02150428806185 14.694394955219558 14.217607617387914
K 16.028143187590057 13.369653456324562 14.672900812361956
K 17.529562545611064 17.273025123295124 13.79699002401215
K 21.69871819202339 17.915759972077982 14.238671162275097
K 20.25467108079104 13.815217228743983 12.764983887797541
K 12.464876651382244 12.206468990982481 12.492347779113258
K 13.069897607971738 16.662046799918183 13.675548746782779
K 18.78842221425006 10.56035106138112 15.98834512924864
K 14.06425040813407 9.608600227648774 16.153665041378087
K 9.44698088749862 10.437843021329801 15.933892583679386
K 14.675859479940462 20.474900080126712 15.372441422852182
K 19.370482100354394 15.00865883278213 17.229909828781054
K 12.206455676143934 13.5218785431302 16.875164492073935
K 15.148056521164095 16.663542182465335 17.528224139208266
K 18.68175197353125 19.549155042074112 17.398410424115994
K 10.76274985265907 17.74042192391855 17.485516444332873
K 15.866383836137947 12.43941930409573 19.25426479546826
K 8.461988796462203 13.923149432375766 18.802096235133437
K 11.60071495001697 10.695873396692962 19.98148357358503
K 13.724608775208385 19.589493431686492 20.2635937677557
K 12.423558205368911 15.214502180319474 21.014817573577485
K 16.92321010081747 16.44474351350664 21.219980597672247
