29
Energy = -18.54560108 eV
K 15.14156632449979 13.447154543243876 9.704019235463589
K 19.357498272685877 11.524363635270507 10.28661868592014
K 14.878843824444825 18.397943911356144 9.815745748345789
K 15.45859535387984 9.156208788320162 11.395359482587384
K 18.655268120332543 16.184430388288053 11.267772016588328
K 11.000709386978816 15.893214086657773 10.991153934435452
K 12.30696892564604 12.114694115267358 13.031074934102742
K 21.324827041964532 13.032456488367986 14.488312088223244
K 17.003905386283428 12.58947242761349 13.560386491469117
K 14.64431435883712 16.24348937826024 13.244333756009793
K 19.131957196172575 9.004869366559774 14.102310311657469
K 17.02899811773691 20.029883307013826 13.590901876952254
K 12.341872636350395 20.079500433155076 13.786962943342793
K 8.034586823981444 13.315850065653224 12.881015347834609
K 14.516977515253988 14.024979642153896 16.812264099683883
K 10.833767607959878 20.143749263077083 18.131359750138877
K 14.738506902084994 22.505128263116973 17.017810107471703
K 18.456061923667885 16.36943160840768 15.757066277813163
K 18.492410635300665 19.917360482603588 18.787843829463267
K 10.58573618920855 16.180266519686942 15.487843836742485
K 14.920573104638963 9.616796270219584 16.022360744837872
K 14.609791612426031 18.345726579579672 17.08230940705283
K 10.88462049969095 12.03346187718086 17.42080573683527
K 12.157728877299917 16.11344088251034 19.98485774694597
K 14.458797504086435 20.10146415252851 20.905052764655647
K 18.52825764319542 12.26534156455597 17.885827584148853
K 21.44043909532608 15.992562752640149 18.65164128423845
K 14.64959824610191 11.997243954419794 20.324922592466233
K 16.972260175506747 15.934954553834018 20.13750668611465
