30
Energy = -24.08357945 eV
K 13.705388680250607 16.269537122425245 8.260370403144348
K 11.794228063244978 12.416297664540222 10.212058139934122
K 16.500022844864844 13.036692275061093 9.877029090269215
K 14.638166620265963 8.87376777053037 10.615692973578598
K 17.507082170775213 17.460469711297957 10.995666942926677
K 9.970272605277335 16.6901077498441 10.840863187397193
K 20.61322239139649 14.14119764796665 11.465087615250194
K 13.421574838713536 19.740013389738262 11.265968736945572
K 13.790021588266706 15.642268188183921 12.42223315786366
K 18.40788787372028 10.375502732803056 12.893015183167782
K 14.119543027609154 11.277450309153227 14.013956685540712
K 17.553348235580096 14.426349977391766 14.238029542989636
K 20.307164122747622 17.74584552987568 15.034616042862108
K 10.31652498933766 13.80160238114204 14.41756372488514
K 15.995006736018793 18.92791877671927 15.05586227129137
K 11.549687332499369 18.39228349825385 15.346284934500716
K 16.982691768157114 11.655267148617352 17.79892299737692
K 21.095053518065082 13.652230414733058 16.90883889986305
K 18.05712055081939 20.421816631714158 18.891584666192077
K 14.084999414106166 22.057770562646567 17.538583599841054
K 17.74484091830835 16.137347817355074 18.325749769498906
K 14.00012233344486 14.912311024379553 16.680896523818383
K 21.408723805726577 17.33153587764527 19.812002873009007
K 12.36013811801424 11.336890047304424 18.247040399666563
K 10.641133656695326 15.506292746378012 19.157857206417066
K 14.757282038123197 21.248845385765968 22.23723447766939
K 13.939413374551737 18.26475807490324 19.520863136842543
K 14.885111476698153 14.116118045057899 21.131882831963953
K 19.413732432682995 13.513211134638464 21.321833151220368
K 17.44168063947445 17.629486529369668 22.473596999508747
