30
Energy = -24.19527333 eV
K 13.242130494133665 17.549401454720066 8.967627089995942
K 14.701330503803584 13.180255910987318 10.241245037286566
K 17.564390234143495 17.018343683813807 10.747135666555387
K 19.34029405743396 12.716160845526838 10.923023064187104
K 14.783719667581817 20.71349925954967 12.175196578266004
K 10.243184237966176 14.675502487026877 11.147931302012747
K 10.3218483456336 19.226195080301526 12.251814511402543
K 19.84351760874783 20.405574539563506 13.219570895799507
K 13.55624961129806 16.48632311245063 13.16273322678789
K 20.39164219031655 11.74381188007254 16.20907145545034
K 20.952186562665233 15.972342433080083 14.352261922458325
K 16.467857057502233 9.827987655857699 13.369292157387251
K 16.898591425683946 13.912523946874254 14.268342137023373
K 16.938449465231667 18.240064781846925 15.351557413840325
K 12.550964500049036 12.218268898612234 14.616440074503723
K 15.9945381734374 11.271142706954718 17.93876501310009
K 16.797790900636365 22.351217817993426 16.38961003553448
K 12.683333127961536 19.787408282394757 16.44725437794629
K 22.633443927722414 15.015923937941412 18.78988685582951
K 9.90940236075537 16.040148981736632 15.76659149849282
K 11.579752286072043 12.744498461680967 19.31887781802246
K 18.36552131873841 15.26119014748741 18.290694772904722
K 14.065564444944684 15.582958217531475 17.542972638189088
K 19.6969232066621 12.144084675988235 20.93338554231546
K 20.565324573995284 19.158550352742363 17.98572387470023
K 12.118887805437753 17.472372654493398 20.906067922035252
K 16.23712461978642 19.271032763008552 19.852561451562142
K 15.559261610552518 14.209587721298679 21.73890048217346
K 15.447879011043007 18.05636386375609 24.00526455375523
K 19.614992081084075 16.813358855727607 22.156296041501253
