30
Energy = -24.31707805 eV
K 14.237023095342714 19.25213267583888 9.488472901030006
K 13.135006934811933 14.714387455578944 10.21882645473581
K 17.91727384363463 16.42428827673291 10.836759925063083
K 10.158332630587026 17.92461252548703 11.815596218173361
K 8.877023482867294 13.422566255440094 11.38540931110552
K 17.48354367264876 20.680650899452896 12.669719683313664
K 22.05732206102649 17.74554085892586 13.462017321461873
K 20.755528042690138 13.388580151359767 14.026355513449836
K 12.685523067057199 10.562994052335172 12.687246403710276
K 16.112572175384628 13.218714292170782 13.487396057303048
K 14.299361617266756 17.552683758191648 13.416410736536262
K 18.278605446719894 17.03190980153332 15.265889085402664
K 11.546343766155326 14.258598220464766 14.64205399199871
K 7.624391651441746 15.997832364639939 15.202508060532734
K 20.525593199769787 20.190526841523848 17.094215391213115
K 12.860713443576278 21.658563846213205 13.125316798163727
K 17.89691620455181 9.598327263180026 15.553756426267638
K 11.016348132191371 18.871208590747703 16.382895374988227
K 18.120024718553694 13.457726517412349 17.696062510490876
K 15.549201176053762 20.346126662075918 16.914919766875183
K 22.036128663422353 15.850331639122995 17.83732112642886
K 14.547666101497597 15.895972871960904 17.391669621269504
K 10.573405697788074 14.911394065065998 18.92604303168369
K 21.66335248738999 11.028240815504248 18.03758321591778
K 13.419954832124898 18.304465810279225 20.660037479466755
K 17.694165995365406 9.925563113324152 20.239012291878772
K 14.003828729124828 11.39348101508207 17.362305059523575
K 20.08155332389502 13.641649262458952 21.601252525299756
K 18.16122476698968 17.559809963997015 19.99237842922102
K 15.36532497862277 13.87437407245106 21.26382322604511
