30
Energy = -17.43876121 eV
K 16.978651017885966 17.013031543284132 10.392498144709702
K 17.98017597648314 12.69045853040257 10.762844343736838
K 13.558058431109828 13.826849226481855 11.148322505527984
K 13.610099046205294 17.89456811068449 13.231352458455808
K 20.980805591386133 16.02437136743942 13.27728222857376
K 9.442091949526732 15.738030372423372 13.152274451866536
K 17.966881615895197 19.09723843524014 14.28565529295321
K 16.791263315333033 14.837211193615847 14.092915370033086
K 10.359848808607097 11.2104222301692 13.379176359401773
K 15.256380843731707 10.585036355207562 14.140507930438384
K 15.212474995352286 22.21336133768361 12.506745759310075
K 12.723209537559683 13.973336590188014 15.498985892542937
K 19.814797098611628 11.908286844174093 15.22774176620056
K 23.471899797637388 14.761090866032262 17.001520260986577
K 10.623727843168675 20.836677839484683 13.518384237704865
K 18.736726681381985 23.02314646589372 15.366783494440154
K 14.316391877776399 21.12267002848992 16.52451587273655
K 10.858060681207018 17.73314897953717 16.94850012745029
K 8.925551180623435 13.162934078833038 17.122157533717093
K 20.67957007306392 11.96793811092199 19.400799643139393
K 21.954944939332325 19.398794398702233 16.216470555523937
K 15.28615852628673 16.98678684837818 17.42639388655263
K 12.368942237697365 10.103930638368832 17.553342023573894
K 17.44063885974906 8.653257883800089 17.741945682251924
K 19.56240599305323 15.948299012980483 17.643728322056138
K 16.28018617483912 12.663368193307491 18.127249880956565
K 18.242322407092818 19.9731079179967 18.81669792347186
K 12.508991242798185 14.468739118973657 19.91210397453138
K 13.624264190129137 18.814321125849595 20.742948682407327
K 16.86173102264797 15.786838311628305 21.257407350920552
