30
Energy = -24.14636234 eV
K 15.347876869347864 17.7228796282876 8.159909424956492
K 17.2433045440687 13.404974447123557 8.537999802065075
K 19.571487321754233 17.131741291845284 9.875748124735049
K 12.690098716481954 13.963343423678316 9.435742257760532
K 16.490908274486053 20.141500403594147 12.129152126931317
K 15.87500592811394 15.721639134885269 11.961748972353636
K 19.68162784648285 13.23209249103274 12.497129390098722
K 12.074989771456519 18.23483743878131 11.651370374454254
K 8.78080307793284 14.969924528169734 11.343950458699702
K 15.210234973206925 11.215805371980743 12.322098329802447
K 19.380872755699844 17.463199802038712 14.588664093128376
K 10.781630908860201 10.794311721548155 12.298660065385201
K 11.935221821958256 14.417635999720636 14.337662490308217
K 13.261171127701939 21.807020258431802 15.329374256010409
K 14.479326034269144 17.90665594592177 15.597859667898138
K 17.638442036760217 20.915973278957257 17.154983688828803
K 18.206377765313324 10.152294697774586 15.962847684993795
K 16.41666843567026 13.930961817387953 15.785867546905234
K 13.428311069341989 10.87162402250358 16.921992458014742
K 13.964875020114723 19.52593366879122 19.92341156362616
K 12.900942252896467 15.117150300168246 18.724004481970592
K 21.543945873778085 18.40739224455392 18.66485844088643
K 17.403773520608446 16.765547230643236 18.793842628965667
K 20.7762690009096 13.95643812093455 17.481234190570213
K 20.197482870581847 15.400086489869356 21.850520690650068
K 16.901058935419243 12.381937124914119 20.049005918120606
K 18.390939721822143 19.76867628984614 21.745168380335098
K 12.888465111669488 12.322501270942455 22.016441308185353
K 11.269777286467903 16.742541977476016 22.46609603127335
K 15.66663748369452 16.011905935067627 22.791181508955113
