31
Energy = -25.13121435 eV
K 14.154552418875198 13.555898763651777 10.723788323375988
K 16.226603736413736 17.71515776033303 9.838126282674047
K 18.83440693657835 13.582827881203336 10.147751714783572
K 13.585710028310318 21.130788478999897 11.310144133721064
K 9.77423077639734 14.344721956867303 12.034359031615573
K 11.712602897752395 10.315455917549464 13.288521380331725
K 9.590990290605433 19.95864429130958 12.429296242366936
K 11.722638628236773 17.338406979285622 9.204812880424484
K 17.026508873412 10.924246678753722 13.608132346602906
K 17.278058251705005 15.492801091220773 13.565698987759955
K 20.722697120314862 17.70883616095833 12.033801809892
K 12.90170091379549 17.111589529846 13.530662100422775
K 16.971558170515166 19.963534217475406 13.957847375463112
K 8.741038789791334 12.818227824842674 15.990338440118595
K 21.48836141685524 13.610855035341785 13.989880537852835
K 8.414389685403123 17.25712972916769 15.489410405417635
K 20.567350630594923 17.742320405469414 16.53526503383168
K 13.719578268421321 13.210050807807981 15.690692429449493
K 20.668780942094866 10.157654279594357 16.945232948752516
K 12.467077353538818 20.30652505982876 16.440527848689253
K 18.22306473232636 13.627435157940477 17.26976308243683
K 15.602213283657955 17.122460593148077 17.310030912307422
K 17.687595899333374 20.701563116038248 18.479470928448468
K 22.480297972538242 14.274324938773574 18.514618500537146
K 16.156358878397363 9.802371040867005 18.126539843156845
K 11.305482584471614 15.83525704732091 18.48545298917757
K 11.722229223915035 10.960136304438961 18.839088905451707
K 18.84443661042693 16.563844452940245 20.68558849795789
K 15.065103184639673 13.754233065870597 20.569450402906494
K 19.233387584883364 11.883748496734153 21.09566478436389
K 14.319337759340915 18.437296779963727 21.078384743253153
