31
Energy = -25.00619711 eV
K 13.994890868012929 21.324348842213485 14.295713420333861
K 17.87214075829085 14.643654816786016 18.56725535833922
K 13.936407684938434 17.124975887972735 13.173796335875712
K 14.73122102167832 12.047572774324403 20.203496908411484
K 10.281053554662412 19.183062930264065 12.461517616405608
K 11.554927103067174 11.000626897761773 15.652690734739657
K 16.76241522217798 11.027082403359998 16.004840083668306
K 19.3456088713901 11.021794535950022 20.207624756117532
K 21.756114004085628 15.057515430062141 20.294922166196468
K 14.207844631873266 12.733974881820513 12.551289468845654
K 18.1906801673504 11.680874013572103 11.259050204139506
K 19.07160697097182 21.41926910946788 17.422568743600387
K 14.001645805270549 14.468695476923038 16.568323008747598
K 16.256982736018944 18.250707294162616 16.796423075210008
K 22.734161515168857 19.481607879187845 19.530045909750598
K 16.31255924294174 15.718616023479571 9.726086228154882
K 14.352727852225089 11.876185008808656 8.390446832752689
K 17.892869304173704 14.985511244275317 13.991086021451132
K 10.54655890599012 11.395230581013507 11.044464598178926
K 18.53172565606849 18.410506754667676 20.794919886702182
K 21.027126123581176 12.711310776833717 16.233239343282335
K 14.996745225541856 20.971402376751254 19.727698112662647
K 17.904126637010616 19.27741516644065 12.834054580460494
K 10.46674486758384 14.2249850246981 18.730875553764022
K 10.066934051362123 14.91510985539855 14.059238241266893
K 11.712601795186725 18.319397183306496 16.920393681240714
K 14.247274378365766 16.595657590967804 20.696197541203492
K 17.696241451272783 14.344867988378805 22.82382178328364
K 11.796181714344753 15.590549243663899 9.703189759138576
K 20.71173284851948 17.418142041246295 16.385745747600588
K 14.002601730444068 19.74180266581142 9.911436998046062
