31
Energy = -25.03256964 eV
K 18.588662459741517 13.388221142760832 10.675487636210601
K 14.739226842258779 16.3324285530999 10.9233270628341
K 13.890563369859814 11.671446103148712 11.66275461581508
K 10.239135183399465 14.493055158737436 10.921197434246224
K 19.1838600592801 17.63850854085945 12.432484148741347
K 16.331132784974287 21.26359082766468 12.042152420552132
K 17.57986042182285 9.755034974160187 13.935005810921982
K 21.302375509564293 14.076565951071169 14.658392715766814
K 11.140831386149756 18.716944540865622 12.981120310634447
K 16.754108937970678 14.00470525468993 14.39622025440359
K 12.414336268992436 14.679352338159354 14.661415397627625
K 15.195565279104468 18.268670931676315 14.966948017360071
K 10.018168009233872 11.024368095098572 14.256549091734263
K 20.899833022177987 21.73853366308825 12.380685129710002
K 13.377856626027176 7.65184800955274 13.705532690151777
K 22.488468480090482 18.67786255853609 15.610891100795808
K 18.541023243828516 21.395098945165874 16.173304444966945
K 8.233938867942278 15.478707253256966 14.97019685274166
K 13.916720300057419 22.160188010327868 16.135693507289854
K 18.790318434152653 16.91153406198664 17.036950377965677
K 14.017180424388286 10.746189682683994 16.6976729061936
K 11.36809653836058 18.076098528665614 17.623226645086127
K 14.854873540905007 15.049826040607854 18.26245064363197
K 18.526060847176055 12.2629223040549 18.205575764261667
K 22.22167301564351 15.234926267825587 19.083420030576004
K 15.758789141346094 19.422724284394747 19.449224180737513
K 10.492586187672819 13.308526697449018 18.5570794209133
K 20.612146210212355 19.46969909759874 19.974485197997826
K 18.087758300512462 15.73206050650594 21.37861039715607
K 14.263478712335795 11.768928826391688 21.032658422061413
K 12.662613345431597 16.09267460052873 21.7005291215281
