31
Energy = -25.09776074 eV
K 14.406905530522197 18.601975147632107 9.278424770866387
K 20.493628656310165 13.291395718720542 8.823673696608447
K 16.294253400264 14.234145969563194 9.97476190494967
K 19.223593035004743 17.815717676531094 9.252866172405568
K 13.753321195239371 10.90868154572357 12.843943063895642
K 12.71093412406333 15.627571042968848 12.39508592843849
K 18.625126088406127 10.883123739155456 12.339429170489307
K 17.14720376482636 21.801058109647776 11.316590127397093
K 16.856908364382512 17.77424251098829 12.88713466343317
K 13.192238458410165 20.518719145082976 13.503010556115129
K 20.590715256665177 15.139851365596295 12.899591811601683
K 16.53968107585573 13.863522507834222 14.598593469379766
K 10.042673551479659 18.74863554428204 10.929937951192
K 12.33072400793955 13.494789721250843 16.381568888838498
K 20.7514215340702 19.74561613220209 13.363484661213178
K 19.234290672419604 17.057251052998016 17.02518042895155
K 11.101896963365755 9.416374566770537 16.88149660360522
K 10.083130419419838 17.44006065507322 15.960741501670022
K 19.8029833851057 12.309828840247004 17.300247049024144
K 17.05819951266782 21.092891259021975 16.061553181909666
K 15.64865203238121 10.02287950987041 16.995598342730045
K 12.572921762000435 20.56172004387696 18.634624512802066
K 15.945751007077055 14.14668697598 18.94008318813691
K 14.484925230380915 17.406985822909338 16.507458952147807
K 8.869289468080627 13.18554775453042 18.91038573371269
K 19.58559499623283 14.86636915323247 21.269299960214546
K 12.813745635736826 11.43914620608905 20.648710387432928
K 11.972330639783264 16.276120238769856 20.315985185785088
K 17.51121216090083 10.790089558919677 21.263810025542124
K 16.27811282777341 18.34193971958723 20.548911956617054
K 15.331915084249845 14.451342605959955 23.202095993909175
