31
Energy = -24.88898436 eV
K 11.035088930842583 15.820321235534127 11.012203721813382
K 14.449507508658497 18.537607177513486 10.376732254046253
K 8.227256238523896 12.978897250655306 12.490101176940453
K 21.916029389647964 13.452696178701306 14.159955174408177
K 18.594669475279446 16.17149541692927 11.188436890276215
K 15.112367422128022 14.144294038016238 9.221257515990219
K 10.24831663993768 20.345453606323062 11.416279351662821
K 18.149224425546667 20.626045768163923 10.670665338625469
K 12.613491269816121 11.716727182034058 12.338569329829346
K 7.933420779080316 17.317419426134062 13.850209473828361
K 21.37564248861845 18.024224947739384 14.92060816502458
K 14.653958422635352 15.331029453200843 13.389372527734771
K 17.479342597403168 11.910055156398974 12.663404101301662
K 14.231630445400096 22.21142411147753 12.963328068984588
K 16.862703527116523 19.07419984235682 14.526240692708381
K 18.32548241566013 15.087549142565573 15.609456636140491
K 10.958026773787731 14.439749456299998 15.86474154797868
K 14.872273192925947 11.957541994432287 16.435253517889674
K 14.497855393648454 16.6044505236477 17.567607692829093
K 14.812631341040355 20.89779659031524 18.000722193528063
K 19.39930396481439 11.040710941178526 17.043742874182442
K 18.80668154478047 18.592066036944054 18.637139139713895
K 12.043055322164017 18.837981408538436 14.877493162602184
K 21.797407118598382 15.009128024850188 18.388903584730436
K 17.43987709143874 14.247702345420427 19.615216535987155
K 13.139983889551909 13.605236775971884 20.37051486960787
K 16.28079379859719 10.154556160890643 20.44807874054812
K 15.604061988491134 17.696492080536977 21.72872042549637
K 20.315988451635917 11.870816416999247 21.53034529074175
K 19.881432807496505 16.292853128539303 22.515904347410586
K 16.46186096571602 13.522843802672858 23.698161278420415
