31
Energy = -24.70137619 eV
K 15.341545702161735 18.23688222315949 8.913276193090404
K 13.665844563444752 14.240750467267011 10.546343828680996
K 18.04681638322907 14.714578085460419 9.865985714724879
K 16.76394178968836 12.256307678884237 13.531400249368492
K 11.859066287213643 18.127414615290103 11.719229316218804
K 12.746140787128342 13.551803391318558 14.879993532317075
K 19.505158278968914 18.97666103889415 10.802607870540909
K 12.071216714958611 17.69263333909149 16.240283167785968
K 15.824773010225949 16.959622279248585 13.519550091023556
K 1.2534353807382852 18.46440068134462 13.887544639081808
K 11.681109505549417 -0.005603183391191709 14.230736031070023
K 20.091789044613208 15.348682160724863 13.882794633095314
K 15.358231232663114 11.308060738576515 17.879787606584372
K 12.256712554104382 14.075791252093714 19.38452162555522
K 15.692712909406662 21.28708494086961 12.249380977191947
K 11.165789237246129 21.522954682189464 18.631147883042324
K 15.283801241331243 20.825620176237127 16.784224537932058
K 19.16212584510502 19.748094614316724 15.220755953807256
K 16.777035928772822 15.750365650109652 17.948747791847566
K 19.722626858334884 12.428968357980684 17.2514385406038
K 13.903662925781227 18.26152883000147 20.47249536057946
K 2.0000694860212054 13.890988363536579 16.152346409426357
K 13.867254673248214 10.667234506660174 0.17567372019020602
K 21.40459967826024 16.955672985348254 18.103042412081443
K 18.265096079578353 11.723086373508911 21.52614834850587
K 15.011395911176768 0.5527943372424458 21.195795138158307
K 15.175134443491698 14.788212063624787 1.0790672749057724
K 18.603620020973402 19.9245593733301 19.929139907157804
K 0.7237244764736542 13.161520842131356 20.487454246272172
K 19.399374740020196 16.042632177402954 0.16965988448882008
K 16.650313098796758 19.1741138752513 2.014334267620141
