31
Energy = -25.04579511 eV
K 15.331364146245198 18.68824555779631 8.802965828624778
K 19.283832756062182 16.37831211000913 8.944355691745175
K 19.05760357031602 20.75387548182152 10.357320889466534
K 15.220619248970788 14.129302319258908 10.274377592170877
K 12.631763828418828 17.241835532306983 12.402187381027348
K 14.984047864464344 21.385392411546203 12.543143845218832
K 17.24388810315987 17.475639546605034 12.408228911364285
K 21.552494259045982 17.75350123834808 12.790246272059004
K 11.466531971665571 12.51352836713989 13.492678275611274
K 19.064245492214177 13.270425660956862 12.703352250768246
K 15.412023405177878 10.036068024748323 13.773745512894013
K 15.237993605258485 14.24218211698548 14.624086527964035
K 18.97484498942415 20.737961348955366 15.05248268405857
K 15.120939242930627 18.38163166586239 15.953974900770188
K 11.50257117170662 8.361475124598927 15.544742316171517
K 9.037739733065845 11.97359216681166 17.39373570896752
K 13.267182642999055 11.553511527931938 17.637003906209095
K 22.139637050671816 18.70635180191108 17.394938123132302
K 11.529462192349044 20.515992749793032 15.462720407200704
K 19.133218350379813 15.945252983177616 16.217073873562953
K 11.280730133539455 15.821579288802237 16.62875076327219
K 18.055292357364877 11.564100757124791 17.11169925187518
K 15.442348850382063 15.040759681074405 18.79290313571396
K 13.043158489184528 18.489464885044903 19.915481966797646
K 15.37754955606725 22.43075727918055 17.074012167248885
K 19.284955491721856 14.527802794517568 20.53011118428011
K 11.590513707842211 14.118748247578328 20.84052437390325
K 15.499204643897166 7.928311307083169 17.90203174745845
K 17.86753863512768 18.974766619787502 19.283030529988327
K 15.92047052125638 11.358471698286717 21.165963618600298
K 15.35941760625014 15.61434332211498 22.89531397903468
