32
Energy = -26.2109392 eV
K 20.31860055379516 15.048689540198602 9.687228042537845
K 15.590698546310895 14.311490679728617 9.405707931519709
K 13.198060298194509 10.155552568179344 9.804381752099255
K 18.008797501380773 10.623335934356652 10.937449145922159
K 17.43781688189701 18.815036427525246 11.266310173631789
K 10.900016464229177 13.92787247046163 11.277693986707149
K 21.74507999277711 12.462341336872619 13.201041627310877
K 21.394901352971953 17.71059577355455 13.549682753863687
K 18.0249956326659 14.677975122814885 13.20128385891718
K 13.864524282832273 16.930634426122655 12.838024399672324
K 14.39965573542739 12.27098300180689 13.310524007491313
K 15.015115813286183 7.947879096115828 13.553999021463033
K 19.167192752583496 21.846072403245238 14.695371300649494
K 14.381670974315611 21.290755639508518 14.364429009266376
K 10.667270232124649 9.925909847428466 14.074672897821438
K 10.142158322835714 18.711903429951608 14.671036533526072
K 16.18280835374976 21.4319977045705 18.74569460309849
K 13.606397775738921 10.46568975229369 17.505541977648743
K 11.286260665130303 14.37598520608623 15.793019739603245
K 18.221386915360664 10.590695493548468 15.625071111259377
K 20.234996475931144 14.71792097407085 17.28952627206291
K 11.323453556269982 21.540117526916436 18.093346906345975
K 13.52277376408952 17.974503912940495 17.401395760849013
K 17.426696221146845 18.125274120617018 15.772257913483191
K 15.716402962372811 14.29028743356843 16.88472975097805
K 9.513925647973199 17.225189394372567 19.20830901599776
K 20.563027037731402 19.540676353300093 18.415361049944952
K 9.38181126818092 12.048967056887808 18.81589954675858
K 13.027551287377683 14.515256277403829 20.370804782214247
K 17.283389405423694 12.241938426291114 20.2050652094331
K 13.178815404642753 19.163367114196554 21.643682677242293
K 17.2113720848709 17.032729718681324 20.3290814042975
