32
Energy = -25.90899925 eV
K 16.028348795049006 11.834535940176108 10.147909086387209
K 17.917752466323936 16.129899514068903 11.208246380686692
K 15.358605630880119 20.055093477422364 11.915768481971241
K 20.166728123827202 12.067108453205709 12.052863821857645
K 13.238829810023756 15.164477659674006 12.060318821482634
K 19.5177593556386 20.01228020134691 13.722795940742195
K 17.154466177897476 9.022738760811066 13.506328813237896
K 16.575860989872293 13.056994262852236 14.222515926376973
K 12.85299480942128 10.778705617012147 13.480909448523436
K 15.923707208673482 17.15461327009341 15.013354886839025
K 20.315577193595477 15.726083255969892 15.179504954838833
K 11.721068142171985 18.352707437239584 15.255136981991244
K 9.480919458552037 13.677808110300935 14.124959696367899
K 15.238674666160815 21.06352375217431 16.218696826767633
K 22.521286429605578 19.363886453698704 17.11483037469182
K 17.271451186013323 23.90162258333554 13.545890728262103
K 19.669218783143105 11.238521623448426 16.742489741130758
K 19.390021355471227 22.737245442066946 17.43244948729378
K 15.243410698898193 10.257084336347868 17.55239128868042
K 15.295490417539687 24.89083063251945 17.624588932459638
K 18.37694824701684 18.67352054355882 18.07851115044651
K 17.02407855569613 14.529375542021661 18.375189444903306
K 10.755685863142322 10.657813889162268 17.578167101775477
K 12.084681314948613 21.81204435247276 19.168991703676475
K 12.91761884924898 14.200558867897783 16.55107191707433
K 13.855510032675218 17.747922309410033 19.331065171557118
K 21.12397848267437 15.74682934427456 19.805481797584164
K 16.243088036525023 21.390818784260983 20.75642183104663
K 13.656558921011692 13.028028925495352 20.692973320765603
K 20.689026390946335 20.088525339707683 21.25525107386741
K 17.99691684478742 11.395358571288797 21.01242485335277
K 17.227245180275197 17.07695116439169 22.106008431069117
