32
Energy = -25.73336986 eV
K 19.28900599815321 10.58636031935004 14.492112248583636
K 14.86931963469514 11.130822595945121 15.270579164832418
K 0.20387113851644018 11.899217548675265 17.632189561245244
K 14.076814737748913 13.21999011752358 11.471428873409359
K 18.103912129875873 12.625347928222407 18.344032634304305
K 21.11628346082981 14.460855860690996 21.323484796871632
K 18.525390012034254 13.415238971067597 11.15352208011082
K 11.489171698378629 14.292848133068091 15.235296183695313
K 13.759331546808712 13.701454128269102 18.972857607188498
K 16.705486985045344 15.322092857869329 21.84705869151577
K 20.751415482348996 14.997768815825836 14.789167595127047
K 9.800196973304473 15.747092025907051 19.270162798351688
K 16.074385501959824 15.547804806861805 14.972703185332605
K 1.433902146210484 16.26324070193586 18.179038776815663
K 11.858434729370325 17.086373404757587 11.876313474401746
K 12.640837871780157 17.224344939448507 0.22898187314881968
K 18.904189059311594 17.154507406700787 18.207707456330596
K 3.2744867450563353 20.269335258629344 18.54586417879269
K 16.31651235748081 17.410689396701223 10.798968961874044
K 20.83644084269223 17.379959092482622 10.905029374093846
K 14.07345832549488 18.122850708660938 18.339912992107774
K 10.034546938934998 18.729097201221876 15.79568341292325
K 18.793530388912437 19.5175497182384 14.282232167275188
K 9.625306161589606 20.028213586072948 20.369556226945374
K 1.0687720127351796 18.903309468097167 14.555447686847591
K 0.006896029470893673 18.74937580995948 21.692497775433907
K 17.787222069847623 19.646243645449847 21.707312726464302
K 14.316947594562997 19.99219046673755 14.140090052407627
K 13.725303162373756 21.522433792972073 21.5163543304678
K 21.128317793022255 21.10469239966491 18.008227904674044
K 16.705059629574492 21.826771650606773 17.791677750200336
K 12.194514623743311 0.13473300957137824 17.434810794780088
