32
Energy = -24.3748167 eV
K 14.327469243006407 14.852206747024658 8.186429070397516
K 17.46724625031501 18.091578268189977 8.786940894434638
K 18.715717961183543 13.485463590502583 9.826052283923486
K 12.89467566748433 19.028550022911272 10.260193507493495
K 14.84614613167188 11.557493130808641 11.510923455424981
K 18.93836528646022 9.532441099751122 12.667086715701428
K 15.719815467939588 16.018451825658325 11.938015927158474
K 11.273627125542644 14.972112868531086 11.787877556551422
K 20.15563018240562 16.98285252580173 12.511320313956102
K 22.094408958202322 12.746635046405425 13.273024589076337
K 16.53496463235487 20.425669806889456 12.768223148612918
K 18.084868356857303 13.300015754138549 14.239293080478046
K 9.173875945016771 18.86832318697596 13.442567994852478
K 13.794616616231165 13.743019359020987 15.217572552973222
K 13.094560900101449 18.065383220484126 14.608254057966112
K 12.294595421274233 22.102639942249674 14.024653711248947
K 17.281955050439706 17.32699389918892 15.853757418935261
K 9.92635327290869 15.413717415098212 16.55795190608116
K 15.21424124711684 20.87051396267022 17.52954745845071
K 10.727793363134824 19.745805275503812 17.986883885672103
K 15.73528496311773 9.87553096223708 16.10966497949713
K 21.020465270873693 15.29217748938005 17.10386409233545
K 13.8581261702447 16.626686881619168 18.5526894167787
K 16.937954258240712 13.681459572741538 18.33000822340135
K 20.12646293910218 10.74752260824602 17.2670165953607
K 12.678385393104195 12.269517882141606 19.22818136836981
K 17.98036760895678 17.696124262232207 20.2182248542111
K 10.664752603265322 16.07137971813455 21.17894755526769
K 13.814321018592935 19.28505602809922 21.755632691257183
K 16.68669500103946 10.277017270293863 20.713401925591825
K 19.82516769849582 13.489386859765212 21.32837556358902
K 15.19031897774153 14.637502499727924 22.316652187375226
