32
Energy = -25.45388398 eV
K 17.41312078279138 12.966334721059512 9.621260452258593
K 16.20186652811333 17.613417717357397 10.625467855806487
K 13.824340098421205 13.941116710277575 12.392960385369177
K 22.78690145219799 20.150427837106164 13.200078869074826
K 20.795317123822127 16.772972231079265 10.657819769300463
K 14.433535264341726 21.16907721715841 13.383541689492775
K 16.839566004890546 10.58524305783869 13.339523386916381
K 12.656326977885456 10.394579975796347 10.625950501383777
K 21.24570285238847 12.357356399603965 12.186165604927572
K 14.973085651556305 17.35652109818101 14.88647269455678
K 18.143163007299886 14.791956338361201 13.462792601720324
K 9.360145463043377 13.336519535619095 12.54902579023332
K 18.73997408138928 19.458049994223487 13.876000521442805
K 11.280747833068471 17.74801596448074 12.519280944588935
K 11.86707346843535 10.856757873801943 15.269405204083947
K 22.260634062676683 15.949611583721815 15.024226411713055
K 11.387262293995594 15.288368930412311 16.03482968392444
K 15.401577454791363 13.012850915735255 16.652091359086285
K 19.77543301550061 12.35517200491404 16.714289406125648
K 8.031796240274657 13.385321723000102 17.08292912355046
K 11.744926449301778 19.678025970355236 17.103278897839044
K 18.383208272291167 16.492935330669056 17.41145463855064
K 16.32579797363716 20.499355146351576 17.726540939270393
K 21.247141039459304 19.689984471089208 17.65704241437063
K 14.319069095071068 16.61917070015956 19.12443910303521
K 12.095427852310062 12.744188800181785 19.64139488247293
K 10.011563019963178 16.761706237166656 20.150087019273016
K 21.71494887549084 15.539347868307013 19.623670486612035
K 17.318269993782298 13.666465457575647 20.614573609149
K 13.314608445348536 19.963245350249146 21.552264232379375
K 17.77384340677399 18.388684166803465 21.415726401120686
K 13.484460323169664 15.61805307484477 23.026249523852606
