32
Energy = -26.15084421 eV
K 16.718306260376313 15.98578492158685 8.25845405299661
K 15.99594434639767 20.09456501170445 10.0687556615092
K 12.426953753039665 17.10485422541571 9.687826165158171
K 20.0358462871618 17.762205037140152 11.268428813323728
K 14.120318969877921 12.639148656626038 10.474177624490814
K 18.6937590246201 13.01722450056009 11.199655130895739
K 15.749997703128194 16.311842733058114 12.37743116690054
K 22.594039879593854 14.506922609140505 13.403079758581875
K 16.72872681364962 9.0924550629523 12.267176415939263
K 17.634603611211585 20.0892159305609 14.508238281860455
K 13.002932055902553 19.711305772315043 13.773880457611396
K 18.76946136796971 15.31552138592096 15.163388058421162
K 11.616961370879459 15.044029084345018 13.95737012582213
K 15.19712892511464 12.267300048996999 14.941637989852394
K 21.888874739761597 18.601205957990857 15.63312196769128
K 19.716393252597122 11.132981266891745 15.249790721178453
K 14.86198101900152 16.71469676156797 16.514068821453247
K 14.887789704763675 21.226529720057677 18.080861643117267
K 11.170182768558746 18.399315086827528 18.239478673971018
K 18.428687668966614 17.995983352541295 18.5644612587594
K 19.34967997265259 22.293155193207113 18.51470506377623
K 12.476628320041874 13.75697463973829 18.814763248342075
K 17.167416272803354 13.132311948710628 19.023524272189995
K 14.898177111223506 17.107675596561105 20.656982612441055
K 21.532247616520554 14.762119688106102 18.63022102975795
K 12.6870552004891 20.768555241704913 21.977298599926677
K 17.476862388611956 20.467227709458346 22.176995315381834
K 11.136568250906215 16.351118377795785 22.654735602208977
K 21.7991449060934 18.98017761209405 20.85995550357984
K 18.886026739921757 15.692056174221396 22.56408984147627
K 14.856346014549954 13.389296577658982 23.04955057276922
K 14.897038249449457 17.688324680378255 24.84797611445033
