33
Energy = -26.69246915 eV
K 14.699774326284858 16.025026950973928 9.129875486542643
K 17.587932750079766 19.786130161646117 9.998633959042467
K 17.17620089186746 12.319602501609442 10.731579971260665
K 10.366596490579203 17.064091417410697 9.868011558161525
K 19.433636497948893 15.752132501789319 9.103461571831348
K 13.631540035914705 19.50961603614728 12.100794510553877
K 12.142157201656362 12.389845855041695 10.557798359598925
K 17.226704660511455 16.43590358531145 12.725631846587357
K 15.078264451583493 12.881875948361978 14.323353405758354
K 11.97002407205559 15.432229624307483 13.353145050963851
K 21.29664074952437 18.479995018335476 12.211133650978859
K 17.722467223012924 20.306282038870485 14.58135880748586
K 20.844880099948742 14.141801100687035 13.428635971884713
K 9.9428468154887 18.785706277380246 14.675480839672389
K 14.795999759044498 9.094529754460503 12.928331917811809
K 8.033627694924789 14.310870830115016 12.765006020190214
K 18.56782508669643 10.674861556101757 15.412621099311131
K 14.474373164066758 17.4182078848376 16.00857402549526
K 17.769689382219205 14.866110877542182 17.17675518305279
K 8.996255031931122 15.022428812969046 17.071939755670847
K 14.557594979914256 9.667135115889824 17.483570204825426
K 13.733202009311816 21.3827790664812 16.562951174546818
K 21.69352846167248 13.105171039480464 17.797300365080186
K 10.871560839734016 11.331435682412248 14.991678512024597
K 21.026874906670688 17.639813585002052 16.655233707333178
K 13.122354238322425 13.679488209395917 18.098167411635778
K 17.870626834798088 11.733527799468407 20.11022267542956
K 11.965164604698435 18.04676149806303 19.26089393334506
K 17.08866559055475 19.083063132856076 18.968518334552876
K 19.87145916815204 15.938546078785805 20.795481744087176
K 10.650621912865569 14.382424666261704 21.422319093959988
K 13.783080972935117 11.196508430329258 21.691797668522817
K 15.359310081896542 15.46757794854186 21.36122316966841
