33
Energy = -26.38955589 eV
K 12.647416385332999 14.596294854434294 9.808064057190617
K 16.78092225935682 17.013633910447847 8.519650528139085
K 13.133500599057141 19.420950059072165 9.992976578695862
K 16.812880957468 12.966816255850537 10.94090124059093
K 9.477115298489146 12.580534414635336 12.965115747372947
K 15.36316877656938 16.945008854677592 12.422744092742379
K 17.68482990509391 20.665466669850957 11.61576546109406
K 13.02606055753522 10.03293192888232 11.450639771594473
K 19.876726640215264 16.564942503027602 12.145477655443647
K 10.949808033560952 17.055844187361338 13.4026124008807
K 16.338407310092947 10.038978708466603 14.691587555251205
K 20.654686731120666 12.148032105004479 13.952000500930472
K 11.767735705112242 9.88889589073756 16.177415449255545
K 13.41803563980478 13.261627524405965 14.020365799819897
K 17.84438043025391 18.66750583608817 15.615320119035701
K 13.921659313949235 20.63461499463762 14.580668189110488
K 21.544451110434856 20.282702692584195 14.619238260756584
K 10.498695889348497 14.111891143251135 17.3826244104607
K 17.49191285319871 14.279437823800572 15.242132408401408
K 21.355104203426446 16.124960031318427 16.78069399575418
K 14.034684654657191 16.651670339183937 16.640446751562564
K 10.9022843933651 18.9293938463812 17.826672142673495
K 11.816175354528424 11.58453654342025 20.997909372082578
K 20.030698149537958 19.74298180898857 19.318583221483635
K 15.381077212430151 20.138111270178563 19.101274309649757
K 17.456602208076376 16.069157164025498 19.224723541421525
K 14.907649418226034 12.327661611000243 18.32330064247618
K 19.421307502869183 12.180431216623374 18.649418180503556
K 17.95746848979405 22.747076908315915 16.140268909977777
K 13.242319681468814 15.985435038666076 20.93454655330866
K 20.8463596758807 15.487644662092213 21.54530318481994
K 17.160975090319234 17.952987820275812 22.902306693968193
K 16.593916452578526 13.260858265466677 22.40826915670464
