33
Energy = -20.03150616 eV
K 11.993803211934463 15.999255712895456 9.218802270489766
K 16.18208243222795 17.64807113839802 10.789496231472324
K 15.163097204940216 13.113670976404373 11.130617456567888
K 20.199438828898344 14.335303480997894 12.03941358566396
K 12.181191646564436 20.05615623724146 11.536260141706931
K 10.47838521908279 12.764107236306671 12.035418096730117
K 8.720428897556994 16.97849317755021 12.369323476404341
K 23.83310543400854 16.30951721732906 14.212963857485816
K 16.350944112976965 22.047915846158293 11.695195878727626
K 12.719033035183184 16.116031036785074 13.346980628605246
K 19.781941947547185 18.664774795985757 13.817735409863134
K 22.9163693567202 11.714851183200125 14.673709555888324
K 16.83587711534276 15.356849932047089 14.482840128471793
K 18.28571905326268 11.133395604123557 14.817132564493225
K 15.278898015939083 19.512361352652 14.846527260230467
K 12.996668086268206 23.0390775930632 14.88002988708401
K 10.70166315709341 19.281086214066264 15.954583242794188
K 17.896246635842324 17.985099416541644 17.97195085340476
K 20.71149577899275 14.750195553838843 16.576137804165494
K 9.74322867243735 14.666119112199905 16.328503487790208
K 16.92671018882051 13.49793782333511 18.377915058817354
K 13.68109229347695 12.101257306648986 15.416968322734663
K 16.018575938120108 9.369955978217435 18.528181280723647
K 22.20187941070512 18.398076168847624 18.25882672259768
K 13.711594896382747 16.276093155401327 17.484019068881803
K 19.025212760144026 19.55778954126294 21.670186363232315
K 12.818630334360844 12.749641607570329 20.00901794613211
K 14.088527172226327 20.29128641732146 19.103265339812516
K 20.405726474570905 10.912986323822661 18.83037245124741
K 20.056520260391252 15.221828748909077 21.025282841331663
K 10.640756589235469 17.14689205074453 20.12873255339901
K 17.13909498165835 11.844837189291711 22.181389619413327
K 15.616589402129279 16.459613415882565 21.56274915867878
