33
Energy = -24.54190481 eV
K 12.847509159636585 14.848488302595591 9.442570896444932
K 21.300836081943597 17.497117607910234 11.69106367101995
K 17.012545510482763 16.396172679578154 9.638052364160254
K 13.439270950998326 19.342857191655096 10.133612498305151
K 17.724524815285886 20.590088876513803 10.692932399448216
K 15.745101529517406 12.334689591708152 11.429452269485779
K 20.11845087786772 13.165936841172742 10.292340740902112
K 11.377588068206476 12.694978435470581 13.877371590705604
K 9.548198210023745 16.446380652189468 11.585394180157888
K 13.800450713739902 16.51139961194552 13.533975865132021
K 18.520690639254962 15.087135242012488 13.717762076603956
K 14.941231746789924 21.072942593035833 14.204938435090124
K 10.597278087711189 20.208468382141408 13.623872045837905
K 22.633887584548432 13.40775927355709 14.089555898103479
K 19.12199941477631 10.494889944484267 13.93382896656471
K 14.317039208117516 8.991706423563672 14.094954577064348
K 15.646572975947427 12.529263279863175 15.796833650455381
K 9.074699919263718 16.639203617294484 15.833322593571307
K 17.113232712611396 9.079919860675979 17.978221803144756
K 18.95584252352186 19.721385421381353 14.707459529963288
K 19.91680540586015 12.72622915813712 17.799151106613785
K 21.41884620351888 16.725467917201367 16.72428703837489
K 12.674902999363072 10.199194775347591 18.193331092588412
K 16.58496772001814 16.658239882108134 17.186500467133413
K 8.896556645262098 12.718663252949648 18.01849737910566
K 12.57786803980494 14.766999577901181 17.78679481311706
K 12.54485489120549 19.243638289392905 17.579133751157823
K 16.839745064086618 20.4739506610127 18.615661042036265
K 16.0996291879981 12.771943381147336 20.410125865984522
K 9.825475938741409 16.825011989413323 20.32131942870521
K 19.020312720510116 16.305748893822603 20.6185585836078
K 11.811302228669856 13.058042344568173 21.726550304981142
K 14.405446636365678 16.919750459899355 21.17623748608289
