33
Energy = -26.6938856 eV
K 12.833888338425984 16.45482016342158 11.714733989502465
K 10.278668974345909 15.060161912502506 15.380099896919996
K 14.888705976369172 17.63035929889334 7.8468095816162124
K 11.746148193465748 11.333650587900022 17.26789188658724
K 14.309833163792542 12.85085827773753 13.94364199692594
K 9.350813288413104 13.933166459350865 20.031863374348855
K 16.919535127698047 14.73491188574199 10.642307607242437
K 16.319693021125108 11.468128835746732 17.98383507426247
K 18.740021138978555 12.5133463007803 14.288383311155066
K 15.769722631597123 19.99951575897788 11.707730807914707
K 12.884735276774004 18.986274068409497 15.21561342461766
K 10.013105131316866 17.974313792773206 18.72300136523941
K 14.136682995286813 15.416883733847575 18.00932483460467
K 17.229006816473984 16.891081910319247 14.728033697150094
K 13.199361511101605 12.113967998601066 21.42711576209854
K 19.074564307320962 18.543039832203206 9.154980415711009
K 21.092839528651776 16.129202500438524 12.277457172692973
K 1.0911374131289049 13.614452994488529 15.400457196840657
K 12.62618752933663 16.518653783273177 0.36054404474280033
K 19.759067589530666 14.327548310397683 18.312507918017776
K 16.873967720626116 14.682032053100606 21.753742644398812
K 20.146400424813308 20.708922191709707 13.203405101662852
K 16.65395751429855 21.610397923036565 15.818635659861597
K 14.040751713858423 19.793371346959386 19.453488773205212
K 0.014486322592096994 17.96013758704706 16.32946818214627
K 18.333784663576523 18.525585807345017 18.887461264837277
K 2.200748972798036 15.413709278438418 19.448227363944973
K 16.612633177944748 18.969995183360947 1.1283271367282448
K 20.914511967235722 16.858296243082567 0.18527016888548153
K 20.91598430257228 0.2063363024954854 17.608273970853443
K 17.2260383559962 0.7430937147313688 20.17326565678115
K 1.834796548979904 19.776314805944303 20.145833664900152
K 20.571288902340967 21.29447721056314 0.5286558413887357
