34
Energy = -27.8435848 eV
K 15.216195828631122 14.791905582718659 9.03483024578162
K 18.749721349837202 11.641349511154003 10.1631273147198
K 14.243669370149654 10.848305676814368 11.450423490620016
K 14.411863621074938 22.94949788699197 13.100328254641429
K 11.859975729735945 19.589941037963975 10.736456384726617
K 19.58709712023243 16.270986695555663 10.370812491348032
K 18.883375663473846 21.692949870811294 13.000646360429274
K 12.183968692665001 15.187606968628607 12.398287244271486
K 17.730732214601876 9.930498430431498 14.60470723639737
K 16.688900595781487 14.110347787716364 13.025174651063786
K 21.082853687945462 13.281462087976939 14.052172543869842
K 15.904522570974471 18.5215665483069 11.864475073201655
K 17.4036354527672 24.4027971891944 16.63117006649154
K 13.546499620260082 11.854857519086293 15.909344972452496
K 11.603934214783152 19.781190645426786 15.147242298533413
K 19.45228824187638 17.474070629589455 14.758680651107007
K 16.084062017918917 20.341520375627063 16.24180882538229
K 14.492177225939745 16.459809303330335 15.895976543658767
K 17.748287761005912 13.669995290829519 17.148918256872605
K 13.114977282910985 23.287197708629904 17.76204382670021
K 10.523477131071445 15.537007178107054 17.008210253149578
K 20.753095430650124 10.77255006876188 18.116897243406083
K 21.669533616850167 15.810075965696349 18.184055332604927
K 20.317706405476642 20.701672104422133 17.79957799926901
K 16.29291480410489 10.202144854062468 19.558828524688966
K 17.393882029841798 17.39384208362025 19.217163950507462
K 12.929990588171465 18.907073650676082 19.553736592790802
K 14.027964605544723 14.290471358874315 19.899116115783794
K 19.10409480718634 13.691373435123124 21.432860561914488
K 16.654943158117717 21.652585268298232 20.633268231874606
K 20.18524874872348 18.479782513557936 22.2012477269793
K 15.29367007182002 17.40251242659742 23.111203695339917
K 15.403923017783203 12.594567361225943 23.699638719792173
K 18.524736038030717 15.540403700132973 25.35148703556943
