34
Energy = -22.97112497 eV
K 16.04278986388591 14.23976301040117 9.957242022228488
K 14.349410267936921 10.039463050623109 10.208690300143084
K 20.7848001190852 15.130822466423188 10.844395836024578
K 11.313379507590657 13.829042622071697 11.09041035707741
K 18.69122356508022 11.109862576256871 12.030806121525638
K 17.555539119675117 18.90747947677243 11.632127962097902
K 13.800526607986933 16.86753170135549 12.850726080931542
K 14.629431356433223 12.419670430483906 13.67833492166794
K 17.997481376757705 15.14746191576324 13.828112974388127
K 11.35115147834194 9.846306823446081 13.75333069754367
K 15.772711151551166 8.366576236874288 14.347822424998036
K 9.76819150188931 18.15483935685983 13.605133278774652
K 21.126331276670705 18.43912005690153 14.663808524997123
K 22.118990207896548 13.876126976367216 15.074243435516843
K 13.533421109871401 21.208862348637915 14.00202469215856
K 18.108057620903526 22.508992367001284 15.09385457646331
K 10.797959186604814 14.131597880653967 15.692227904751173
K 16.7017438238536 18.76894993360199 15.92096124347521
K 10.152992695084448 21.704036222244145 17.002926099961662
K 14.784899119906061 21.99604563410418 18.358412218954296
K 13.75634101419979 10.96228198450265 17.79341345373204
K 12.542269435256804 18.23456488471361 17.0583430850944
K 19.80126473608434 20.291057112087334 18.763658905666603
K 23.399253897304522 17.161391586141495 18.293781485988255
K 18.31285157835824 11.430234968757029 16.675897036206134
K 19.288419981657945 15.899799867241168 17.91591537846361
K 15.157862180192376 14.871004112281232 17.109095244048515
K 8.604249700349218 17.498595502108223 18.169480685200437
K 15.933728456098729 18.025244302598814 20.49515331847701
K 11.676055823690543 19.720381861139874 20.950035863134836
K 21.766796739283652 13.055008439942936 19.639606958898188
K 12.272550630539596 15.070863908620765 20.16424096534489
K 20.413517451234288 16.835518095561905 21.804556514305315
K 16.848727562299754 13.406422431015017 20.68614957531486
