34
Energy = -24.35473818 eV
K 17.705554436025455 20.298339083636296 10.330483243610871
K 10.855839386754322 14.219207680409108 10.818286158727005
K 19.053700033763167 15.847211800240885 11.757474289922602
K 14.508765460207922 17.171931733012762 11.384802675688453
K 15.462144438029634 12.674470944593812 11.900688067010487
K 21.570392148913182 19.68400650876045 13.014493269218868
K 13.975561147684392 21.51327357988085 12.904320393036665
K 18.578194561412182 23.2865637284124 13.758646153491709
K 10.182008087961215 18.049488377032038 13.144127369610118
K 11.23862379963931 10.533082410698459 13.497089924707932
K 17.568278902346773 19.25591666825684 14.398959214181417
K 19.447491190198797 12.11974866813292 14.482120567652952
K 12.370758245130514 14.383722249547569 14.71330271642287
K 16.50987729631947 15.208787673254763 15.153921525938598
K 8.126481094249833 13.760658172951452 14.466699095465929
K 23.146899410114383 14.522893468148549 13.734627385433512
K 13.662823862884219 18.277752241410557 15.95851752330318
K 15.081914632730578 11.021624521973544 16.29981009502014
K 18.183314343346595 13.62642027943041 18.651815845864135
K 10.758496262134354 21.171922046275593 16.43878987080254
K 20.7198868900216 16.687336517021578 16.289363498953286
K 22.3999708873253 12.707978291431115 18.022432899858288
K 15.710506698909123 22.083634324446496 17.143228877175844
K 20.265526362533844 20.978047541774217 17.543329976096896
K 10.723521688079705 11.857862611121972 17.90098535477906
K 9.75216204015497 16.619112023510095 17.567026565802486
K 19.00568906527366 9.485977519360736 18.474231600519595
K 15.383405232733875 10.990551679837655 20.822081406607573
K 17.191385840206873 18.065900596736867 18.83988578843142
K 13.8287105043324 14.850879673099826 18.946155254902553
K 16.71015120933193 15.13874214503434 22.370863205605627
K 13.031967668886008 19.0813268091465 20.11314062159948
K 20.972586802749767 16.453723453318084 20.658744327552974
K 19.96295090925854 12.017445517744434 22.14509577664935
