34
Energy = -27.8201208 eV
K 21.100596828531426 16.769329718440158 11.033381186740497
K 16.040591898615087 17.14128971574582 10.942333689637865
K 13.062636982081223 13.365768262576186 10.981532426572866
K 18.24586134855625 12.95512205648487 11.693917547688068
K 18.971379743027125 20.84339754696112 13.068090343096953
K 11.507463797261014 17.163293509910833 12.922240227919739
K 22.31819528785407 13.800095039482601 14.5370771849465
K 18.826247577730282 16.56697981839851 14.566029625767365
K 14.922470444144556 14.73382309314548 14.538810708756213
K 15.070090869175347 10.389267735554576 14.122772554834794
K 19.7069476487715 9.361544702114571 14.111939508021115
K 14.938648680184079 19.47063582902939 14.71031329679052
K 10.754317268849078 13.143622040089321 15.201420564943415
K 16.151433618433742 23.402035642283884 16.415437786583485
K 11.209776173724281 21.20571645212945 16.744297971609168
K 18.465376116357003 12.633396291156913 16.699324296669186
K 21.12520826049084 23.238565436215705 16.66910032523704
K 22.651193926213473 18.968660871527835 15.021730706171995
K 16.419756530632387 16.22312650849341 18.451936394530367
K 17.101074621789017 8.820764409227317 17.91113009502333
K 13.885461560384165 12.297086997358768 18.453576874679054
K 24.90138885150565 16.38939108929641 17.850686838004126
K 18.618563674273236 19.761000686469 17.489390399958893
K 12.444843233466502 16.912168654917146 17.48911192856259
K 10.095076145591609 18.92219581553944 20.700189143372498
K 20.84794062358676 15.665632290552644 18.970713139458322
K 14.541210305394667 20.463083695456458 19.881783021929454
K 8.413055989409367 17.479772646683095 16.426537308621196
K 13.701713399678267 16.04968249866245 21.856134889938264
K 17.506179925270146 13.073613666267436 21.208315125385376
K 18.25538649909984 18.218372534162498 21.888913325261612
K 9.709915209731358 14.353090169620923 19.724351473628275
K 22.394178250301064 19.96829529777316 19.73834831591081
K 18.612782114265826 22.7671426826537 20.49609517813099
