34
Energy = -27.75737291 eV
K 13.222973994155605 15.31484201298836 9.2455521046583
K 12.128584233708123 20.016191705528062 10.357442483819403
K 9.636544466131516 16.436145324894007 12.112605781402165
K 12.264262295751564 12.727502874109563 13.205936957247934
K 16.48521523581654 18.5997021937185 9.971166111040795
K 15.211868460754639 10.897336185600752 10.187331445146503
K 17.722801122468237 14.563519253257288 7.879015501471318
K 14.910046964841554 21.746578870068724 13.918514986701474
K 17.017525624096102 10.6666677753953 14.551067533346755
K 10.819973193815365 19.978090748257515 15.316113593459999
K 20.59221415061678 16.38233025277158 11.076233732402295
K 19.771556640767145 11.832305833631835 10.975740115866861
K 13.70412336123973 17.284618145114308 13.311326881104293
K 12.763661505494346 11.379539800161758 17.797929337537752
K 16.68293136267658 14.549362122822204 12.158717579650764
K 18.114325651398445 18.341982974403646 14.430094943514709
K 13.323975470429643 8.430496887232914 14.079410335931774
K 17.666559631109113 15.088829625968474 22.852636016074683
K 15.636440583407953 19.459998430428698 21.70330891003538
K 13.684778093435696 15.161127622881313 20.6005863016935
K 14.938921100217575 11.049099275319023 22.042828716694366
K 20.33129085098907 19.126033428111263 21.66219395733142
K 17.927772420955975 12.176477031071917 19.144431244244323
K 21.582276535622128 14.964233628336267 20.223625015327695
K 13.72551107148419 22.739941024514437 18.491043576313682
K 15.344249790537477 14.375876156732733 16.29374434935955
K 11.19399846646826 19.135703987526927 20.146222046818153
K 21.739042434929672 18.462428835992927 17.197872235979066
K 20.102261085557295 14.282802734267056 15.38954231116555
K 14.505794723011693 18.63456574482971 17.391204579026052
K 11.020592067715254 15.583564468154973 16.75177455616151
K 17.95900152846358 16.741790767075067 18.809109715215044
K 18.09979041418488 21.337862023203062 18.159537573172376
K 15.817026077583968 8.180342865464596 18.21403008091869
