34
Energy = -27.78544353 eV
K 16.380025187992786 17.972248874749837 9.809826387765831
K 19.14761587952966 14.292884615203112 8.866034929457486
K 16.984099004345445 10.387600325472887 10.24422832024393
K 14.542983599195724 13.8033824926757 8.257181989410702
K 19.96855723350246 17.016807981925023 12.593943149175047
K 12.608391964204834 11.418480328426563 12.076058398683836
K 12.115531287871814 15.930930678288078 11.682071980179387
K 17.97231682712485 21.209626665425496 13.29185944941674
K 16.252365596924154 14.08231027038566 12.014680552683982
K 16.181169142251612 10.485332005572186 14.846607794219391
K 13.373492320466243 13.97667381993831 15.58246935187096
K 20.245007327632454 12.499661125771274 12.959883570406786
K 13.339955625174344 20.6366893165661 12.396630950015146
K 9.298921830056257 13.817372941536247 14.869585170345498
K 11.35747882110608 18.09290227477361 15.85438414020862
K 22.023092709920604 20.278608979544288 15.461018076182519
K 15.481013442492518 17.69600022198673 14.13185382401444
K 17.765199117717685 14.525996822643524 16.013507597433172
K 14.724546784551974 21.13295741440095 17.043254833573204
K 18.505202619016426 18.667598388909717 16.978314532552275
K 21.896175897506147 15.830590665207293 16.594063883948227
K 18.976436669130997 22.74471912068512 17.876773090701942
K 12.032907166466295 10.234819667407383 17.027075544620438
K 14.808423362679157 16.830581355232496 18.498661875844967
K 19.910761826919327 11.560582860396549 17.728334177434565
K 8.2904621144928 11.958087047559108 18.847261226905882
K 10.711040029425584 15.349273008159752 19.34789507151601
K 21.461080441320824 19.336458713029685 19.913116780352215
K 15.532077816385744 12.249248095440004 19.252475501452324
K 12.22416470651206 19.435521491527044 20.553622181171264
K 18.687015577994824 15.571535642452162 20.344825494363263
K 16.875750397296322 19.821303664508946 21.027009356621868
K 11.865841595598113 11.633742698187932 21.470272210249565
K 14.372909365395511 15.431483714212664 22.45723189517979
