34
Energy = -27.53293748 eV
K 19.15371966362808 13.736514541581817 8.452544382646236
K 16.3762327440725 17.601997192107838 8.453682658946523
K 17.358905762680862 9.641379423002684 9.61647334959354
K 11.956577897694528 16.252474371364023 9.433128363162515
K 13.072970474820798 20.510925153914428 10.262941530386389
K 15.404107402600618 13.408097662132095 10.305400186490782
K 17.36474921892075 21.05868609162449 12.051394766150882
K 19.368623025762748 16.753965936865942 11.805601056287015
K 14.826145743694118 17.38301105283667 12.393428441286902
K 19.808463627019073 12.235209826362654 12.592884174349315
K 10.58538386563643 17.876725963318044 13.615248616355059
K 15.74369121008253 9.910684830308856 13.907678727081072
K 12.281885929001765 13.64513050479839 13.45706875994851
K 13.80986113104016 20.94398666860687 15.124660955118053
K 16.700405563368115 14.240557694709842 14.540815177108666
K 21.07579929924547 20.0783384933066 14.51959524810403
K 17.426494710804555 18.555141411440438 15.697869878411511
K 17.618374841901556 22.720087871049998 16.622604324663932
K 13.516636529720145 16.684776263620673 16.632811560257363
K 20.60249108621685 15.492754451460907 16.089033036495845
K 15.086984566926843 8.472414560040356 18.64464374681251
K 10.093961145729732 14.141158795194928 17.460687076037107
K 14.04737270193384 12.340412153217743 17.46769573387968
K 18.567882946331487 11.471575828309964 17.488005983560672
K 11.738891536755155 11.145959482962358 20.861841717970954
K 16.994318232258752 15.4758355773251 18.828802956560175
K 15.252669392447876 19.738666466440012 19.62754801889
K 19.728635284630943 18.788265042822534 19.46434491002169
K 9.08082923825292 14.740078083012385 21.59665724904461
K 10.514367120142083 18.47894323568343 19.04739877742072
K 16.28233111043735 12.115773316041972 21.494989684093074
K 20.359070579179967 14.261696958095783 20.879652246929044
K 13.286674952290776 15.533311598535244 21.05368844281109
K 17.244832851235454 16.895804884370634 22.83951964958971
