34
Energy = -23.02641816 eV
K 14.82978086023465 17.034355724181225 8.652250109086756
K 14.867955433948847 12.632121541828479 8.932382073754553
K 18.903016796432695 14.913550608201307 9.312730568027542
K 11.845025696386182 15.023947631767788 11.524746284133501
K 18.524457180843026 19.511427504494833 9.655830837575913
K 14.948568820949793 19.29145812931162 12.279390346443746
K 16.355561297601955 14.46644255396428 13.098433145926062
K 18.013655909733636 10.497098855962397 11.577509283859301
K 13.39807657416246 10.130048658159076 12.172669213341136
K 21.508743994624226 13.204050255043999 12.596183959055537
K 10.39869356431167 19.300125492383845 13.148234536492696
K 9.069172687525713 11.5130419121283 13.174449112606814
K 18.5489019530499 21.554253352711157 14.124793674535475
K 20.42242660513438 17.43603933796554 12.996107480540777
K 12.333391763761668 12.848810255696893 15.573861773776487
K 20.387403338439476 10.167463915614348 15.60772274502845
K 17.210774971907984 18.067443694588285 16.181898621983844
K 12.98412679238748 17.069967643954957 15.605395586615359
K 20.031800852522412 14.461056783919672 16.688221350237946
K 11.523443687028884 8.543658792838567 15.969621070627978
K 16.020985600086025 10.348560132237335 15.937720480346375
K 8.667949724523586 15.56286133452131 15.553054117236845
K 21.34170306041957 18.931049164698358 17.276543144456753
K 14.082711661651105 21.480206442311694 16.318977232791323
K 15.617497217232904 14.449585384515354 18.013850955294764
K 17.827715065980268 21.43995204806021 18.938938795728856
K 10.073043723906245 19.3548072146088 17.821911963481174
K 8.718945303697485 11.578809010964928 17.865038980984213
K 13.183592006101389 10.936536586814185 19.67686683334489
K 11.1190391313788 15.18182433391315 19.663775555223754
K 14.177004185658301 18.567282214675842 20.01712632763748
K 18.161704329355917 11.684130891286888 19.97105105812944
K 18.538892594274465 17.0067951135076 20.46407995734193
K 15.010035341712841 14.457035210133542 22.254430551319118
