34
Energy = -26.98208161 eV
K 20.60019214057932 18.06870263680688 8.90515065726746
K 16.993390617312873 15.671242794951127 10.097166966383575
K 17.05448574721389 20.075740925943105 10.239680839624622
K 16.293978560081857 0.15401450971112818 13.987166966246974
K 13.529658265969488 18.44034217793262 11.82995875568732
K 20.70601389376053 15.611865610389808 12.496204631882708
K 12.881222327406517 19.928001067046978 15.814688149252351
K 13.645031952413763 13.819648976130674 11.9812133746292
K 20.575107499147272 20.030288506490404 12.902126026113537
K 19.902633864443853 21.414486407144167 16.86507063632848
K 17.095018425878973 17.470446071936454 14.250785351276239
K 10.163863007843199 16.81300737618485 13.776025271401865
K 15.415124465004512 1.5343921358072803 17.87438621146893
K 17.525323139189513 12.974482975114917 13.727351097887553
K 13.654341953662275 15.47564366608648 16.154516312437494
K 10.365451334910425 12.581457020113504 14.402468430269737
K 21.060169927542585 17.242348974493034 16.469535699942305
K 10.20445731420504 17.41585953564935 18.062796006757946
K 14.139213149316546 11.050591118995563 15.63727055697477
K 16.495544107301264 18.916969275836017 18.372871226969565
K 21.17879844272398 12.94996762251149 16.01517331883319
K 12.792194616596927 20.548614862598775 20.0754234915659
K 17.6047319483881 14.68456688555524 17.936690475554492
K 18.509977222592767 0.8000952235828879 20.744596642252606
K 10.803051292099356 13.165021431772576 18.628159495767207
K 17.961299358860366 10.208823529770644 17.3271601301697
K 20.426947808547947 18.652977881150434 20.519602897427916
K 13.503152777432081 16.335738657982017 20.617725962554626
K 14.646166273946921 12.218373665044673 20.092456508772532
K 21.573683082295116 14.562991754100082 20.124988850575896
K 16.058412669780388 19.54647872942704 1.0855311855991931
K 0.3609393887254688 10.16528165262362 19.280596656951246
K 17.42216574477614 15.583831042590452 0.5942482600709221
K 18.576654324379835 11.621824638135525 21.45125588811284
