35
Energy = -23.80864969 eV
K 10.300992323961813 15.955287914724833 12.183475177208775
K 13.030484991543567 11.114239896414876 12.167812853299338
K 13.50896898086357 19.36532066609885 11.106148638157993
K 9.868796215806388 20.687076844003435 13.443581376686636
K 14.785832169060479 15.164751655756977 12.381572149772305
K 17.84119562357157 11.882039985311218 11.337449466995059
K 18.710551371367742 16.404954274728194 10.510909722016242
K 8.684720672202252 17.277710681474797 16.3926540039057
K 16.373501177982046 8.152596361948051 13.66848565572232
K 11.533525074880048 13.590010582964938 15.954694467587714
K 12.826198147540863 9.112366496392665 16.41803180739515
K 12.668734925126747 18.01784503545052 15.11901315396649
K 15.888220981123622 11.835488909847122 15.429480915018196
K 14.260593896860062 22.238320063295433 14.646411630419395
K 17.038426305049963 18.852910586560025 13.830115893659034
K 22.16486750496742 13.716972896239609 12.233186498799695
K 21.589651695794043 18.402298355299045 14.192165592262278
K 16.465724447200852 16.254122541584433 21.270620919973506
K 18.880929359549373 13.035682590056721 19.04845208064457
K 18.778327264988583 20.426039843435884 21.009903878714738
K 13.919205979798546 20.137422098359057 21.940642091166467
K 19.26511894419369 17.52401739776076 17.803118255826277
K 21.332245737097253 16.327418365046977 21.242024235976015
K 22.83747020418134 19.655755194556367 18.431083918466204
K 12.067620741292446 16.594800558771148 19.620640080167135
K 20.26833541836089 10.696718195664328 15.217265096974812
K 14.338495297960419 12.340703677167186 19.67094154373832
K 17.119093426439207 8.8024627306123 18.18050207507086
K 15.470425310110427 19.517914140592254 18.072483483369062
K 15.495666171844702 15.52296433548411 17.05909703236512
K 15.347771705462133 23.42530860391981 19.014743882393194
K 19.060880332356252 21.84293536119177 16.41482298477718
K 22.654289768467592 14.816696840224084 16.917425467339314
K 18.870730001809257 14.816483125598635 14.493697376466654
K 11.231933017608652 20.971888379888114 18.056871780122954
