35
Energy = -28.58808467 eV
K 16.5529357105433 17.479443936178004 21.496685739213877
K 20.77051340813455 14.662260687284245 20.397225723496142
K 9.799027368464984 16.515399696275885 17.82691680189661
K 8.981814934534302 13.80189874516968 14.119643272516948
K 16.60653251344377 13.502007290938169 19.071529338418703
K 18.338295573240043 19.804124490957502 10.696480798905451
K 19.807499789318452 16.09277001724008 13.087054038143357
K 10.861739014243748 15.735851185567952 10.345338616606762
K 20.004546031732893 15.8808303508117 8.89177780086025
K 20.231930090943322 12.832392239804001 16.2640395477271
K 12.280263898077303 19.10154021046634 20.784384464378906
K 16.395969460917172 20.79176385552873 18.09564651429394
K 20.67717433480918 19.28555483872295 20.078685006858972
K 12.459237312249552 12.602000747980652 17.122271336076004
K 8.877771449197695 18.366176996729884 13.544284084434913
K 15.661374801526687 15.935323524588991 10.5134242760399
K 16.421121466316542 10.100925069368758 16.232109301851303
K 17.176439059694243 13.259586043846967 23.285026404431434
K 16.207208265777368 14.179373768202982 14.786401688670493
K 18.10934244549248 12.314682149063675 11.505596220753354
K 22.739275507531392 18.677434416949957 11.665155405233165
K 12.460949659472982 16.24353327656186 14.090967784620554
K 12.878423713335774 14.539028016021451 21.396216345642312
K 15.855389124802706 22.67984182344799 13.704421577946796
K 16.144778022146646 18.57546941141425 14.159656169936724
K 14.592212979160488 10.216624802428461 20.68596311644732
K 13.058617011869899 19.811556179753474 11.358853844246191
K 12.377806848993409 20.47362006072513 15.874933535396462
K 19.802162812138604 16.99775704241031 24.11414027991135
K 18.614671958968792 16.937640496906415 17.313371281393742
K 19.09192519135805 10.290366545350173 20.13907656470678
K 14.21634705478664 16.882811207678778 17.874067626523043
K 13.209461186372394 12.247270406501233 12.358544703884224
K 20.122123189895625 20.438887469567945 14.961843689034584
K 22.793797950827134 16.922932139873375 16.336946239820993
