35
Energy = -21.93614678 eV
K 17.7070856139906 15.160033228238529 8.309215908186545
K 13.415947552765562 16.090619191786843 9.631768476957019
K 15.455866791562437 12.363419307607028 11.07620971087217
K 11.179426705339493 12.658497937352763 11.576970856512817
K 16.65617523519828 19.2611845940443 9.025478827221912
K 20.01226232020524 12.910240094151176 11.264271712663056
K 20.93130948222002 17.664168741099825 10.962283349509507
K 13.503454350162974 19.80017313516581 12.049814111599881
K 16.14927539788815 8.489702124372155 13.080593329563808
K 17.341515299551933 16.55959215971427 12.572718951064045
K 10.048575067172662 16.819174311376987 12.582332833791602
K 18.16275927013004 21.41756565479347 12.460677270842652
K 21.40667828742937 14.838847305830784 14.97992481726023
K 12.94166761644243 10.848644495184237 15.078789589413288
K 13.739396464939029 15.401040129189214 14.401125246827863
K 11.365120384981038 19.11394452952808 16.13258678499478
K 17.741984943514563 12.073612368766856 14.872833054003365
K 15.820846379578114 19.73327705299399 15.627085520686084
K 20.41295118149928 19.32848272577234 15.668753061547132
K 18.1401091448222 23.123918897912493 16.802824132625556
K 17.87176883009199 16.034567102671645 16.9767385164732
K 10.765610848631109 14.558663728933716 17.498408377016112
K 16.200839552901343 8.89903512029923 17.69816738629547
K 13.939105900535996 21.713155280266598 19.11566757752912
K 15.043109875950764 13.089352763186088 18.2372450358063
K 14.249708606732394 17.29895991985723 18.815586137077872
K 19.465236376586578 12.354219021147678 18.984649117265818
K 12.016197807356713 10.467299489292378 19.56904558683915
K 18.10651727932536 19.725425306716005 19.76405814334346
K 21.344264529191868 16.47702791226234 19.425322991098707
K 10.638747617712912 18.490574555962173 20.54331493110387
K 17.455426657040423 15.474226002710619 21.618759782663474
K 12.786546363164053 14.51716506022028 21.836681404925837
K 16.06722621675942 11.028468552963385 21.80407602443406
K 14.688485075208 18.98692122521289 22.727220468567648
