35
Energy = -28.40017164 eV
K 17.068496297854725 11.518396272285612 21.134493495416457
K 21.098510595043763 13.02232777400596 19.851922633046676
K 13.608588865136445 14.184464285249291 1.1739711178328873
K 17.76157664377907 15.896098049861564 0.2970757265962622
K 0.34054981415690644 17.41889459498037 20.68588214928075
K 17.21902372563217 9.673730009394125 16.925926453387497
K 10.724237181732114 18.632552099273745 20.57991727574484
K 14.483594830815125 20.961725358788552 19.548171465274383
K 21.153817426401012 11.598917457005252 15.517346333337057
K 18.615527772483514 20.38088881870111 0.2606641678955626
K 13.461502913080968 11.823926828335194 18.502942479740632
K 17.66879667583628 14.046751062766063 17.1808027744947
K 0.38441488347536323 16.081634487896835 16.348923149012787
K 9.987562463504863 14.278317526801793 19.94610179355144
K 14.10802370575264 16.442713206282093 18.91873746847738
K 18.089269550628988 18.6365843428951 17.74570366287712
K 0.5343962243186522 20.721925194155826 17.516362498894214
K 10.022389672574986 13.189006797633839 15.525339492105205
K 13.503928369046461 10.38402475008465 14.253099160479385
K 18.225479228939896 1.7776907734825977 18.332600109049938
K 8.235355208063458 17.105987187005404 17.027905459758067
K 13.945229477594019 15.112196466890783 14.630045845275749
K 11.92205634214363 19.338886518973755 15.993195082399472
K 17.401654727159617 12.015516986126837 12.93912702492168
K 17.72601412428805 17.29253110387233 13.59435577594169
K 21.017446098121653 14.516347966894623 12.115526977020862
K 15.599625834982225 0.013170244241269944 14.966747051976668
K 0.18528316744164147 19.275295092767298 12.964104999093996
K 19.842255876717985 1.6027898468249473 14.261224710607422
K 11.974850542004972 13.26655592919446 11.134212255472859
K 9.851603562107494 16.849095193291873 12.799307368793304
K 15.928018565947964 15.041339464755591 10.147323219566745
K 19.42898475607428 17.610014124015656 9.320073821207384
K 13.742165655592034 18.76003167558724 11.54873576463875
K 17.571563679466344 21.207175153843863 10.931222207273642
