35
Energy = -26.15220258 eV
K 18.656818328368228 11.554685068724408 10.382464648762143
K 15.228056321018636 18.519559559178415 10.704315168232585
K 19.36367034226527 16.3936273458846 10.126686324987347
K 15.542888035345714 14.19659450532916 8.40764495525307
K 20.48539060512501 13.973706422452233 13.880346683723527
K 12.00907214874896 15.13675681161456 11.232274385789742
K 14.18691396110544 10.741887473575295 11.16883342478928
K 18.899232317961346 21.413625559292885 11.800573472983745
K 11.262344502633855 19.675002213653677 12.48192550082869
K 16.10755266278925 14.284339922712528 12.463832606144447
K 18.0418440047683 17.876135936708774 13.979523967120993
K 17.15406943851535 10.450549075238623 14.759675540046945
K 15.131316296207762 21.4586841547213 14.372414725977128
K 22.148839747687664 18.339450642406128 13.26146733328136
K 13.59655247885445 17.113461421652463 14.773352326273988
K 12.917340681203168 12.513938359628177 15.460755222609153
K 17.919971896095507 24.840898279058205 14.824226727683238
K 19.85604030714542 21.26061438814072 16.348219822038814
K 16.85059280439947 14.456037994888279 16.52239096684966
K 12.315146266997049 20.05187677750444 18.022684564846177
K 20.67891967982576 16.77632961899751 17.54067680323021
K 16.439264643478552 18.72262457229744 17.806672544445437
K 13.264119067128727 15.647170546008883 18.783312816935965
K 19.845899084540893 12.20800264499866 18.687300465289216
K 16.258013760514768 22.859813995458172 18.717157540495837
K 15.296671278426187 11.411479182830709 19.413576025387215
K 10.945418669018931 12.453488363791939 20.2182566777442
K 17.367057404532773 15.461214917471484 20.49799269388094
K 10.54275232801413 16.955755010435126 21.691220784158848
K 19.270422258958153 19.575286094896317 20.981379408704136
K 14.627752051742734 18.9608565962462 21.797126180332146
K 21.38295553080545 15.265612404022175 21.925920707907284
K 13.97807753140448 14.257633172131925 23.030667985834114
K 18.14571898848678 12.116602881035872 23.044474213131494
K 17.777901128425906 16.571294639552782 24.385253336840805
