35
Energy = -26.04451387 eV
K 19.221501611953414 16.48410068850477 8.685115476823523
K 15.292869686808883 15.016780251698393 10.61354108797271
K 16.800835463933616 19.750919294175798 10.951411932395423
K 12.454745839087254 18.476085384300205 11.824734297345282
K 18.765745059059164 11.958968430617249 11.005918888714621
K 21.273800563586935 20.006207432823057 11.355240868968789
K 22.748727570015326 17.21450394824104 15.590398011402941
K 14.40546713411171 10.634350939574041 12.115410352776452
K 18.263614387186585 23.615299852525226 12.926533573307116
K 19.605623148460335 16.148278064114795 12.714123551091323
K 12.221733717998633 14.31659224380259 14.203075671973618
K 14.57504069975508 21.681687672564674 14.801065174883188
K 15.5273350393807 17.375942398461483 14.322738694650374
K 16.656069872519836 13.187301694986537 14.518181831192647
K 19.18795550943438 20.17884519824061 15.17761562129567
K 17.78358887777871 9.182141289722901 14.836638271769804
K 21.064132597712586 12.683667740216162 15.185395695534316
K 11.69498721144741 18.22095486005255 16.585654746628094
K 13.793316671298774 10.758951485064541 16.99439112414606
K 18.841558753922662 16.13692036899977 16.901258647007445
K 14.599577341059186 14.986843044857489 17.950437654519025
K 10.559578270449643 14.390336451278731 18.845462708791867
K 15.893032431181316 19.155259049845657 18.244783595132827
K 9.15925920018951 18.461140484787727 20.218682674102652
K 17.9519815392994 11.861477352173777 18.78388708928384
K 17.35026397912115 23.140894710678175 18.202284083334796
K 12.741636375558931 21.598809117226487 19.63243326571999
K 20.192432294360366 19.5977721197007 19.47791370266053
K 21.656082855752818 14.748721490899339 19.60083303160686
K 13.13559588179431 17.36395204405753 21.45333174291893
K 17.64856094830483 16.186338144876284 21.022351223508355
K 14.374154994099253 12.873333848233585 21.676636895512065
K 16.546825456162637 20.42115731920232 22.315763791636382
K 18.717009109243797 12.792576877808973 23.274087133384597
K 16.097169438518605 16.194698236234764 24.794477418557296
