36
Energy = -29.30485985 eV
K 12.315959656168383 19.36955662548731 1.5170071718310003
K 15.596628357470586 21.51367170901276 3.6985736009829453
K 12.799646314514108 15.582741407567928 21.519747262662346
K 11.855749177368843 20.027988933903924 19.46437566239332
K 16.365857057258353 17.539737273878192 1.4858827684333304
K 15.246392449076842 22.218160746597523 21.54715949666741
K 12.267951967871397 16.142079223453102 17.075651087483365
K 13.419794744542763 11.913971371381688 18.77287060876704
K 11.490055856084794 20.374543054143004 15.063926936107714
K 17.039660322395196 13.956670627765622 21.002683044287526
K 15.103986093830859 22.269819800674018 16.950198430314323
K 16.016710389757492 18.192236921173023 19.30716414889582
K 19.284414427230313 21.124882980341752 1.1089830068513447
K 15.299850540944657 9.376226959495291 15.525342323858206
K 12.638897076104355 12.812315405981174 14.123139734091202
K 20.97144150791264 13.680597300002129 18.53265101012388
K 10.956794649992613 16.7274015461344 12.673401656577852
K 16.671271018705305 14.0798412192188 16.373765647650462
K 17.945281529631266 10.198549152359597 18.90303905402586
K 19.13935565104805 21.86224000847775 18.9317429218157
K 20.23946973176706 17.288017549324785 21.166590486903694
K 19.919352337548418 17.803081429937368 16.559436149664382
K 0.7593100255559362 20.79885730732867 20.80555244232146
K 15.641697656153928 18.158446170068633 14.715863282777757
K 14.829210721861687 21.72074104271053 12.347179149617817
K 16.390294757252672 11.884275454382625 12.052051201383879
K 19.97086311462276 11.23014719077615 14.861996315881306
K 18.96242647153451 21.83986605215096 14.342977789762969
K 19.21184503209278 15.331993739840456 12.687552468896904
K 1.8246130749054474 17.090224602931105 18.551905363607524
K 0.7441667381063335 21.201620390114 16.382376789208447
K 0.9345086790069969 14.84738838656706 14.747285287636196
K 14.87864052089515 15.984499621968341 10.973864986380711
K 18.200853430878745 19.241813541801076 10.772849281121582
K 22.253847260243447 18.922761458442693 12.641790643503876
K 3.910592232548982 18.485268972994923 14.884662019716531
