36
Energy = -29.45184461 eV
K 18.43836138461678 14.798073489510402 7.82114952387823
K 14.43742222631126 12.561068622579619 9.293632219328517
K 19.0892957851431 19.336548971669192 9.86654347675478
K 16.459215302730296 16.04525175991806 11.20588376286927
K 21.303115258672914 15.506375162869071 11.710548411614742
K 18.44920562669286 11.57920812319885 11.424962575571044
K 14.765988438240555 20.252773206986987 12.268831230976419
K 11.863980170236436 15.88132959904398 11.897695975590546
K 14.806513283417358 8.697826601773292 12.27710003228007
K 17.85593380447153 23.073169515664617 14.388943208881926
K 19.29648861450215 18.755075120750586 14.220176399524993
K 14.278460129459763 12.529347671620513 13.744026054407048
K 22.00784586545911 11.867255394005245 14.90324351900515
K 18.50380818381685 14.240882844794324 14.823695980741983
K 14.802163645879599 16.6437883289911 15.008553611011747
K 13.119735279359123 23.388661010038273 15.440804258436177
K 11.145392886252138 19.07584667042293 15.663645027572729
K 17.75104300495851 9.878236754091702 16.01561797433519
K 11.123697160231735 14.348251026686338 16.524042896724527
K 15.690850716142544 20.237833446536055 16.90774457027305
K 22.267418248194797 16.138349868765868 16.67104970732937
K 13.10163324187746 9.792185863071653 17.380458175147197
K 15.556313707897843 13.274040071885667 18.018056562102664
K 18.15476940262796 16.863020773441264 18.331264187073163
K 19.977906229293115 20.951408106688255 18.35584938994151
K 16.262687497786803 23.949286031352848 18.744830929213798
K 13.712328273881168 17.01816129128149 19.175212954832883
K 9.446049933951404 17.396254225679662 19.740022567908674
K 19.979866109715438 12.734668965827591 19.10840981279869
K 12.260975843797219 21.245890077694693 19.735758536803672
K 12.273937546747534 13.06930905499698 21.043114865981682
K 16.21126494252662 10.325891774128838 21.015374526323477
K 16.602163073634575 19.7769666748238 21.51753286802453
K 20.790861220226493 17.452600283646575 21.495930998989387
K 16.70988526633886 14.826632664097003 22.273003585774347
K 12.61379664667563 17.598904903235084 23.097663573745603
