36
Energy = -29.19373965 eV
K 15.04289814688836 15.724810954404674 10.161147957255647
K 10.718550641061045 17.476163143330176 10.486732513559739
K 10.062316190010389 21.887766824380833 11.210417925989066
K 16.33267331571341 10.767797289606913 10.36554011956535
K 14.054299955669936 20.18179289565599 11.961349968890653
K 11.81082099001429 12.955984908295875 11.193724320385083
K 19.43417516097903 14.626337237782627 11.411260608913869
K 17.20810165595011 17.409733761741013 13.637605649539992
K 12.958618836593917 16.044223223078696 13.95469923193055
K 16.098644496064065 12.666743722911965 13.94208159524404
K 8.825333504166359 15.073235436936107 13.958129902139214
K 13.00764844214299 23.065309678357092 15.27024366993132
K 10.089057448442647 19.48655404488593 14.870223141854419
K 13.024895140163371 9.252742079442625 13.342211523911617
K 20.504558013650577 10.92354824869213 13.726892746019427
K 21.284400750160934 18.87621166377129 14.714893738039702
K 17.164587068389746 8.177210974532676 14.15848739746759
K 20.2159663044327 14.758091507198136 15.870527936691746
K 17.453193839766953 21.845047094519643 14.988947874046122
K 14.331189719857697 19.213606738033235 16.506908535248034
K 18.298769009316455 11.167899616991237 17.672942706359404
K 15.659388512559113 14.966058222621552 17.331021467636337
K 18.41651160169728 18.27477321248526 17.89962331813851
K 20.902969842215146 21.638419768348285 18.319260581084336
K 11.502324350084404 16.25277217345876 18.320280167394056
K 22.419927090030896 12.115892033904542 18.82186917397768
K 14.53789796696275 9.228887692253137 17.55323842151391
K 22.47200253495267 17.235639361572087 19.032441587152068
K 11.85038758279982 12.390812406419958 16.239236540315833
K 16.29472090565282 21.87609517615744 19.50437784759224
K 11.727159586279171 20.930277692064926 19.169057628987503
K 14.755183363121665 12.733226501962054 20.58762362327648
K 18.96805399631397 14.742303642498412 20.64852346653713
K 15.012280547558527 17.625658538941245 20.840921125035365
K 19.42451874626512 10.455440946667451 21.68438477343319
K 19.3736972127305 19.190654054755075 21.88089368360234
