36
Energy = -29.44665935 eV
K 2.9995373233543643 16.259205579350898 12.44552870965748
K 0.6534241672668687 13.959506198580458 15.487679511820884
K 21.104067905117684 11.417680464858051 18.627627621566948
K 19.066718245502653 9.047962650628685 21.85896425343651
K 21.01691025632039 15.459413204824585 11.781374133769395
K 18.885018551517554 12.813286166351155 14.88750359406068
K 16.630328112097743 10.552373364530261 18.251404069678497
K 16.34429277358183 15.229925377972078 12.021404455420496
K 14.301395018315803 12.835669015780695 15.112256494781159
K 11.72858994738539 15.09125464139258 12.084926237717294
K 1.407444143509266 18.439962993869496 16.147296912954555
K 19.613084191813236 13.5182898571694 22.573101269179237
K 22.107709819905413 15.855565410645118 19.445528612608324
K 22.591496292915487 19.599790312445837 12.068308418812792
K 17.955035557623592 19.524571582225715 12.059490256922729
K 15.481253040657927 11.711434890738516 22.48796588496288
K 19.63566898391719 17.35832459952712 15.682251623901385
K 17.61503672908078 14.91122109150925 18.833424173499825
K 21.446012936998592 20.45662900143472 19.25262417124507
K 14.898669184778504 17.313998147688025 15.807683576921047
K 20.26916222159624 21.865419140827953 15.151100833941138
K 13.198600636636206 13.976578586193241 19.24189665969332
K 19.534895605410426 18.095868123742516 22.54767181960151
K 13.261117132390723 19.246093452732588 12.084105692280854
K 17.021965567214618 19.611674368633608 18.923991802216285
K 15.408833460238236 16.23635294674987 22.552108477011682
K 10.571740389970447 16.207345139033436 16.22035061028628
K 15.660211496980779 21.88394264132066 15.100689268125697
K 8.68895681878771 18.467577301988452 12.809795065992963
K 12.512505163378819 18.518524037469223 19.637420934607032
K 19.193205420050074 22.608201266620505 22.596194503871633
K 18.021667115289077 1.3931734323739506 18.502145676905883
K 11.256339795135618 20.723181656478783 15.835817212109234
K 15.08257023819556 20.77188975665564 0.1583373720347035
K 13.574811344423528 0.34723897544793336 18.935601420468984
K 15.529503758064575 2.637584945599629 22.225769522426347
