36
Energy = -29.43141907 eV
K 17.523084690631133 15.09625833032134 16.969793256480564
K 13.101983758725622 19.966839490780504 13.04679311401685
K 9.987816239311856 16.276034233658294 12.556625309201127
K 14.239220107418006 12.009885691753011 16.91431471448699
K 16.570593719868448 12.92555166843653 13.34829521745431
K 9.834411285983348 16.38043354537053 20.83059312494455
K 19.512971578352317 10.009926188511296 12.39632725180893
K 15.052155102040935 8.511516268468872 19.17457112434641
K 15.389299791863483 10.72120462232183 9.916760098473706
K 9.929680614470152 13.869234535116268 16.77290873548285
K 20.060805725931306 18.757027957300217 17.27244133463213
K 18.640861147710325 10.657640095546512 16.947791224595832
K 21.725713651410192 19.21362820426788 13.259154530498886
K 11.064796932816973 9.199827709678251 16.761999288824324
K 19.921637943536314 22.21134805290621 10.524168328640464
K 14.481230659843426 15.600915322034234 10.191701955845119
K 13.547032842336701 15.80806903191786 14.585118250997867
K 17.446791775577694 17.526566588593056 20.913078871619373
K 20.960825501117107 14.374437266457493 19.103511980110532
K 11.957003261475649 11.855664243733974 12.910244281330886
K 20.909856081327373 14.505251470661213 14.016741887836014
K 11.947624208314453 11.880942071363426 20.676937684242496
K 13.84754997035217 15.710169394760705 23.254447504517998
K 17.337428186145843 22.0266355248467 19.251770329500243
K 18.8651184425941 13.733907991622932 9.779610261855975
K 15.492166999813062 19.006245536579808 16.874440754817382
K 15.221321194582794 8.597364094534566 14.271837929986066
K 16.728657025026973 12.683437025309294 20.85081987121497
K 10.787463418140188 18.674153462378555 16.847821319553134
K 19.968433989460856 17.881514355694446 9.382064051310275
K 16.053306228915975 20.096272953091372 9.782592649587926
K 17.57716177487316 17.52563809332582 13.049040048596673
K 13.319588685227352 19.886562772026775 20.79187339048029
K 13.602906505175643 15.718576956464744 19.056047056842555
K 17.502307221547166 21.873939165762682 14.3387477211372
K 13.375350120249605 22.711536466570337 16.863171926896296
