37
Energy = -30.23165128 eV
K 17.973103379777232 12.577839049950112 12.801258406072536
K 18.433074709460794 9.205278593622097 15.75001559930865
K 17.283429125111308 16.177862450331556 9.992443534628224
K 21.24701355004127 12.795059027581678 16.15625422982665
K 16.442651974193108 20.24168120637423 7.880670162578915
K 13.231703536186563 18.003047280747506 10.118659344968412
K 20.587066248369702 16.28915461938773 13.32109882266228
K 19.230618330709532 20.207852030684176 11.237568847988115
K 14.978869007493756 21.72670520908268 12.029271096327792
K 18.560144481647782 11.011109828644086 19.896846619224863
K 1.1305496397201091 16.65915063986367 16.802300242005156
K 22.482341065620627 20.31055289018843 14.269101015124118
K 16.28591224681822 17.887471778807846 14.234273555186435
K 13.853412366409207 14.310834175319819 12.733511576924593
K 3.1851709398267203 20.838258308696833 17.29411205324958
K 19.511577875744223 18.356630861826872 17.543978522934808
K 21.5913278645203 0.0064253485964795975 18.164332750176573
K 14.280516745623316 10.694267975372341 15.420861743757223
K 17.00403366848416 14.186635320134492 17.056270375284996
K 11.781722426307404 18.34088276377817 14.30300716934825
K 0.689226796061181 19.110584588903457 20.64839753726667
K 15.727724943985312 7.6506225402617165 18.756212841081133
K 13.893969684748233 21.75561361363112 16.51182426990846
K 20.93623254187116 14.935011333497716 20.226361220574333
K 18.218603699202443 22.134471501511136 15.194296586396714
K 12.369727740800105 14.687420255922254 16.969396096480292
K 20.66355764035941 -0.011651018594971948 0.026880200994877552
K 15.085899222145926 18.003428744434526 18.80651903613235
K 13.905514992963916 11.59703177622523 19.89291302936309
K 18.972478755021335 18.411914525628358 22.170375196593866
K 16.542167813077207 14.679888549286304 21.7879054587848
K 10.67361940202791 18.75022794734007 18.750354428455225
K 12.78104157400873 22.11330002150496 20.94961900471307
K 12.031558601395691 15.390735033363388 21.605110079227643
K 17.190495993449233 22.028369160955016 19.813520485786494
K 14.675294305293122 18.76153577000107 0.7437787718926427
K 10.156529858785422 19.150734455091072 0.729271148438349
