37
Energy = -30.13777965 eV
K 16.56000184718172 13.413805877028723 8.188502550318914
K 20.434110624091147 14.418163819781178 10.241441719228401
K 16.96566997134148 17.044859513778988 10.813545619226502
K 13.974851696266665 10.244486390258556 10.218486967097691
K 12.92442796675258 14.427538277881615 10.704381438132597
K 16.693064166296022 21.53057915273131 11.852520834172804
K 17.489757073554845 11.808838085619174 12.210577679913321
K 12.961492773951148 18.49142276748942 12.607650052876794
K 20.68051161297017 19.21412676175506 12.958227296954327
K 21.544360946855353 11.602855221232016 14.559325381676768
K 15.186916573158399 14.839107261027639 14.307298078653462
K 23.60009627119155 15.605503364629708 12.942517360431566
K 16.97106774707285 18.89846065359684 15.072479711934307
K 17.156285746497137 11.278431158578917 16.55242125851307
K 13.111065195084377 10.909545845212044 14.623552214702032
K 18.25472432677461 22.95168266287932 15.956089712710703
K 10.643061975597359 15.000956590497736 14.750600041430843
K 13.639047500693442 22.041959298162354 15.336748102731564
K 13.380377317180134 17.90045948812864 17.109894912155127
K 10.012089425478061 11.57626255808535 18.01789796334551
K 9.692264953529223 19.4373400210608 15.71188288847488
K 9.915132780985543 16.18659089894841 19.144947041207658
K 14.77867523460071 24.618504249906227 18.501577046330873
K 19.47674035729994 15.23196782168003 14.595864679300563
K 13.636882300435708 13.733086671134913 18.200122633045467
K 16.32741231285722 20.568504963451257 19.316739817801977
K 20.411300377842213 12.376223556956713 18.863933583906366
K 23.055178381674352 15.479188531823187 17.189789299025016
K 16.529226278898474 13.169490966160676 21.501475403006225
K 20.525666261916214 19.347538999791738 17.774130575298432
K 17.43853229456272 16.122703636786316 18.49896318790284
K 13.993944393257422 9.681270718000695 19.32577732394108
K 13.676711601502557 17.086387722481685 21.410005976082818
K 11.895113924839212 12.865206350838312 22.01597732953549
K 11.870477040964797 21.052143593697668 19.582984587687022
K 21.169732940915676 16.138208114849096 21.048746772676875
K 17.712102067049635 17.994672695198524 22.58099721969094
