37
Energy = -30.34649897 eV
K 12.7066947854815 13.782651178657247 10.968318910835102
K 18.919325054273298 18.927772105889325 9.676299295080826
K 17.650298516047332 14.388539911896055 10.551094105440539
K 14.5112649143019 18.223244030399133 11.104247577480134
K 11.63479710967739 9.669773946576317 12.75238986787331
K 8.638460817565342 13.195705806211713 13.211219065736111
K 20.719489386177468 11.067182783817062 11.982109639915237
K 16.106933944278705 10.821226739449305 13.219511404310346
K 21.913784649571024 15.678471651845896 12.103828552294246
K 11.013508177513495 17.03715727203132 13.86640750771422
K 12.074698433423157 21.666183900662254 13.611642320279865
K 16.769750390725196 21.938357171320046 12.857238719887185
K 15.225943780946007 15.082543073464072 14.160162699263761
K 18.349231612103562 17.77100739107761 13.6464454296967
K 21.429159794029076 20.346273690940937 13.225034031293076
K 19.223885942907536 13.656369990635229 14.930792315576397
K 12.319457864369786 12.673335668044992 15.492630103343549
K 14.687871094206733 19.168530416807812 15.616670946762595
K 23.208650681656966 12.603301024640194 15.66154270742726
K 14.570167163862711 23.038650885007716 17.343820703635654
K 18.71569134204915 20.731047938587484 17.048880349600932
K 9.319545464362392 10.2128900251533 16.733903229436017
K 19.39898614068455 9.631644097090204 16.351302517862532
K 13.89804128928224 8.758076976732315 16.793859979628778
K 17.505857054261774 22.524844235369326 20.90209692915445
K 16.2140498411334 12.21129350733103 17.977233396837576
K 17.509401595139646 16.483437482360678 17.78354370242905
K 13.24802716073182 15.855078142426798 18.01399359339125
K 10.881065400130447 19.57579063016747 17.82652364132044
K 9.07096317360443 14.908737950455418 17.648711090222626
K 21.79020079684314 17.05854414003093 16.63702627632773
K 12.202447928252193 12.077698968096655 20.047236139425483
K 20.455339012263142 13.611610685344456 19.257602223548293
K 14.836415297581961 19.313795047977763 20.23274909779695
K 19.579662485189996 18.24708228374225 20.921873400941877
K 15.760158539922747 14.928125675135265 21.5534301898704
K 11.255367642897088 16.44861785207254 21.603222615808342
