37
Energy = -30.35061743 eV
K 13.05507494076814 12.004359064111416 10.01141958027436
K 14.056277552319756 16.816411765721863 9.91174063490698
K 9.876640370641445 15.067360194083236 11.245020384003425
K 18.823008725066018 18.62242657376292 10.541806090533687
K 17.243497476588562 13.577765931553923 11.492458006708718
K 15.168494187174815 21.285766100012275 11.861559187650847
K 10.248183320232611 11.150654675966093 13.837208129938821
K 19.035877438681645 23.079339215785563 11.337363948749744
K 13.13125756833707 14.259290448219339 13.571600165278609
K 15.056186118048485 10.117512239858396 13.872151213387408
K 11.765779447861648 18.738721954249616 13.560240204164224
K 19.540008692384955 20.41309478124529 14.764218380500528
K 16.184139210615363 17.467443901277004 13.648020835631666
K 19.904396148813678 11.133224533005174 14.662558094864899
K 20.373640501791105 15.899789322808436 14.09123310437804
K 17.073956327392747 24.188769739840833 15.388034188074373
K 16.549819535704867 13.639601399034975 15.878531751732414
K 9.460481543227091 15.581710660588385 15.85450351570772
K 8.465167256016654 11.990384117553539 18.008788097486086
K 22.007159205389932 17.98453212572446 17.920261141858923
K 14.823188754018219 20.746272684394707 16.243476729048197
K 17.73286456792316 17.602490109884823 17.649660732378436
K 23.57612238988423 13.618106180305656 16.358322730956452
K 18.505264841289392 21.497694370746995 19.151280522216112
K 13.532489344985741 16.554548968435395 17.216405114446953
K 10.940970450074866 19.86802214637001 18.209154221289143
K 12.842687208631048 11.90271615695215 17.59476704702574
K 19.800080326449997 13.946614377618552 18.30152348316198
K 14.295749418549711 23.43115151451405 19.351116812017416
K 17.130943002601477 10.180457277420029 18.427565263885747
K 21.811624127891264 10.2172658696795 18.84078395799113
K 15.602424009689255 14.289169940981148 20.420558201327506
K 10.864879423164089 15.178400199424493 20.196343701762764
K 19.153582703927544 17.08593756305663 21.637338738806438
K 23.005256692715694 14.355329955317032 20.82375300181889
K 14.895172748178211 19.054047001965476 20.719937351447907
K 19.2229350148262 12.208897530386581 22.154576326444577
