37
Energy = -29.49132989 eV
K 16.7006454601145 1.5343355348147434 15.512612784273394
K 12.683665701061669 1.5794489587068337 13.51732797951911
K 20.183441112024685 21.255031641857116 17.578646162650497
K 16.158832968394858 20.92552054473475 11.550140601523111
K 1.8129699247531166 19.0008489433824 19.409237650530958
K 16.169301185652074 20.64935275323107 19.461779913462575
K 19.49313606999495 19.646908546677768 13.768559461773455
K 1.286331638050928 17.464852691361017 15.568094105710204
K 19.55782809583357 19.145148252427187 0.059761116566040426
K 12.148490716985988 19.15439298838664 11.345150343908948
K 19.08542844733579 18.296579075014606 9.783916231407098
K 0.24106298014851466 15.786009296343975 11.817547097783663
K 15.12297866831207 18.90930362394496 15.374281268725147
K 12.617439036007958 0.7396102644862029 17.701985580506467
K 0.9888775430529472 14.735578122043304 19.17169925996572
K 18.798697878930817 17.010636864533907 17.52246682603271
K 1.7562117682277876 16.884882453664183 1.6253437561498003
K 15.281293406155433 16.72888999462428 9.655237436626189
K 17.524588433428402 15.696401160652695 13.371895786017841
K 10.654899344661738 18.926076356791384 15.406130640574025
K 20.987203359389063 13.266838656552588 15.501891994879074
K 11.414956004330707 14.88163412506586 9.562310249126206
K 12.486113231714176 18.206256284674275 19.372036162966992
K 19.490885361100794 11.970281918941334 11.658574105933933
K 16.072134258369964 16.538862461921145 20.8975696594132
K 12.959388558237302 15.581797138024482 13.522945742833448
K 19.582572038372568 14.758850052860545 1.2266934874154245
K 14.990250612687973 14.59155795446167 17.212616491582892
K 15.173472045016574 12.522290548888224 11.326569043414153
K 18.496795198689863 12.788068111093194 18.953294144070416
K 17.269761730541166 10.926477344800428 15.245384842592074
K 10.579183827158634 14.858617328511661 17.019872490360182
K 12.413712549973884 14.227279745801933 20.94451183358291
K 12.888955219231779 11.482044101992608 14.986843952257436
K 16.01967588428488 12.404660835857523 1.1340335020241483
K 15.003750907075004 10.297910893645927 18.790734363681644
K 10.787743645107158 10.852943896498843 18.80417607653181
