37
Energy = -30.39386227 eV
K 13.00533215053626 13.471949759896235 14.05773714656911
K 13.044549204173919 15.766242497561635 9.967414997122765
K 14.977600058847475 19.044783038431742 17.97194788267258
K 21.975062898880005 18.589496437071812 16.139491207854366
K 20.360000381811606 17.081420586739522 11.641530426912905
K 22.095798745519488 14.30582650095614 19.49865743863939
K 14.589884245527053 15.58424528316156 21.042975432161835
K 9.426277308603112 12.202592767228111 15.661548003353365
K 14.262379951656676 23.07410690752092 19.009619156586812
K 15.228674471828512 22.03874193278337 14.379177284309767
K 13.700162788068848 17.77423803015577 14.000185327733302
K 18.182548237826623 12.428196191981666 19.329876605190837
K 11.469644955254749 16.018785986999145 17.62352994613713
K 18.536376900841173 21.72158557588244 17.761494803430466
K 16.710542486026792 14.96349501776393 12.541759544529258
K 19.76017687385852 21.66447101359127 13.14796080534345
K 15.849955348684079 14.997005521130589 16.865779411340455
K 11.192302181519203 20.520269950687375 16.166883570885677
K 20.18313068774656 14.44115142644421 15.495586474043478
K 17.43259690834553 14.929263847121566 8.454548981375966
K 15.45411768344087 11.328123091990042 22.314876309588406
K 14.90975620315401 11.463938834541219 10.562655923546453
K 13.25399529392297 11.790815193937194 18.38019202231362
K 19.691303317888778 12.067152797738437 11.644179367047379
K 20.601911515059577 10.145264593183148 16.52678624002995
K 12.760241140000764 9.21088368354007 14.483565032142609
K 16.521384385559706 19.77330362394705 21.895755022874926
K 16.33485366966649 19.181895892406732 10.651790300168066
K 9.72561922104287 16.359196748182722 13.227402907846068
K 18.633712333975645 15.012301027553155 22.89882747067649
K 18.9598743540447 17.27211432017459 19.19335055338017
K 16.346052271629663 8.520229718192828 18.376555152463112
K 16.73512641444115 11.070879906784127 14.868941759961752
K 11.825130710203974 20.311348947466637 11.309746126231284
K 10.325043634622643 11.961638808230552 11.175570987309248
K 12.021489294544528 19.509362001210295 20.800010256491355
K 17.912614021671065 18.398904788238493 14.927312372161783
