37
Energy = -22.74113455 eV
K 21.687869473741234 13.92413813909392 15.448027443433261
K 21.59193563074474 17.638317618461798 12.537638685805266
K 13.068320733424386 13.738938392593274 18.379718643287074
K 16.428785091077774 12.678078780188208 21.004265464638383
K 16.322319726652356 17.001587125064678 19.73963674783804
K 13.626352043407024 8.862719735015444 12.750596311872938
K 14.25457969333872 12.788000221342756 14.09535608949783
K 17.956189254834968 14.933373274719836 12.92521586096827
K 16.112440957213042 21.064132945781534 16.75304132698507
K 19.1345586966042 17.56620770445946 16.210892350492
K 10.67114623483889 11.000137209630271 15.82213828719212
K 9.549154076125042 19.799976394930965 20.58627219068737
K 12.431939707001055 16.243312897245236 21.96140157038597
K 20.636580405491525 21.36599966590121 15.2380879685382
K 19.93177417819214 10.425857699986203 18.160698709875334
K 13.972029041925747 16.45569923840221 11.034899101885836
K 9.603087944794716 17.735681982507632 11.474553703258488
K 14.969862099415638 16.925660954844503 15.290943802639642
K 23.245708398950022 18.091522772629 17.07119566629797
K 17.25588374608884 19.49364000438705 12.47724703606787
K 11.789237902993182 22.451216404516 17.53640471624187
K 22.328053192895503 9.739991523383502 14.280045254794183
K 10.779331562723195 15.442216495156437 14.78508120640242
K 11.173887861646323 12.64528854309277 11.212776150679225
K 20.63715665360384 15.221591728478865 19.641141099105095
K 8.766432888784868 19.21866942264635 15.935347464395399
K 18.02450518422807 10.295231736984299 13.83543017816247
K 18.545806377506498 16.452863841010583 9.171347869043398
K 19.643133248394363 20.013178851280006 19.64927371702299
K 12.680144941975893 20.201146833972885 13.609473726080436
K 12.374450653436563 18.222175707054486 18.011832599293882
K 15.90827690221191 12.142526227917251 10.113942573519788
K 17.43224691682946 13.560243384143849 17.005924698028515
K 20.88480936979169 12.672398553519272 11.07008532264998
K 9.024417452954815 15.370040914430739 18.897843139376686
K 14.304254635257672 20.711418647138608 20.97432017198876
K 15.057643772519915 9.711125079704564 17.112209803182203
