37
Energy = -30.32952761 eV
K 17.0066013296434 19.168684518811734 10.616748274614578
K 16.410130448156362 13.880742529361504 10.682174826360383
K 20.186848248765898 11.241325480942734 10.756368123655925
K 13.259505463511081 17.10183497079104 12.412323637487791
K 13.094060197579246 21.802455928850257 11.749656122337717
K 20.8604640831784 15.781690388557978 11.66927240923445
K 16.354026774737278 9.406517583465961 12.69449137703891
K 20.06696429587818 20.008450590355423 13.981949124094422
K 11.171408686844991 19.989639437544703 15.777110373924149
K 17.384781040072088 16.459807712871307 13.988253139761417
K 14.20210519959912 12.943824844676955 14.673548763154045
K 18.833157490579293 12.499797061508774 14.39144397301111
K 13.787554069642898 24.126905051116985 15.91100032080033
K 17.32400960956035 23.550510973292432 12.731210527206944
K 23.07275402954733 12.343626682830688 14.126753116993056
K 15.548289929611839 20.367443322474454 14.738132641080135
K 20.28611262224436 8.50028863217235 14.471997820701048
K 14.07138780302603 16.902616530327233 16.88727865326133
K 18.06506165247919 18.612098984594883 17.76029818074095
K 10.410964105284625 15.283918956397263 16.161979734755214
K 21.497704460674875 16.094580771351616 16.270508194280495
K 20.963509895065847 11.839586704203706 18.406358073727656
K 13.434677498978614 12.994058446788127 19.301617453870797
K 14.930086456708983 25.067114160663788 20.048107435784452
K 21.604901865872247 20.385512847179655 18.604666816670704
K 17.46520036354913 14.221778322845203 17.869058479046426
K 18.06214482070794 23.067959677853043 17.391471913204725
K 14.12106811013733 20.87440277381528 19.20502106621181
K 15.74974280285569 16.706891081045136 20.865435034721237
K 16.65920285777498 9.995586902797998 17.484403982729958
K 20.322621713562928 16.039724714948647 20.74241358120654
K 18.021914451605074 20.62366007266803 21.674073588113
K 11.310131752845951 17.28269983633735 20.274139893523323
K 17.631011008059748 16.53413902445556 24.573165865688058
K 13.449802407604935 14.606842987458128 23.672950360352782
K 17.391314782439434 12.50139352861228 21.809404324223145
K 13.979005944213911 19.182116238631163 23.61544106903092
