37
Energy = -30.47924672 eV
K 18.377489062718716 13.809827249142526 23.451611404085316
K 14.805274056431697 11.015018524673787 21.49999557647268
K 21.812870342503903 19.5613055329582 18.407820899475208
K 20.018533053891865 20.23476419761321 13.846994405563152
K 17.208116573020966 19.268648457030885 10.187945900413116
K 21.397734320839707 14.928314973730796 19.805099648868424
K 15.783197449647393 18.71845810115633 14.320517488306148
K 9.970088743268702 15.193888772006934 11.606241644761928
K 17.278442748859906 21.172020443846602 17.73926614318514
K 15.728581270183836 14.389926185650204 15.44393846104943
K 10.43040817559081 17.696256986892614 19.14394623490317
K 19.839659986592803 12.691477219820047 15.952633129488198
K 15.715802990422777 10.421529552127634 17.004450995727293
K 12.491861351968886 20.82679653872094 16.442044354077893
K 17.055953639922745 14.053156081233501 19.492245430844267
K 13.329464284291554 12.309192516077804 9.382270161818035
K 14.779133956068339 17.561897153148827 18.454609860603686
K 18.207588845784187 18.099611639496562 21.37935393472688
K 18.691984727485643 15.947868219304642 12.774177148686563
K 17.934777166349203 14.609762888725534 8.77489419239247
K 14.425074274444299 15.803305886067308 11.294920248154712
K 12.072877003640542 16.501347425690597 15.126964541570295
K 19.32327543094904 10.664187880050052 20.2342301931529
K 18.896037175120185 17.075426813846445 16.96566545259501
K 8.48403094647427 18.446032096012267 14.778979063937042
K 22.607778208706538 16.377386456379277 14.826488740759759
K 8.835519281510264 13.900130125094428 16.218927600074693
K 12.209426677626606 19.686982863113563 11.941105017215659
K 21.57928407585769 17.593093654902713 10.2115480990317
K 16.89731754194007 11.74964377629201 12.285414301385687
K 12.434086954820888 11.9975335529833 13.92101824610254
K 12.612278108921567 13.758769794267693 18.721550775619242
K 21.499035510637714 13.18817979341592 11.498063108810394
K 11.189002170740823 9.968667756545814 17.897911672045918
K 13.921420435264185 20.335366325578253 21.331212331535298
K 14.2558144259536 15.807137592788733 22.478361476658527
K 15.900480709502183 22.63678865156779 13.157283793856077
