37
Energy = -30.38635251 eV
K 17.87246333014171 15.843868217820344 11.059578467251416
K 13.583233258634019 22.35574629839497 11.00290684234469
K 13.493812425616499 17.531355584733646 10.88851628393032
K 19.00034323945095 11.213959666775965 11.576055021529342
K 16.963338755777873 19.880684927596437 8.873225307325713
K 14.62179783322344 12.674144548770567 12.396648956612525
K 20.908024119498233 19.413312953339975 11.5067053005906
K 16.737935435121226 20.356965274047155 12.926553665073623
K 21.970501879683866 14.72391802420372 13.118628834358166
K 16.498241478176087 9.464893415958088 15.362835406639466
K 11.2170953239372 14.850161513257095 14.654006234628595
K 15.18000329112549 16.52003956719759 14.62383730816948
K 18.241610736405054 13.453869485929584 15.033159002021307
K 12.421518292827963 20.003513108050505 14.731276995242164
K 19.371096251755393 17.626378296427212 15.143956118435293
K 21.148555856767473 10.576632957271524 15.694603518255592
K 23.28271304698956 18.84252393993137 15.416100558336945
K 19.851338413059985 22.069681075387912 15.672775596609238
K 11.776856060872303 10.28848200006173 15.44577037333811
K 15.16955542155511 23.6840467579388 15.541645767960203
K 17.269099547102034 15.898453181876219 18.578012818888812
K 16.255814378958778 19.909877968451326 17.1955633297369
K 10.855036986013245 13.116241897170996 19.256037764559952
K 12.74534065812356 17.106523494104184 18.345619582343666
K 20.362349086134945 19.167548594676376 19.31844732446305
K 14.487828682673122 13.029424928333585 17.07588179797995
K 12.88481386001209 21.64137445411362 19.18066320185468
K 21.50120594161773 14.73987454268099 17.944309270545627
K 18.318301524434442 11.622489403593361 19.27485281065547
K 14.015147213367795 9.613912500978378 19.44296929312103
K 15.700081064813853 18.96911793156401 21.365690576487548
K 17.57130776196362 22.90118270981366 19.911338014500668
K 11.92535914215283 17.056097727737534 22.635614300890975
K 19.112859443704526 20.062258107929175 23.584557974326085
K 14.847032649727957 13.811380979327307 21.566226333655592
K 19.379429116208748 15.568719029280523 22.18864298208959
K 15.921624381506179 16.874010824408117 24.92945295438246
