37
Energy = -30.44823997 eV
K 21.32645963535259 20.8278659240116 12.041153057513792
K 16.152100826086745 20.669381701182186 11.274102062672606
K 18.398789808920135 24.736440076492638 12.386907326767671
K 14.653908358574437 15.784509040815534 11.798731292122886
K 18.820540394609566 17.285650001813266 13.122932676936585
K 18.54593211151706 12.736252014691718 13.103081565198382
K 21.785870340776192 24.010744382483562 15.369889090284783
K 9.85491820424303 11.652200359499995 16.549984022069953
K 11.631801191495114 19.875822103896024 12.51911156458041
K 22.46977587521049 19.07671166275024 16.387861961321065
K 13.931485033379268 11.630627760411558 14.19347718434853
K 18.36973248857762 21.384594906951627 15.217063312224255
K 22.919856831916015 15.416995213687722 13.486532098767581
K 14.173792587879705 23.42833998238585 14.577051370650098
K 14.68741191988631 18.969137030199263 15.227576894841041
K 22.440400784003547 11.27358508807588 15.743117136180135
K 16.098960430446933 15.01071940877766 15.922962605507642
K 11.38071247318151 15.79803691215582 15.305402156924316
K 17.665821862876527 25.411511226888173 16.876040482449106
K 13.216441062884474 8.707885307048917 18.000443429717116
K 17.719478678471372 10.881025716924606 17.236814892045654
K 20.29932368841554 14.802969169237247 16.885813624300148
K 13.575041821752123 13.126542013310784 18.52278544288326
K 18.10964575559377 18.268194792373023 18.072907695810276
K 9.810616282533081 15.369222929348368 19.526446108472513
K 15.357950833646704 21.943534099105804 18.77810126995163
K 13.845203734670148 17.614741354146847 19.472527179572523
K 24.569716260425924 14.79443696289196 17.933147274019017
K 20.195441219868982 21.799022623572455 19.47854628984885
K 10.873376554813632 10.896114466221379 21.051588875196497
K 17.622759269211084 14.590057251410414 20.631694334197647
K 21.34354777063512 12.071408830091805 20.233566490394082
K 10.949405684786715 20.242225019655493 17.209294271562317
K 21.715148225452523 17.168449188756927 20.613192617727886
K 15.878501484420648 10.525844133927853 21.36796874482994
K 17.271435601861445 18.776329434574738 22.309387456452413
K 13.489441158056328 14.593618156663664 22.723542388090728
