38
Energy = -29.84421058 eV
K 14.88528541989243 12.01877742442841 21.677643042768686
K 11.899774433323756 19.33727171866838 20.61007560354713
K 18.05111386869809 13.69248446309755 13.291713763481201
K 14.062163167829684 19.11995499966335 16.775691982564936
K 10.409142382216624 21.226367907865964 16.37333127324153
K 17.967612919802676 21.31396311442515 16.44271891879884
K 14.822397696053935 19.84037648120873 9.622544032116878
K 21.422432576559125 10.54632178747525 12.073615739364818
K 16.651849176751803 12.64353234899685 17.537766500074
K 17.799665443946775 16.725439310789483 17.01188078048692
K 20.77791798881872 18.184428889360117 14.286185691371259
K 10.999855778440182 13.427872889888334 12.841520064839335
K 14.225767511607945 22.27878621646322 13.695973153043152
K 13.699571005397619 11.019951537732378 9.781275562653978
K 18.59155632312738 21.5121728330912 11.72558913521396
K 17.428798072916884 9.023073695482907 11.268258650646176
K 20.878474007380927 18.555011135825886 19.083047066792876
K 11.855578577759236 18.33384918056286 12.934584720617497
K 16.666932379223674 19.402466310810656 20.57986239541272
K 19.214650265966377 10.559636696438504 20.012242404151888
K 12.087240634401557 12.169091915725526 17.85781014429894
K 16.409558914814475 18.249680108116994 13.218707214524017
K 10.370286097810373 16.43953210111572 17.046030620575277
K 22.25535102696098 14.750984294950833 12.151291900723553
K 14.61073072562772 15.274324637154 10.490228601846095
K 14.775606698379674 16.268794387799918 23.600704553530804
K 10.18199251384143 23.46717469921944 20.285505327794063
K 14.137089297404074 23.01802357140436 18.45026043143483
K 10.852788194709472 14.674437022535177 21.56152355093409
K 18.964866496742417 17.13540695093838 10.012409874229212
K 14.453924196628265 10.618753963230315 14.135261838348068
K 18.41703380234398 15.06959146539607 21.122932708468326
K 21.116702306619846 13.717681839711599 16.58542402738717
K 14.106973921732292 15.04112556819811 15.003302516881774
K 18.220223654219314 12.790570591217756 9.171372411412166
K 14.23604379264262 15.803377819479932 19.44143652719146
K 15.227933653974725 8.72782503412361 18.305600831576353
K 18.856203646848126 9.612973658822078 15.525765009071552
