38
Energy = -28.97323909 eV
K 19.909441510828056 13.049660770487822 10.680845606298554
K 13.613938169399024 19.06114863396986 10.31107481543982
K 16.10986403307083 12.155669417557846 12.83256655703926
K 14.473478666920359 14.158310327538496 9.228670351230761
K 17.368215735622194 16.655375114262963 11.780503968112425
K 10.059549599392854 15.743193219605303 10.043043774379754
K 19.815272349281525 9.863635873983041 14.075913542338606
K 10.399295933432835 19.228562486523145 13.521622201148755
K 11.5481279933854 11.537712988472572 11.992761609685633
K 17.838847419598462 21.185791606034897 12.246631399927574
K 21.843175268549178 17.053640608858075 12.41005067579491
K 23.532381016312794 12.81824839740964 13.717971982824254
K 19.758764719050262 14.166107196634684 14.854701894136129
K 14.765903325615383 19.298559725333053 14.529621682553879
K 13.010256732971147 15.6297471805802 12.962759346538881
K 13.539602099269953 23.010385440992017 13.148727021570112
K 14.293607147931278 8.710935644131407 14.924823943821627
K 9.057718948008233 14.433943072446974 14.538310312294659
K 19.263174434242423 18.714049040970274 15.63947981067801
K 15.808861876638368 18.707373799748765 18.63241324194914
K 12.932378623743809 12.69482134127243 16.05525238509414
K 9.799222235325397 9.929158068295832 16.149289713709738
K 16.832126960719854 22.579186125631217 16.713332120931966
K 11.789464814361557 17.029540179248578 17.106662640238618
K 12.453601128909051 21.51045940607972 17.55543702915634
K 22.969723984607384 16.358520170360844 16.85780544910625
K 16.061146326253986 15.475164480447145 15.990410397407299
K 21.648852929650303 11.909150684850657 18.026543875791777
K 15.535301243343204 21.909704072313545 21.281354433420503
K 17.15993541581386 11.357129380106112 17.326472015462663
K 10.075777834724612 13.571194413555608 19.15967558202113
K 19.224309876536662 15.634277436156538 19.13479398144714
K 13.352180501692734 10.022658137921058 19.297225811440274
K 19.7489861024904 20.141688946314012 19.817464842585068
K 14.56980309436271 14.442406291615251 20.042041051831596
K 12.385778018427986 18.385139794506852 21.21770540581372
K 18.260246254264537 12.111121368390009 21.4486672893547
K 16.97001989088666 17.53496137302813 22.52570445305888
