38
Energy = -31.14961354 eV
K 23.149555274709964 11.448895957722852 21.804726163548352
K 22.477634700966544 11.89986449616283 17.276189222526348
K 22.465559686030094 15.475045636104731 20.226538305071745
K 23.116350965746108 16.266550346645175 15.854377464252032
K 1.7064436443676163 18.821752863895163 19.165036944414766
K 19.17173810605458 11.031327255306186 19.95836257442556
K 20.388029822253028 13.593000840131076 13.625657104473513
K 19.524063603600545 14.084650366103984 23.380052092616822
K 2.852983350486489 -0.9023447172519675 17.687522268364223
K 0.39070428377954186 20.299062061242218 14.562540022645768
K 22.113377698915233 18.96420051324202 22.712080052950345
K 18.837032880619816 14.92066195459638 17.526554356094667
K 16.985181676390468 11.417706490513325 15.877824026548415
K 20.994840413681434 17.7244138410065 11.84687316699769
K 18.236651760163415 18.444809511323076 1.4241689727215516
K 20.850771594527526 19.911082798061674 18.087199917136015
K 22.897466950398936 22.89488990510541 20.637021848795445
K 15.487357946643398 13.27277832739327 20.26750133629786
K 15.005233496367591 15.507978624071107 0.38272491838609707
K 17.87395491751195 17.368128065596306 20.82146031424604
K 18.104624000615406 18.372374661399633 15.080697674839472
K 16.508465447268367 15.157238184394645 12.552018305892586
K 13.973611212839868 14.770728010813755 16.307265554124207
K 22.152654326181167 0.37760921610630127 16.251898724316185
K 14.769429847293413 18.860785093379178 17.991632201883572
K 20.31867037625936 22.097958710724015 12.623423378342297
K 18.453776945893 21.765730068043936 21.772582304124537
K 11.999385570991993 16.354377123552165 20.615050288701767
K 18.939485353152016 1.5198569703053628 19.16563262627578
K 17.370959841003696 22.71710594459383 15.849195541836522
K 16.282475143496576 20.316394540605852 11.696739380348895
K 14.355915503416258 19.89092627114737 22.531687888428593
K 12.972292068650853 17.8832423145852 13.28868021050076
K 12.895596449076994 21.76632278508208 15.323309411022455
K 14.738695716132078 23.238928527925022 19.415936916155694
K 10.019820399538851 17.69795102959 16.58815719224555
K 6.246693488147131 19.55626043171132 18.231068431447603
K 10.733204922871321 20.702342110368672 19.554704289511427
