38
Energy = -31.28883543 eV
K 12.216360592671554 15.426774699729297 9.328658173632904
K 17.137173970229608 13.900308917287784 9.280033955986218
K 20.78914271050931 17.111320748765824 9.269875412935086
K 16.303661727305318 18.577045362903505 10.13565306255788
K 9.010093512260488 12.313992120281398 10.557222130559774
K 13.43308066897655 11.321242661285599 11.314588545693656
K 21.58702318537523 12.989190319958594 11.072388356246053
K 12.355887089306247 19.010160471718812 12.610388710027646
K 14.842477903136007 15.204935201534811 12.579351544554859
K 15.744941620050335 22.520715120858632 12.896579410559012
K 20.045151180295516 20.36545722386469 12.723242737225842
K 19.139721841779675 15.948829934889188 12.783457890939927
K 10.282870131885293 14.865743548247593 13.578648973022162
K 17.748864990277646 11.440970103534786 13.267976760966471
K 23.281503322583113 16.8777126681993 13.233358714175354
K 10.249496281143669 10.354965281235456 14.69387911632929
K 16.464065905784363 18.836797627458974 14.570265520955214
K 14.724888959752994 8.333720060740262 14.993573723648742
K 13.820679504542987 12.352124426382439 15.558108115002902
K 17.841163829972956 22.03702743102476 17.19283372118542
K 21.410569693938054 13.550823105235034 15.842374269894323
K 17.365175358404876 14.841717671630509 16.28148739777595
K 13.16387768527098 16.63856230652219 16.323978649166488
K 17.5603885581014 10.748824218094324 17.891415493815053
K 9.351718951407657 18.207686086395665 16.628133584896972
K 20.519067836306064 18.035588464351335 16.800085146634164
K 10.387631102949703 13.776005056097063 18.15074041665892
K 13.23131627060621 21.125927232907504 17.055402449495922
K 13.113910774655922 10.017583351585856 19.152671011732167
K 15.034251328335278 21.45856137625115 21.220230585047197
K 14.804547679045722 14.13757617002911 19.470852932804497
K 16.310259674363255 18.21232273445173 18.818316839523984
K 19.370260399935663 14.82142177037604 20.16279012624382
K 12.099398629253916 17.886256941342424 20.41282951784961
K 16.592453053123744 11.866537308495111 22.49865252461408
K 19.331243731812922 19.607737615489597 21.101409290897607
K 12.328930339618829 13.548115397359973 22.57782336294303
K 15.955346855800153 16.678316114251686 22.919318674570842
