38
Energy = -31.45580644 eV
K 17.82545528843587 16.990674621399318 7.645015191560802
K 13.247217165345132 18.03638124319123 8.421408395009433
K 14.717202921591715 13.513595075420726 9.097435176324389
K 16.644918037468422 21.013012933554617 9.731625638761134
K 19.249503472677635 13.852653674008268 10.818092439662598
K 16.575382525429674 9.902994116641558 11.539865085728296
K 15.910818280499193 17.207760300767642 11.532231177204576
K 11.383963948270532 15.595352969119649 12.08044085000964
K 11.793912510156781 10.872453574134136 12.799758720731905
K 20.37558794088611 18.582272781616894 11.404606290525235
K 12.576870936302747 20.25954740881693 12.626862940783354
K 15.363780099594186 13.419974328035494 13.476176299654004
K 8.140223251567742 13.420843749727533 14.826465872300089
K 17.074192848404994 20.823983122111724 14.414189544475182
K 18.547777810466762 16.304046878916964 14.643011788073807
K 19.397099981807152 11.718862382689805 15.13860461597589
K 14.073738797388188 17.342822125608834 15.440839059778204
K 22.681955575148834 15.121250285665905 14.252302284148822
K 9.766372294064453 17.824321893798402 16.159561121046643
K 17.02846691490332 18.259961610231823 18.37782405667544
K 12.101112906735258 13.732042037850464 16.382945395329514
K 16.315797191711503 13.986691319353852 17.767315352617896
K 22.960372725156812 12.01711183207039 18.085717570270614
K 14.884600102528772 9.922505948304586 16.39366353137781
K 21.106478570189555 19.561298808360245 16.39053696816161
K 10.209320261255575 10.06773128376419 17.381143896600822
K 13.06253376708184 16.43474093752349 19.90966048435237
K 18.120414200342378 22.2789780914332 18.9800622703924
K 20.56605681842709 15.527049257161645 18.371705956421142
K 9.05539713727421 14.444319903906802 19.41827996953677
K 13.240057253965574 20.955568053433115 17.65518942878181
K 18.56589013659911 11.163360606363876 19.932102467035474
K 13.426382002289115 11.884997137203875 20.428831169793057
K 21.489151934127896 14.114391558408661 22.18272357409175
K 16.98627244376387 15.266914861111827 21.981920344513288
K 15.06576277918085 19.992102785190557 21.902077844343623
K 10.042720361448856 19.400293577499404 20.52156087630354
K 20.05062450690029 18.81052262498949 21.511632051036017
