38
Energy = -31.31161016 eV
K 18.666308465224752 20.159047232806696 6.812509626317438
K 17.45916874647619 17.093283014816066 10.214576992393319
K 17.206972026576338 21.81318806108966 10.661043028039765
K 21.595718277477204 19.806287147537763 10.226490674959152
K 13.31942995973345 14.494429539809298 12.588073026729353
K 17.535125167853774 12.544426622635292 11.735996189133493
K 14.338339728048192 19.076804809414085 13.339063461401077
K 21.304686368377798 15.586909387110262 12.488000189002712
K 19.12905608702018 19.45465347625757 13.723192404206346
K 20.854942300658024 23.435695301719417 13.3218455505007
K 17.323600199916548 15.635474044443182 14.466756373939198
K 16.383586002633606 22.85189018164322 15.225051134453091
K 15.183254957274654 11.790200946462548 16.037230573511607
K 10.695969463342221 12.995210578099629 16.71661432986225
K 23.533766339102336 19.772468281628072 14.495992677991785
K 10.221488635505224 17.466512298566116 15.160909550864865
K 19.83937084954159 12.257713933278604 15.968839603785712
K 13.75730658837761 16.003756814247307 16.80273481459998
K 21.25812073663777 16.74522404532422 16.844207268787766
K 17.050765077904927 19.043995939175996 17.27010941352774
K 20.649940444766546 21.67520519711183 17.86137180175838
K 12.932419660218525 20.550677151629458 17.658467745026726
K 17.573977791399948 14.72384532060093 18.847915639364636
K 23.594334959117734 18.70815882372301 20.14336197835789
K 21.655309072315696 14.414188145048998 20.732945627946137
K 10.611081258294048 16.740644929786665 19.81223436901448
K 16.647730607041183 22.05746691423877 20.502634010008205
K 18.264442523763087 11.092017888792496 20.895283112836868
K 19.315629277274855 18.2353590992235 20.84077374678986
K 13.716606623345978 12.985635451460649 20.50644302740237
K 14.907945698467 17.539434467118635 20.778110894800932
K 20.89179936019553 21.660612920401846 22.778139060205756
K 12.565916482732876 20.58654394904604 22.4440674814784
K 17.318316306655507 14.841407509987139 23.558852071657327
K 21.34635662743721 17.163826187059975 24.447318338829007
K 16.785194625938697 19.403975256944715 24.41884623927979
K 12.99864129494646 16.362845333820275 24.320318554307363
K 20.90763038622623 12.571232775760302 24.693928394748347
