38
Energy = -31.26467198 eV
K 13.25687319417696 21.4522588121824 -0.19930899280798178
K 17.09812615721233 0.005814635171302674 20.689428385875615
K 20.666623355984868 22.591498067933912 17.98382129469653
K 13.061858044519981 21.882157627671994 18.301558521823605
K 16.70692917085952 19.000757730100172 1.3368186676888671
K 1.2162409518043373 20.855500795027794 15.243540881943813
K 12.23433659380918 17.74351372209354 2.0427326925189075
K 20.238754394221036 19.379491904635167 21.500662018018726
K 16.659301353817206 0.8635939236156863 16.01227718461422
K 1.298408070013122 20.05995550441537 19.614625928616775
K 20.077583647452265 21.52534483055061 13.573956507741764
K 16.121111896303685 18.867259969558955 19.77528603964079
K 19.339400476470836 15.109302426232057 0.3010310678982439
K 12.62071094384208 22.26599715235653 13.945128808569892
K 20.548867797448324 18.293094941222783 16.948314473421366
K 14.908584425354631 15.35828472796343 22.374543892136057
K -0.0323588865357307 15.77058364988624 20.342676631885205
K 11.577223315500007 17.9210199707532 20.41084742362911
K 16.28274911375273 22.237913908581746 11.428270025498298
K 11.492520016698675 18.284361304979253 15.798322721844338
K 18.459612123182975 15.089985119531184 18.956638746810718
K 2.3493771607043423 16.805394795944615 16.61401690231066
K 16.186529053703055 19.478931632679387 15.38700499110932
K 13.68518069290584 18.36180110041063 11.711020831991254
K 18.30439750731479 18.176331774248514 11.18673607203789
K 14.313965327424551 15.470652585366967 17.658754275509622
K 22.03494295933101 13.726215790648922 16.148785400225865
K 22.212585341116906 17.184289828442697 13.08610027234595
K 16.164170211766255 11.50943301491952 20.414328252310863
K 20.836620227895477 11.649468025490922 20.211832406568725
K 11.652363841150214 13.17978925940309 20.071993203314744
K 12.710566595207109 14.34207253749568 13.59119801214629
K 18.46355408484635 11.026683359587347 16.283056008275747
K 15.763516637995215 14.664812932159874 10.09690850219614
K 17.36453629175889 15.269801753450187 14.528021707758306
K 13.874449173759757 11.085453393783911 16.599395276337713
K 20.00270311504279 13.245461640885384 11.949075341160858
K 15.878718795326806 11.083407987392132 12.588543197733632
