38
Energy = -30.90979272 eV
K 14.988122381983574 10.236493477394921 9.70210825122079
K 18.425293685900662 13.12244694882741 11.169986857792045
K 14.208631802374676 14.658234268325652 10.04450842916428
K 17.645643902125165 17.67935281022679 11.333408109490485
K 21.757846257519798 16.04525298392698 12.423908088341813
K 12.11295527136577 11.667508205541495 12.774939848717494
K 16.381341623076928 10.264709634425067 14.2365917413403
K 13.14700430641859 18.633651744453683 12.160690302138343
K 3.4103588997494354 18.46570292684072 13.520194260342263
K 21.206717703954293 20.54465757907502 12.968427361430141
K 19.604235318258908 13.286782888498092 15.683562202310986
K 15.497912365922687 14.772784695293973 14.26007753220242
K 11.036862019462035 15.542830249071187 14.774831048075438
K 16.72001257680339 21.522540486201333 13.523234624109495
K 12.429416530303595 0.920426235308037 13.542303652190988
K 1.1154009450476972 19.69613393609374 17.141953033999947
K 1.7685613484093805 15.207795573451165 16.4412552203357
K 13.127398949258744 12.036346488192537 17.120814747344756
K 17.241485329151914 10.571969785958983 18.793153238579194
K 14.612540422191 18.549868453852874 16.421903627349206
K 21.532981435123904 12.079282775400538 19.49408644913041
K 19.00095299894723 17.801445099970305 15.7690998681446
K 14.606988728229714 0.9608454866865902 17.511248622884267
K 11.858780976347976 15.92646238125564 19.21275296440496
K 19.253929650720863 0.32045415458013454 17.182381800456017
K 16.42304593948946 14.967088986850515 18.694034715699274
K 10.590248163455684 19.893565800207508 16.454780636490867
K 20.786467925549353 16.42556332196986 19.75565797349185
K 12.758483417278734 20.102300737295597 20.642654119063156
K 13.872001216475496 12.21796317129777 21.53370762340351
K 21.155619988810397 20.819897428894375 21.186549375412334
K 17.121715432417727 19.174380743105715 20.041180657303297
K 18.26354638880098 13.362996888911503 0.5520476705963893
K 14.63112154983569 16.42953490157931 0.9523644796517521
K 18.99098768680185 17.705832959306512 2.0028318334437274
K 17.176477255523846 1.4750418785344348 21.25588932350642
K 15.34579865443253 20.603241321574 2.4064251129404517
K 19.346696135718535 0.36344525553862594 3.2411552686350613
