38
Energy = -31.17999098 eV
K 17.432304679925576 4.125950815437089 15.565095060684715
K 15.204428336601643 1.1386212078976718 18.559065358466725
K 13.436386452483779 20.08892790397688 20.49686660787469
K 17.81688595569287 20.983597086601666 20.85244593246675
K 11.696791930832463 16.545414666627156 22.691271240653155
K 19.725283126122896 1.0629405143881656 17.52273410477826
K 16.203958160707092 16.825194320319405 22.614608101120503
K 10.403499143421278 17.042989474564905 18.24864208995454
K 20.499216878535854 18.236785631570676 0.3425567175996909
K 12.531901567109418 20.49200502959925 16.12307470159792
K 14.428520966433824 1.2857982499898253 14.114461503028236
K 22.25769175538156 20.87700507546802 19.73068536534477
K 18.61851175087786 0.3853069900976321 12.972413519566263
K 16.955696440360658 20.241998144507658 16.384022794042423
K 14.806282831155633 16.342073473604344 18.28805729689909
K 9.251136324438745 13.299234246960044 20.542036618895207
K 0.7069741786816117 15.825343910832032 2.6754591406306516
K 19.091140507902253 14.404838661457775 2.2871087836156963
K 13.707280045730922 12.894322184573195 21.1882158058762
K 12.692670444713755 16.503255682105404 14.114713005651685
K 15.163997274287885 20.036652994601685 12.252413263360562
K 11.775648299950355 12.884332169666655 16.832295715160203
K 19.29287502369648 17.073472138125997 18.737723807574444
K 18.17117657553695 12.953121440907488 20.90208046081383
K 21.25966778130077 20.104849051517245 15.233349099140279
K 22.352808089171322 14.42978771126718 21.300799136991245
K 17.31821245286053 16.037235726912083 14.490513013852208
K 16.253422918134433 12.112310546002105 17.05716808416415
K 2.222185127473536 18.18881984026245 22.00419509941579
K 19.326026110453075 18.98920437845503 11.145216199912035
K 14.257145883203698 12.404916176970533 12.969093035065601
K 15.579634912041818 15.94218275247746 10.383761644664812
K 0.8765357762497447 17.048187246999262 17.71972922496132
K 20.79096852508339 12.991341163443405 17.186552577825935
K 21.65690204813594 15.908051469348814 13.710815855579803
K 18.887659600732633 11.88568324418937 13.24263144846349
K 19.774740789617745 14.79085905715671 9.674449529052508
K 16.715350477856045 11.67580232466662 9.238504777722337
