38
Energy = -30.72562375 eV
K 2.125749604717226 13.717622316773554 19.95762425837413
K 20.633460421853197 16.27848914106122 19.328583323229957
K 2.194305003511392 16.792693467854743 16.43714638550216
K 1.4726389053624716 9.48495351520653 18.77779673246863
K 0.3698305602796992 12.772106445408404 15.789949562468623
K 0.9267991018337175 20.29721581070046 19.24891471658815
K 1.2977655469468836 19.933840049055412 13.351979757580528
K 16.470110072632448 17.92224838871441 19.348141874427593
K 19.587151045906438 11.894200988076712 19.689814550432413
K 17.895491040828812 14.604533309551245 15.91376143289837
K 21.42628368669219 1.259665856804848 16.007391995743884
K 21.24047867690438 15.960040661934997 12.777575274565606
K 19.72990722821174 19.70516500420903 0.6798857882302781
K 19.762951765963262 8.963673058600305 16.042541164790297
K 16.460545016817473 18.78162873597769 3.6669289091578467
K 19.146129189981327 11.86403077937887 12.442208797743787
K 18.441384411325725 15.318293105038725 1.1140549874667565
K 19.042578594087875 20.049875278993078 11.523226613243967
K 19.69504981093401 18.973119341044843 15.984708933156174
K 18.374501555440823 0.2655319290582024 19.033335560118086
K 11.896913491621877 19.743636300786186 2.511375532686882
K 16.97460462875811 15.91017442504155 11.316579405318437
K 16.457873371514765 8.227407560900838 12.985865249113
K 17.160880475338686 0.9127709223208035 14.60223646480477
K 13.95151001226923 16.11312704817516 1.2524336832135443
K 15.738390337451976 10.731824282287892 16.774925999067694
K 15.41912676707896 13.631111075593294 20.00629108691547
K 15.351450792815426 18.624280649731027 14.780147573369876
K 15.298011417711216 21.20568415968807 0.18619956380149677
K 14.726319948617725 19.802967821521143 10.317249224048552
K 14.622829634536023 12.421875923399652 12.798654539653029
K 13.164564997852796 14.989940441215667 16.460470750443413
K 13.888460122610958 21.88066212855434 17.833881977993702
K 12.03759992324069 18.24495873827737 19.760974519151702
K 12.293603335147735 16.27726377365705 12.01757112077019
K 12.81609035027171 0.5745126695080943 13.44781099094539
K 10.816450332391447 19.01059121953458 15.389402130022237
K 10.237206646524772 20.066339413930823 10.777722146201487
