38
Energy = -31.36320908 eV
K 15.548133814121087 15.723458700066 8.508587917109613
K 14.091163996973407 20.282403737290522 8.84559615715685
K 11.061946701929894 16.684243707638913 9.2364829747528
K 18.239937899039575 19.213772546554992 10.853710194262002
K 17.410960374813886 10.44798782210334 11.038760856851608
K 13.233508122600675 12.92676658305619 11.545823237703774
K 14.103312112777402 17.5860047947377 12.178388604970383
K 10.618287062756025 20.27479566556197 12.201000491196963
K 17.768956317724427 14.758668403728695 12.30140509140034
K 15.334713761163423 21.983463556224805 13.139557204160946
K 13.91220121890115 8.392933392933786 13.243313069992679
K 9.990301653440241 15.84063801071709 13.81011117939629
K 21.36797390070711 16.923232102915893 14.41713681985176
K 20.733080996707308 11.691792042715303 14.406104380281908
K 20.201354335173875 21.475738533388473 15.292940527156546
K 16.114297245069892 11.448166773472968 15.132351281752294
K 18.28577213658493 7.682183152957259 14.924617101695326
K 17.193051232987184 18.439732455995376 15.135740711596574
K 13.973246285254485 15.06607722152832 15.513808152372716
K 19.783411939456112 18.113946819089815 18.94342069853912
K 8.671194945847144 19.09923353620421 16.703309948914235
K 11.43657570357719 11.505133074209338 15.886075799882391
K 14.591930408207185 8.416805989444372 17.977055135688026
K 12.822675932515232 19.579961892156092 16.08786938148813
K 20.649645272385655 22.043245036490763 20.00225248056822
K 22.449597971799093 14.363111128942336 18.313207128688028
K 15.048978873957934 12.626395763563398 19.463673859336662
K 16.386368270109443 21.645408953945022 18.19403165268456
K 23.709708307197566 19.22702245312233 17.661250963687085
K 15.424496727485012 17.155636620792187 18.992823176592076
K 18.374590982783673 14.534470868369201 16.912205892687705
K 10.954056313017606 15.509713052320143 18.656683502939476
K 19.14981555035203 10.501000667737342 18.631499634477606
K 16.992645684570277 19.42294005433866 22.393304434265104
K 11.216658268717387 11.058973753176561 20.35531518131603
K 12.43148749522228 19.795783527634413 20.61337011417628
K 13.935142027123122 15.67953334958001 22.723542391095066
K 18.54866145147619 14.639465549822521 21.523513963840543
