38
Energy = -31.18569594 eV
K 14.721086184458402 23.343502738972187 19.96698469415117
K 19.99018773916113 19.76041071073157 12.740234768963202
K 14.191536587609285 19.361315012548946 22.390855288987535
K 14.15167879500134 13.312533699440134 22.839600127681702
K 18.570891873480345 11.96282887865834 21.093016815550197
K 16.485258958035317 22.805746690161502 11.7745503856563
K 11.037387517359068 11.332238268264659 20.146652882937474
K 18.435377055819703 20.570084898628377 20.397287141075306
K 11.43777382724954 13.125986760446787 15.789510060365133
K 12.486653333128475 20.15205699712528 11.33915979127301
K 14.874497932313782 12.307189118263013 18.755306188078865
K 21.80307292910041 20.74481000444474 16.905211208092794
K 11.342228653100495 18.113960365890463 15.395878120653725
K 17.95028685103142 15.662074532014039 13.152651362452978
K 10.955674858785637 20.758117224304932 19.370537602370593
K 13.38818116421186 15.380176625906213 12.122009538153902
K 17.642356743104443 22.549270354313364 16.265769168803136
K 13.012798508889036 22.51896584075776 15.492862415690267
K 14.755341898200417 19.53162159636247 18.185443058845323
K 15.893902750201974 11.763376915375515 14.25527069871881
K 12.015465828488306 15.975539269479743 19.801653683483966
K 16.773918616659476 16.15906489272435 20.588616603547255
K 16.933594681715977 13.05614663703409 10.004889601886726
K 22.03105569134268 11.576708824598025 17.840621960545807
K 18.013498109142272 9.351243267200934 17.334570491689092
K 13.18846923383422 8.93425372322181 16.66634163477873
K 20.292992216557415 24.332066315000834 13.13437741385137
K 20.92146082658456 15.619473486004239 10.258223376614088
K 18.597151078275225 18.138380285814502 16.767202064636717
K 14.581617613305227 8.725111880266965 21.011033119720878
K 16.74773978472698 17.956349076613677 9.739292692477283
K 15.547114399352424 19.205995229189185 13.881794453718095
K 22.02036196007243 16.07227218495603 14.735701396118676
K 14.83209446119947 15.6848331514695 16.272913047194187
K 20.414262682354995 11.97016215897903 13.342234876561339
K 12.53139046398387 10.729791315497648 12.124587612145428
K 21.233066722566786 16.187245365757633 19.516884221078794
K 18.658191354963982 13.728715588948623 17.059890316817462
