39
Energy = -32.0871052 eV
K 19.03193054033642 14.005599306838231 0.9761489770216297
K 15.4273934426203 13.972951777874032 21.771029278149538
K 12.692023825123568 15.100061315382108 17.831107044922344
K 19.204362550279317 16.950677640165146 5.008852367356927
K 16.205736862816277 17.306506925967824 1.1349427497928848
K 19.63378969569622 12.48168430804755 20.732058977452255
K 13.456073260100922 17.953815140405034 21.47158299567784
K 17.05753979227194 14.225260345151906 17.32557540570781
K 22.79720593999898 15.086151355405145 22.793777416797592
K 21.434334436549886 12.87780128962698 16.618752641779082
K 24.009832930590335 11.69852473668435 20.30518147226813
K 10.562184986973808 16.977856328689434 14.334703473775523
K 20.665573698683634 18.41245321277653 0.7907532799941156
K 18.56455007251142 16.960837798521435 21.129012572417192
K 15.704417619818722 18.469441747041298 17.684544769689058
K 14.866729567916734 16.280022265121325 13.62528729444903
K 10.747515988418844 19.19748397121071 18.075509701632953
K 18.090254148904698 21.05748117451254 2.967526117507264
K 16.67681151132195 20.90951534918754 22.633951689852516
K 19.216694419887546 15.19595240653013 13.123454687530984
K 18.05671866919944 18.06974667719605 9.563305059756201
K 20.356674653918486 17.503188501959478 16.785247629222113
K 0.24900810329449902 15.79046597636927 18.497014227608545
K 21.821267907535777 15.827708068147706 9.426109252204
K 13.970100962953154 22.19752825593943 19.181453101140047
K 13.218363612684664 20.681739677126274 14.669499328568214
K 22.552766545870988 19.278169515810163 20.76995096212328
K 17.696214099935716 19.85103135569026 13.842314824148511
K 20.652369604685248 22.736572381305155 23.290558673181042
K 19.06971193081573 21.463609686221698 18.825370018601646
K 21.7648803467856 19.224699349720122 12.391155202582182
K 23.7057397527626 15.774589064382447 13.951094630459652
K 17.198512191082724 0.9490532389979524 20.700292246854556
K 16.579266413376544 23.722006278306 15.868205932200464
K 24.050761064352095 19.912014106950455 16.505318324807483
K 21.047990391054263 22.787337981398522 15.050384373437645
K 22.940803993359975 23.683234879131827 19.23984069438679
K 21.08259898522183 2.835385902711902 21.77057122741037
K 19.92196504546333 2.244510848133012 17.406932694997014
