39
Energy = -31.74674535 eV
K 19.132576322372014 1.347707465512519 20.446147125682614
K 12.426358653064788 22.473850630014923 0.7797700457840209
K 14.689562887261253 0.754945658073508 19.53616701728026
K 0.02700507940835234 0.17639955922228026 17.555664109317135
K 16.83576676563414 20.972923752633466 0.34341811120349885
K 18.101629408266607 22.455462126566545 16.348872006905108
K 2.884270905236106 20.62228893564087 14.623736905393192
K 13.739551378153285 21.535641075609345 15.427290712811034
K 11.269635350742272 20.23282288353633 19.68880908337006
K 20.007093988552256 19.521751952458843 19.567127503862526
K 21.40103611931904 22.328701598876062 13.131915383531867
K 13.466083015029488 18.03530078029848 0.7000941730116462
K 15.504349272610165 18.794453295272127 18.775676374922384
K 17.020302039027765 21.76718073294492 11.796226801719312
K 2.1008804780822428 18.78411775871308 18.79891805836235
K 17.654204039170697 16.57037933853321 22.218551560364173
K 13.87980070920725 18.536409408623225 12.027595702281626
K 17.488143609036474 18.35280870779831 14.684188671813754
K 11.064431307396097 18.00604905429266 15.790326517729259
K 22.11954242327816 15.825168894103772 21.3754764715246
K 21.747508207772814 18.437372720756315 15.460949586302366
K 10.939529109078643 15.199450230935456 12.094373084547419
K 18.80803918322252 15.375476986693819 17.887651731717614
K 12.659724442770635 15.471368901050402 19.522240598114635
K 14.510444842181597 15.026343575776805 15.331380000546947
K 19.203729106352363 12.375927284749594 21.762443664834574
K 20.273283392665135 18.416091120806946 11.065868602675208
K 14.677029955271136 13.48693875109016 0.40073320502066484
K 1.1371304198858403 14.659074595661385 17.25845681695222
K 10.027667099067681 13.58077116591711 16.338062338774847
K 16.917547695457237 15.253171027543578 11.292479237601734
K 20.665026072123055 14.449310070537653 13.658995228155252
K 15.86700196303387 12.104960438782525 18.789574357326728
K 13.137453236023031 10.519573657952924 15.699222962509769
K 1.1083964737925116 11.66284691597964 20.644980080497614
K 13.866500140595802 12.018704085114019 11.432413584742534
K 9.602341455096006 10.919460969892953 12.76876668193672
K 20.630058138925932 11.285899815414334 17.31448855228402
K 17.306406613559485 11.62998775546488 14.307670948580244
