39
Energy = -27.47795163 eV
K 12.715933951573806 13.927673763808876 8.426035405811856
K 16.886589942686346 16.55485959583052 8.392843059638988
K 20.57391970280039 14.164608907514607 10.064539687138357
K 16.12041236286157 12.405739973274047 10.531548919928179
K 9.096373077026627 16.837288868050617 12.075557843460423
K 13.524776959545816 17.012074869069192 11.347151119708245
K 20.740377806088212 18.878341351161247 10.848778737602808
K 16.49276148539567 20.448959203862174 11.625036907065608
K 11.187566334532516 12.723496198295646 12.522625204362946
K 17.882503188496543 16.240279378475147 12.526424289409805
K 11.86525069075098 20.573620684058536 13.756876382845295
K 19.944444904967284 22.963943162631534 13.461095469729475
K 19.005953596733484 11.948539099128991 13.996575976219303
K 14.87758624508205 9.687361811512305 14.417369427983909
K 14.83000860375174 14.011114829538625 14.413849573355007
K 21.9060167636674 15.547401545378625 14.39642398755211
K 7.808334640265721 14.275903503376586 15.716907662127078
K 15.265638743490086 18.432859735562847 15.22837822515295
K 19.670563351409044 19.333334341158857 15.28009208524115
K 11.453525722572241 16.407471895158057 15.409014099243329
K 18.645069948411717 8.591745712173369 17.202412027209377
K 20.141216863801922 22.457133197335136 18.156592548433164
K 12.311848747699576 20.01589174941416 18.316078032386493
K 8.223256498231486 18.92069122133229 16.33278953178846
K 15.974461229178191 22.505266482465455 15.980596329576429
K 18.26655822154451 15.686331268069406 16.878544381829645
K 20.91099415211278 12.538805779308358 18.05326798508256
K 11.746732275319028 12.159149890427322 17.20768949822932
K 16.378741411324107 12.157113916824855 17.928645918798356
K 14.49539407056523 8.761114646970412 19.16955570315949
K 21.21879957123436 17.60560921119371 19.26798801028529
K 14.207228650513677 15.860684530071012 18.537528320878636
K 9.980993151466683 15.936592532167223 19.574705134092934
K 16.89801715063819 19.485194531100554 19.398865716664545
K 18.1248845529389 10.633811508340676 21.507947050730326
K 17.44329914269877 15.291743153704143 21.313355666334846
K 21.33116850003108 13.857402737279859 22.1621637782745
K 13.575277685765593 12.806353702981674 21.50010529400675
K 13.488965175244134 17.565936584409727 22.28549008107986
