39
Energy = -31.85496709 eV
K 0.004492782809498438 11.197370807140958 13.737240871472661
K 21.945431529086953 12.009961179274288 17.992569213465494
K 0.7888283370456834 15.251795164473563 15.207705699440998
K 0.7585920872823775 15.917516651765938 19.65666421287115
K 1.076475031093106 19.524516707882324 16.84052031784398
K 2.3735127933641826 19.917672720530152 21.220544736010925
K 0.42122741931193725 0.28480855749157347 19.24184131202539
K 21.07623907428789 14.81415177623469 11.707151677262338
K 18.896796621080856 11.927045823302967 14.51384567314034
K 21.0904089100506 18.867325200927187 13.656878810889506
K 19.985801184639836 14.522254007103825 21.41298742359469
K 19.93207698044467 15.951650512985694 16.929761981677835
K 22.18562490655754 22.40902201240172 0.015852627232621076
K 20.845240499031558 22.78375508459406 15.935330558324173
K 22.22511496441931 17.904394425155626 0.3462733638552061
K 20.702717812184765 19.58521313635312 19.5807029697879
K 17.044787031021414 12.702943110405872 18.505233264444016
K 18.457531619075148 18.47490691809046 10.120570596710778
K 17.0764929139746 15.955028000257174 13.45783022458711
K 19.15583544658583 0.7061025430657099 20.077366919833874
K 17.341249874446678 19.870005713785368 16.248677205082892
K 14.32128659844205 12.73319519925692 14.98502668501669
K 18.049277625111753 22.300640860297662 12.361331640820156
K 16.462660875951492 17.133096477301596 20.033478595502668
K 18.172153144760134 20.52897271639366 0.013574815570297693
K 13.813460886343869 0.7017069743102636 12.676009386093083
K 13.865139663238242 17.002005648233276 16.34949837890961
K 18.114154194656482 16.480245372766205 1.7948981524750462
K 16.466533423054663 1.093825877621688 16.342030689635596
K 14.339271947508044 19.42143826611581 12.520076025391223
K 15.383931535449282 13.744901583674162 22.82863296888734
K 12.689681721855296 13.832186810398412 19.20351804184382
K 15.261900754834343 21.588715198815223 20.021255545962344
K 12.742465803140151 21.59427494119479 16.318037818337164
K 14.173805889874519 18.457784819659736 0.54081736989282
K 11.764245203663814 18.653675678150588 19.975973676836826
K 9.605777410304174 18.434532618849317 15.94877794105017
K 8.349965689160388 15.701270203121995 19.232391706543055
K 11.029034834488021 15.24841737983058 23.068374464886787
