39
Energy = -32.08211058 eV
K 15.368413568310322 15.675975119157293 8.265592137928223
K 11.048001929006745 16.081405222885596 10.077618926619966
K 13.288703098777232 11.827868915042867 9.747911042625873
K 14.233655324378505 19.32234577950619 11.00117289615188
K 18.07257118753511 12.39535642498866 10.725353336267132
K 18.65875288653597 17.10321388392632 11.37035558559158
K 9.951216158851295 20.424301463263113 12.320660819069131
K 14.576161186706871 14.755080755066606 12.256561218057687
K 18.10869719234009 21.246736978615225 13.391448677103376
K 22.183459093129656 14.58732781292755 13.53888654664558
K 13.368518218610609 21.418882327909554 15.107094564180812
K 10.996556300124244 12.485059147959051 13.814688413564644
K 18.106662420797928 13.963804562623926 14.715826494176051
K 15.268178292370921 10.406761121501312 13.99189177656814
K 15.77909435111196 17.81576620181066 14.70323624679359
K 11.291754911780435 17.008180687594713 14.398061023993538
K 19.97137022530514 17.713265574883497 15.769648650222521
K 19.907096310399165 10.124210657460736 14.885422197818608
K 22.545094300765474 19.50144291868129 13.103953155484257
K 14.037876645253462 13.996970134317452 16.42320671800369
K 21.380458557165703 21.502903738825797 17.19124217769891
K 24.024848584661825 17.511341343403206 16.960931032963153
K 17.01364767079574 20.510875379745116 17.675160900604247
K 10.162584247260599 14.744837338762952 18.18608785719724
K 13.392162647757862 17.892036986842907 18.21709610723617
K 9.649652486466588 19.866635621502667 17.41284140039739
K 12.76485186849236 10.296310524798542 17.971125767863438
K 16.42105558613246 7.547694147897139 17.31850676378384
K 17.25875303883258 15.955224338089016 18.528549627597563
K 21.266124632816464 13.883458807353659 18.049198243706414
K 17.358107073481666 11.564329601100486 18.21602459005091
K 13.419797781598275 21.780612015868368 20.08593270709179
K 20.54998482297223 18.037564617039298 20.2610513579549
K 11.037028213180289 18.00112616186369 21.58777195071696
K 13.902486488527318 13.978364875537618 20.88615832863353
K 18.326193547812675 22.095615417497388 21.151090101418568
K 15.943563495789235 18.20243937081641 21.940717175732708
K 15.693387314241827 9.702060982833009 21.49949493054931
K 18.420840855544906 13.81997555572374 21.999791067558256
