39
Energy = -32.34070969 eV
K 15.076194128857615 17.24131720025947 8.258381102201087
K 11.26179068311866 15.745011667785876 10.508966640888241
K 15.360702073392906 13.471006230667866 11.001709267074531
K 11.99818037270104 20.356990537620774 10.225653116404043
K 18.959677888264054 16.876522591745633 10.965410846872683
K 16.739525524360506 21.19727150508387 10.493066320805537
K 14.546506683361642 17.92464535621626 12.377045238729519
K 19.98863790885963 12.67580329843889 13.190207771066735
K 23.531516406080208 15.86355082923019 12.360725500614606
K 12.360464586944833 13.98098106659712 14.612381313405548
K 21.720079068389445 20.127042531157663 12.739881009945943
K 16.062232193234973 10.96586820763865 15.31656157037012
K 10.285559296734645 18.31344356888192 14.357412882564333
K 16.812041330715726 15.324123529897001 14.579970342088956
K 13.486664165660832 22.02314647297704 14.373816714277151
K 17.7387162913965 20.380095571419247 14.659880019173704
K 20.19427543511695 9.552463771329423 16.82492700601449
K 20.73823012164308 16.84350424188128 15.307714072996829
K 23.408335721845962 13.466819688307154 16.496759050487668
K 13.970032538330894 18.2504500419963 16.507451253420424
K 16.021618211290647 21.89814260405356 18.617548918011188
K 24.630054861763465 18.105170685203895 16.2158765728316
K 19.135031852827304 13.504416340567731 17.724162565945516
K 11.389893238614494 20.787266728690504 18.71933354101161
K 17.970386645901613 17.80508083434452 18.36828554462307
K 21.294232980938222 11.941818230334958 20.89115002974426
K 21.99099139096876 16.458528564217275 19.81143441277641
K 21.209077847458897 20.61902773122812 17.93575218818309
K 14.957105101051393 14.231334337058275 18.379328661275117
K 10.728155498965096 15.892611102967365 18.713153300210394
K 14.545728230921238 17.935417675603528 20.754042117180646
K 12.059039532027201 11.252867034704163 18.70468860638697
K 18.599340492665036 19.75887085484597 22.21920320723385
K 14.177853440164622 21.551198990846228 22.834305203524764
K 16.78546984106567 10.57672573426643 20.172265740998313
K 17.955662294971727 14.94279999331841 21.956032390544056
K 10.941395066139243 17.933968059424846 22.82323821184736
K 13.37778599287462 13.887907473380716 22.384041666154577
K 15.264984253558582 17.609958308990368 24.891405275293714
