39
Energy = -32.20202834 eV
K 19.928546289257902 14.358154189045221 9.202655149076772
K 18.301476983906905 18.818303193170287 9.197512146339365
K 15.314190333445325 15.156055753224283 8.481722894453753
K 21.760404126143676 17.075391798161785 12.429732164897642
K 15.707688854084012 23.07264825199512 11.790099958862383
K 16.599481742454415 11.562775395150126 11.074463585408047
K 12.06744818327355 11.6629097629888 9.81602680699142
K 10.404732863934555 17.637920428693903 14.346395355124667
K 14.049706344738036 18.993975114600886 11.276127243736116
K 17.381425740096724 16.010381632077674 12.419823103153208
K 20.626788036123482 12.747659690256942 13.954731031496094
K 18.531362695926603 20.15730654977271 13.502056029347424
K 9.341624520284885 13.086153326972763 13.865757140009068
K 13.229792696582534 14.809509035574496 12.477046227302761
K 12.250582401660207 21.847691843128562 14.59940919610551
K 13.050340827468228 10.322595859660586 14.124624363860223
K 19.264733688869203 16.559121985029538 16.387440345549237
K 16.473941302412026 13.103746461776433 15.359791323108194
K 17.60588411983355 8.958251781502797 14.82925656497632
K 23.556402043958027 17.737184623976564 16.637107141791848
K 9.25264432870424 20.13041033444947 17.77720885933712
K 14.573943004553419 10.38108944804336 18.45955702247293
K 20.475593003879318 20.92108688346767 17.425408644970087
K 16.431366748489452 22.888362523571725 16.320484083052655
K 8.779251499317574 15.505158902487377 18.256675985978394
K 22.514522065939264 13.802420855034766 18.315111311785824
K 14.887102269967855 18.210629328095354 15.760324236697885
K 10.00131001625224 10.95161386316695 17.973299650729686
K 12.680882147035625 14.392372780975618 16.806023718515156
K 16.54252361518605 14.899494616547083 19.25871253798054
K 19.110831455358497 11.15727047984803 18.543813322233785
K 13.020951900480945 22.130121769930366 19.129382721920468
K 20.587650867343292 17.399096908219914 20.562083785377126
K 12.635879851358798 17.74641374953678 19.850883664915468
K 16.788679084998904 19.642405242613645 19.67374111743142
K 16.316563174694036 11.76804792943298 22.49232543477038
K 12.32324372324958 13.4968670393273 21.188717934442916
K 16.286821069948033 16.48667750341408 23.099272115957756
K 20.37527733612035 13.444314122409745 22.366787037171353
