39
Energy = -32.06057738 eV
K 15.086113615312607 14.262973446324393 8.066053780605905
K 18.938424287339288 16.382521213018354 10.100925805057745
K 22.76333222109911 13.740112183465603 11.718098557026906
K 18.614050423425656 11.697113548610833 10.601908932778992
K 14.677207182964192 18.246565109012725 10.330220930406064
K 18.826538789359073 20.964912291137544 11.720032846526488
K 13.629156538768683 10.525410635937988 11.165109631102986
K 11.35711524902037 14.948828161281323 10.951830208089971
K 21.783079972119662 18.120681384474196 14.006770598413757
K 15.508859877971247 14.182455231125973 12.202080477014208
K 10.322848294337753 19.308638841690733 12.595376383047276
K 19.482769023379035 14.105796698266545 14.15822476775958
K 17.354957942941198 17.837366894777396 13.95086813244281
K 21.41877926525351 10.442749023257647 14.546003928269533
K 9.102278820266935 15.920097378716955 15.667917754146432
K 14.642810452830611 21.318310238337254 14.411254471215086
K 23.101570672463332 14.492127211860764 16.741001112401868
K 13.133223881190528 16.988718405422578 14.454194060369508
K 16.619635846937225 10.32183842772086 14.733355183294076
K 12.574253042351303 8.476695839458651 15.478290115619656
K 11.255558425132461 19.83107321559485 17.208289186979894
K 16.0246949137023 14.324730969475471 16.50090438252493
K 12.134878837647994 12.629302909513452 14.831437192591856
K 19.062837741986307 21.145869230065404 16.467824242333677
K 12.584205653620632 15.45877618972969 18.477963990313448
K 15.55294889460392 18.55527332211 17.852758368969663
K 19.47050505355143 16.730887952991413 17.642998933702795
K 22.804291766371662 19.078442838939793 18.52977087501594
K 14.769646779427031 22.45864538351451 19.121564588914154
K 14.325601457724398 11.156739813407178 18.88761056569004
K 9.384264467502028 17.141792143422506 20.51029001299649
K 19.350679805377816 12.170415890992349 18.349149395388356
K 10.692531786736012 21.528641391915293 21.132314413583256
K 9.84095780895553 12.200608460655399 18.723750341391792
K 13.749264119951789 18.404352348850967 21.73131712551264
K 16.66835389126566 14.99207837947211 20.889344136773904
K 12.364068861710486 13.831512629552648 22.331376644551263
K 18.50637474065049 19.419433718408683 20.91600368688968
K 21.368244469374787 15.504425922115239 21.142729114910914
