40
Energy = -31.96198436 eV
K 0.8171292987053705 14.617213931131738 12.520348891137655
K 2.0023088615064406 12.480383285786399 15.953468656168424
K 19.48854966857233 15.403145524506847 11.48351877711817
K 18.87299701753967 19.51368669322083 10.013844231234273
K 22.189414681012895 18.75055666145897 12.913617728449154
K 0.7201524522577886 16.59120906087168 16.536066391691673
K 20.49432107308787 13.155314676435317 15.420445491563271
K 16.518330370640196 13.72361408139971 14.045239122195518
K 1.9384194992976005 14.342772126306443 20.1081636853464
K 15.91255865673042 17.8056521004132 12.735982092115256
K 18.942617301654305 21.329553091904177 14.073076292012278
K 21.95708670183186 11.110322172996785 19.075133799747505
K 19.048354266784433 17.21647959462871 15.816734843984129
K 17.703734912844805 11.68921616166546 18.715519653202144
K 22.181850119317865 20.70907191102265 16.876759660253942
K 13.89560001049244 11.918881943044141 16.67423111960457
K 13.059831912443153 16.088560524389408 15.248901946939021
K 15.5016261999802 21.848027255973474 11.359257621453754
K 0.4485835594553416 18.32190715301274 20.695679779331005
K 20.185856349541407 15.19297136626851 19.588678270089027
K 15.584120607875237 15.68351143139735 18.740358624011957
K 10.99344147422861 14.230213951236035 18.702616086870684
K 15.577697364641567 1.3160876357655804 15.106810471501008
K 9.183481449666326 17.328758659057872 16.537677582263477
K 18.84173084244755 19.321858035984672 19.780703360752195
K 21.828267842011993 22.514948678951427 20.707041324556577
K 15.747495287558435 19.815543893097058 16.79504641835825
K 12.339362202141025 20.37761776432602 14.128753178903692
K 13.814894590640197 11.228258660658888 21.003887882978628
K 18.734523028270477 0.664267874988454 17.957630041383368
K 17.036041270683913 14.029252032459768 22.525847941421485
K 19.624741706354826 17.275714247709814 0.8349988591940369
K 12.524664475297074 0.9679419909370827 17.96777532994094
K 22.346444301063528 20.557171815756814 1.8285077198256305
K 12.405567484563415 18.84841765595074 19.407365513599014
K 15.481911527403382 18.448991712547453 22.714307433127924
K 18.26628853486358 21.599292941346757 0.8465381208332875
K 9.297039403129878 21.305479400799392 17.03682878720481
K 15.348059136616412 22.354850475190243 20.649647984831223
K 12.824587901739669 15.349828064505083 22.331837672636134
