40
Energy = -32.81352787 eV
K 15.51111214569199 13.053225377427363 8.222392875578239
K 17.558057246384884 17.176350431351622 8.752174680988414
K 13.49355502169849 16.53169121342057 10.527599333994392
K 19.469041635659018 20.889594654278735 10.847241470450356
K 17.63375925663616 13.907165609312138 11.870053792078126
K 14.870948395918646 20.864986291054347 10.470612901789213
K 13.265233116067549 12.275989386311585 12.025890167715943
K 21.09651468212902 16.482977256857424 11.980606241883905
K 16.945707428929538 22.353572953738073 14.694579495629592
K 10.463828729697553 19.854675317163867 11.411041729546819
K 13.401346486171938 19.734148358957224 14.60223831647986
K 17.247158682133506 18.199794064928458 13.09293150190176
K 14.782892571560108 15.462866979411967 14.70287394677534
K 17.401562280129177 9.622065196887105 11.596285183945337
K 10.505115878371216 16.088250156447007 13.915446201624164
K 20.747526847530864 19.866667384851493 15.165884777517107
K 16.29663705540845 11.442794554367424 15.343221615630975
K 20.828627893144102 11.751219200339102 14.575819288838535
K 12.057987594080227 12.713845960142105 16.427667087024275
K 23.577361956644676 16.414632437389038 15.697590346659684
K 9.571946547273633 19.781359025024468 16.786048443328404
K 18.58701816799414 7.902498228974243 15.882764454984356
K 8.766473552808302 15.272212753976714 18.29117092769115
K 19.32045839675962 22.649823658255155 18.423916370914693
K 9.53519146456918 10.622042583191224 19.064100900843872
K 19.24739907903066 15.37634898216226 16.139303307197117
K 12.68962212207275 17.10007840914725 17.97124566187132
K 17.025602460944913 18.646106730922085 17.67722934306773
K 21.78054133149019 18.680507083198908 19.27308926332365
K 14.396574936609841 9.990405741963261 19.119542465816462
K 15.789118439161847 14.270890367917172 18.66422001593384
K 22.451153092065354 13.901742469749818 18.884339860833602
K 13.929393948824263 21.2166528717237 19.18385424628144
K 18.923205421842592 11.225981238357939 18.941108251504836
K 12.000876074848346 13.822013628996757 20.99995061906973
K 10.38377526836721 18.576450338028856 21.210379014603834
K 18.109169135685477 20.16301390388116 21.674569831380094
K 19.05550914916304 15.763692142911712 21.043224903796087
K 14.766092613028153 17.29442527745017 21.831048385843907
K 16.130656123117422 12.670994009174217 22.630495005306233
