40
Energy = -32.86219535 eV
K 18.023851656897612 14.854014832845884 9.66116820834467
K 16.568139006420942 19.389757953148482 10.46299478738642
K 15.342525318865066 11.492271624954071 9.20528703612145
K 13.227018862705949 15.768962337254194 9.324975529091919
K 19.372973782577255 10.066761235414658 10.378053367453148
K 19.53768680475255 16.912550119496725 13.065905296245548
K 16.73102465350368 19.73794167477328 14.78720624001676
K 17.298170156337726 12.480361176654165 13.606588491576028
K 21.749655559915528 13.19085300968728 12.38517025126039
K 12.679849728274437 11.818883348784393 12.61596008633948
K 10.483921202648617 15.478147562607766 14.064319031713088
K 20.334712602861032 21.303344808394556 13.15016512328756
K 15.967839372881908 8.327903087282289 12.130787063389308
K 12.68006525924775 19.97261384995462 12.844659271685327
K 15.020403040048961 15.98374084892202 12.927814526965259
K 10.11335391522752 11.318156215618394 16.337023169120023
K 23.606141787372206 17.21163462239158 14.05146482183573
K 19.70713161425416 9.514488741640086 15.180671868060712
K 15.945564207972724 23.351951427804963 12.89737770450606
K 21.256663802673465 14.042906057301554 16.662515809508676
K 13.640178076636438 22.16244543433802 17.01318950027777
K 18.383767258010412 22.942552218577575 17.252518727541432
K 14.727686587579795 9.331443988738231 16.324683861902635
K 13.347246484611873 17.712644502998252 16.64540386157434
K 17.40633492104059 15.808844366881225 16.636687292209213
K 20.677810551193186 18.92217626498879 17.19101559388522
K 13.801130572555566 13.40896804129508 16.415673134928543
K 9.62025526610713 19.47234652363515 16.748435908998058
K 16.562009196136113 19.420110796605293 19.101961532853505
K 17.577841797684528 11.956048343772444 18.777448158228918
K 10.344417689542679 15.242508245533427 18.92478896656279
K 14.792390554163937 15.487461872148788 20.064293916547136
K 12.34835188717854 19.256102785203808 20.65031565364875
K 19.294543144624946 16.03919335304881 20.631920975367894
K 12.953732499033546 11.544449178533933 20.325368362317857
K 19.73299175385609 20.829302203035677 21.3962072537853
K 15.574985563943008 22.82511838955555 21.51723570421297
K 16.13168166740685 18.163124425041836 23.23994531306107
K 12.113029162728218 15.065646987602697 23.23289376469689
K 16.346723525019478 13.216068038026116 23.193705327983423
