40
Energy = -33.23695074 eV
K 18.94255541518645 19.502529780656193 9.11730480733212
K 14.43241697304126 18.96918973423041 10.670347790567579
K 16.878148902700023 15.293685906559105 9.207106140090351
K 21.67546433413751 20.45270557053148 12.621840339830216
K 21.62957426447777 15.85150374511201 10.83161244834599
K 18.513838576253843 12.79077976730135 12.570741646700716
K 14.850888479707649 15.154820577522184 13.244078474762336
K 12.17586642698685 22.0545099047912 14.022556323932434
K 12.188100259536279 14.55253365059634 9.953524644905022
K 17.170273730120957 22.045542430110398 12.863539961368506
K 14.50242110664008 10.857758348279422 11.884725176077652
K 10.968619192720036 17.448743328622417 13.591603861799724
K 18.387134356662692 17.54712489689505 13.029200017731293
K 17.96311008079736 8.863598611408934 15.085158083880692
K 15.54346316835779 12.177549251913504 16.262537462556907
K 21.836971592124005 12.471495636306624 15.065443934489577
K 14.99024863098799 19.045504312932316 15.231129093829802
K 11.076023663391048 12.755973381783548 14.454317644840744
K 22.379383589170175 16.949192936444298 15.353597514723411
K 8.132854460364603 20.213070108772975 15.63384179490101
K 13.106085334817525 8.566108973242965 15.692827142809243
K 11.609867214134741 19.931941277843713 18.288323195950323
K 13.212174940204426 15.678333509365805 17.26274525742353
K 19.460217990743487 11.414860524125588 18.747658713161474
K 8.942053775202334 16.009019955862282 17.704433671551946
K 19.233561769524755 20.174671315608926 16.741697999621096
K 15.858836660131704 18.3102573246455 19.342617234958457
K 22.779724040961217 14.53566026342275 19.20837648688201
K 18.365142492715115 15.418612523787344 16.814385628010264
K 11.733622104563294 11.944818668474742 19.003652954645204
K 15.85607632062793 13.817546536146262 20.580622665782023
K 23.003528311325134 19.464402884741716 19.112783312860167
K 15.380364437581688 22.65586345583483 17.797484883721555
K 12.113469817202065 16.586051430777637 21.47639881105118
K 15.613478754205453 9.15431779643029 19.44519826273173
K 19.70147174599635 13.226280753784144 22.895276335769957
K 18.48070148009499 21.324248162861334 21.246922726388398
K 16.321707786540806 17.34925990840517 23.656587812402513
K 19.742631789030423 17.048326116587745 20.755033621629327
K 13.932450634781743 21.076131341029956 22.217290723732877
