40
Energy = -32.80632427 eV
K 3.679667981195615 18.138940429127 16.44783896000439
K 0.9598396251866724 17.983077989530724 19.985370232714004
K 1.0524308141099443 14.637177057591138 16.83861636887574
K 0.37357840014738525 21.25693304928103 16.831945280843087
K 23.073687375164578 22.313549487333997 21.24553610288645
K 0.007210661677912602 17.950760167489634 13.704604642992013
K 21.205183697678542 14.641356340472262 19.990196150387355
K 21.56537523459672 10.948527714454622 17.584562788154326
K 20.487190315377017 18.304383374453206 17.22813732621679
K 20.44512316722281 18.898890890100205 21.95503809210425
K 20.512481844175117 14.431028556942362 14.666842463219316
K 17.930499232556173 11.355338922209539 20.328876468707854
K 20.268849328545095 21.55686992834532 13.911575716303712
K 18.677487430821465 23.067992985764366 22.66455083255146
K 19.475061505506 17.757143585144277 11.543947836291917
K 19.754650595904838 22.93680369224198 18.308880501253153
K 17.9917479370392 6.869124639389247 18.319007243709716
K 17.4420721381111 15.637307796300282 22.17053801562622
K 17.098300829598752 15.178064712651718 17.613514127070612
K 17.420816732142466 10.95550834585513 15.745643533059148
K 13.932905778845866 15.394393382457057 1.4239143312888645
K 14.240180953139388 9.281986608888442 18.534237842452086
K 16.43168643746929 18.662168933935106 14.712501773158486
K 16.647722007813 19.760166748811717 19.421807353045562
K 16.486762525979383 19.37878447613701 1.0368822573237568
K 16.423525954150815 21.605294038619622 11.330916847341065
K 16.402593811424847 14.447097476950482 12.817194935142073
K 16.16245677370146 23.113753194778532 15.700818592514862
K 15.399265725190018 17.557969876221566 9.701935351184424
K 16.122400625368833 2.375367845483998 19.41251141829121
K 10.43372410874225 11.735798919172773 18.666819893347665
K 13.867436919380786 13.85197342162579 20.391938977034382
K 12.842908091267454 17.517652409928385 17.229280710438964
K 14.27762844667729 22.719805979433882 22.508432127925886
K 13.339683568846356 13.182667546545884 15.721677877030807
K 13.001260667501736 18.31791397620047 21.61540728822895
K 12.46184876565852 21.19403609317554 14.08367426225738
K 12.30577417949775 16.827966215678135 12.818195231456881
K 12.791580096421425 22.034814553852588 18.480424545779865
K 12.221780670098232 20.50976500653998 9.709730398980229
