40
Energy = -32.89842614 eV
K 19.017697960379234 18.40831178656883 10.221328457723352
K 16.615126621698483 14.462441390966598 10.834727160822109
K 14.087866878880153 18.476133820906647 11.596125792829003
K 24.948832658083713 18.033780832592527 11.993580099636784
K 21.187013607161273 14.927234913544698 12.58751371973604
K 17.275218816983017 21.396961447426687 13.27524142232712
K 12.24186966485333 22.190504572870935 14.190369482526952
K 17.471157050524813 17.005178104156858 13.918495031803777
K 21.384395168879568 19.402113033738534 14.012654142748595
K 13.481636399909238 14.791352678608035 14.532926608938547
K 9.3898212856124 14.007904293151293 17.1803647220888
K 25.51830002067389 20.488884781001733 15.909872981816244
K 17.504241306031023 12.649864094979325 15.281469053818844
K 14.26441457663081 19.110628087720507 15.97851012788382
K 24.554755292525684 16.163494726852118 15.970227656324827
K 13.791495660680638 12.371370847210802 18.44725991650608
K 22.202147917931516 12.147313538855471 16.694429566847944
K 20.335715284247023 15.79283282063912 16.881176561488534
K 21.116307455549546 22.95737138222981 16.915956913136764
K 18.311574710223695 19.72789468638805 17.327207036581935
K 15.500692530456446 23.034535036898397 17.52387847869173
K 12.226360918623818 16.632791826809193 18.91730391841954
K 11.24198289782801 21.013193642113983 18.701101811293476
K 10.455282486998428 14.104651701692774 21.77264388017264
K 8.094218086463435 17.3445538078761 19.78002148805659
K 18.75500875735457 12.816670672190071 19.92074092692275
K 19.494605329471668 21.66958774492939 21.20859148572016
K 26.35943193289168 18.489292074704387 19.804183216024768
K 16.209704309136708 15.822936078319415 18.007033708481206
K 22.35670045967712 19.080101386967797 18.6738751925673
K 10.1038545376294 18.081955825138326 15.263572518389937
K 24.167947158426834 22.360912176382598 20.42728825103374
K 22.896526934806438 14.953859722254798 20.503807201560463
K 19.002966916731797 17.25717112444506 20.943114725136304
K 15.244625013405026 19.703854400897253 20.669740273515746
K 15.13104749261565 15.306822590268862 22.43580782454175
K 11.501285149994358 18.397178197467227 22.776751953587887
K 17.28417865216384 18.776463334711273 24.53361611660705
K 22.414658037462967 18.7918080345539 23.207392926266937
K 19.865031249983645 14.855785970551455 24.185794837004646
