41
Energy = -34.13999302 eV
K 14.00151586311136 16.5455003639427 8.631865282358925
K 17.650760187792752 13.63803366570928 10.516372425651856
K 18.064378636562868 18.74007381645297 9.576356416379301
K 14.172936569919234 21.015854644434125 10.960388488307908
K 13.273951963767223 12.911616507853253 12.090140610825102
K 16.911788149310304 9.698805182420667 13.303325765536888
K 11.013034827089125 17.318893628072523 12.066068645036902
K 15.395005620057402 17.06170311831669 12.579859581013855
K 18.03539930814544 21.05781631862443 13.513566049379302
K 22.605939667671343 20.320223565968856 13.188296776737175
K 20.103803637079697 16.54924735390029 13.150577550250759
K 15.04307497869691 24.072174139065602 15.031577354509917
K 13.030906722995562 20.10758424375996 15.386226317503647
K 13.899622715478936 10.906733352238243 16.905947574557377
K 16.833029057713116 13.606996584025467 14.838357185675143
K 12.581962656711076 15.417194109349547 15.991279086075519
K 21.04534873999765 12.04242949547011 14.087765394976582
K 20.72587255157798 23.566383548457633 16.234524376974537
K 16.731306489195845 17.86914323786386 16.271564470561454
K 24.025468160252938 16.218761449053623 15.788137718443929
K 15.963563017164574 14.27067584788409 18.956796824552832
K 16.946431185482165 21.808042663953625 18.26642991033571
K 20.929477360093156 21.415669896410776 20.716397168176808
K 20.03247017054391 14.867929641294863 17.370032880275545
K 22.9149181193206 16.927748723508888 20.300986673468067
K 23.246524329621547 12.38920080038132 18.481736686624846
K 14.092318423093664 18.10907661932479 19.540624631195392
K 18.538165814789906 10.52728061616513 17.97782231465156
K 9.882105277934892 18.398695932775812 18.445503069705083
K 24.477869587807536 20.70560644101056 17.64459573911172
K 15.3891849528556 10.91229596192035 21.4674413111781
K 11.723760738794509 14.289626462251437 20.370969889550285
K 12.484042986808866 22.198466683056086 19.495136907950304
K 20.6623105213176 19.175966351762952 16.88649748020342
K 18.39960186659006 17.712910881789906 20.365540241250276
K 16.00855787239922 20.89341114570889 22.569112797370284
K 19.564323432604258 13.521492102154301 21.762174224059216
K 15.37170280121737 15.437999841768935 23.23455848039504
K 11.667488767995328 18.778467778047144 22.949723614941405
K 19.197959051296905 18.041665018839332 24.446369622665163
K 15.03218767033128 18.622672716197847 26.30942291277085
