41
Energy = -34.04306729 eV
K 10.083229101790119 15.893948919489334 20.539606508508072
K 11.422859013227088 20.12849358835384 22.00211613650644
K 10.94301874431654 23.143059991553425 18.666551177487992
K 9.552084139853319 19.073758311375403 17.547005430020956
K 14.172488478883267 15.714561884929708 22.740143404434537
K 15.71707273046494 19.806129942197693 23.901144192050403
K 9.377629454584364 14.581460376974517 16.42254027555668
K 17.932175949451413 14.975345142258327 0.9223565674343701
K 14.56664448382846 1.684455929546381 16.8540495574032
K 15.06184620441658 22.824908269494912 20.533684285077523
K 13.533045744906472 13.668153872191112 18.661387021738527
K 14.163572640290983 18.344864025029434 19.08917393256718
K 20.138079502586056 19.029012548788337 1.1342682584330435
K 13.800831654689407 21.291230305063078 15.714950954473915
K 18.656864574342308 1.328917881662275 18.68239470785806
K 13.200535767808454 16.704548817562202 14.977726471170943
K 17.545741195452862 12.766366952092568 20.917977429792582
K 18.319382798680444 17.575547292057497 21.118041140083402
K 19.380478929360798 22.253425559732104 22.085582134968632
K 12.876796733022777 12.150574592385583 14.556233841249124
K 17.978387196829647 20.77506456538439 17.783536730161376
K 22.995243042669244 19.06947014765319 21.847095524974577
K 17.580637932057044 23.539917233273403 14.238128599483115
K 17.38271534587404 15.725109821050705 17.170725617848976
K 22.26409466798378 22.408817598180224 18.657846323983335
K 21.64392496680374 14.655949861025533 22.192176920164478
K 16.85766312505093 11.224603293813576 16.624875450361433
K 17.16363618573015 18.846184078859366 13.695228651402306
K 21.56301150296165 1.4831887482942698 15.310103826465923
K 21.095504854211853 13.128436455604952 17.957879646001487
K 16.679360090746393 14.199911256530697 13.087693354116947
K 21.461175513698738 17.876961441545152 17.903591067361393
K 2.2990755330025627 20.10809421337504 18.72127324914775
K 21.29034740421337 20.898415027606507 14.34480547635143
K 1.1353666860383973 15.689617940645764 19.064824223404248
K 20.85334983227915 16.09774990673519 13.866536786983993
K 20.513074265892268 11.610281314415438 13.838388889002392
K 1.4580450000779646 22.803044164110265 15.300762871221876
K 0.6946029975440632 13.831113286049247 14.997091272753817
K 1.1231039052150393 18.2170641537952 14.961055361497316
K 5.2567756341430325 16.843659108055565 17.200262723055204
