41
Energy = -33.8435437 eV
K 16.3745409854264 15.411498421438397 9.229244115274428
K 16.71750293364844 10.621127277604652 9.172194721613685
K 16.444746877262414 20.04974545639077 9.91262800493683
K 19.032234142109946 17.101260216113836 12.331809071543368
K 20.392558127771498 13.38282213078737 9.151167284205703
K 13.476098934034422 12.64718086919052 11.320167825326054
K 20.22865657345386 9.593399066722707 11.573291061443882
K 15.591791040385496 9.395239935245058 13.765865780411325
K 19.442388057748634 21.51663258116085 13.462034535500525
K 12.867902761614443 16.998874578129083 11.319110804551293
K 17.72249923617113 12.889067036546694 12.72403358947854
K 15.50817636476172 23.834627542065103 12.657292047180633
K 15.16293018227944 19.69840863247444 13.895348983845754
K 12.120233575446678 21.368607814235993 11.222236264759315
K 11.87617155979884 12.385530407209611 15.30108393290135
K 22.445980255577496 17.790002840040774 15.386344651994229
K 16.755856094273803 22.80131583139807 16.922790651322128
K 22.165451071456584 13.490512886753484 13.253479228733523
K 12.020899494803201 22.084726365871582 15.665419352786055
K 11.030282004767296 17.529866315237815 15.36268153826428
K 21.19571756451745 21.532548004458867 17.85566643612675
K 15.139326153927433 15.516563757036584 14.960172909368282
K 8.593974251533743 14.353144324493154 18.112269999452483
K 18.304664678698007 18.71849375045383 16.558227756093213
K 19.337059963236793 14.629202944464025 16.31749133067605
K 19.83204525777459 10.414968377307167 16.030572319684694
K 14.136615721494618 19.287226613639152 18.247525585616494
K 10.054124190757841 18.418383744568313 19.82078512392038
K 15.765585397615594 11.781931569818433 17.5686847895739
K 12.723845601852275 15.062741123492003 18.68869524013707
K 23.252257791186604 13.626214701237386 17.673116781401593
K 11.591832340109896 10.999065702364854 19.529899609494286
K 16.73206588012239 15.91616617290744 19.44127174760704
K 21.25896874348152 17.10709121736214 19.835344242827794
K 17.82340454794269 20.006986618926316 20.809470821695086
K 10.40058779233468 14.48025791520552 22.345634810840153
K 19.511774224598813 12.666964363885654 20.35399768372041
K 13.837274118765807 17.515162112391856 22.45938947490756
K 14.934572100679702 12.983766030111044 22.094652643055305
K 9.84704377425794 18.39351749298768 24.32115638234273
K 18.344254863444206 15.993052489396849 23.34164609651037
