41
Energy = -33.96103628 eV
K 17.11151377885989 1.89802302606728 19.345189176150967
K 13.428292009509407 22.631958188293172 19.547750758716184
K 20.81226235032245 1.479893114484242 22.311551546267587
K 17.09745644124276 22.327741715197302 22.29697568278247
K 20.793186140441716 21.174297118036737 0.8111963293989435
K 13.828532791794848 2.248357100677751 16.419756234423303
K 11.959963021827056 18.798887206592553 17.890677989019732
K 15.987994709575714 17.37138196947596 15.596578229200345
K 16.379594764468955 18.262847974223824 20.041772461505037
K 21.227538664488772 1.130596355032131 17.68366716829347
K 16.752161242789082 18.41216512281512 0.5752104279005502
K 13.028516880974898 16.03840672900128 21.570529145290152
K 0.3878936874126355 0.3242269305382079 1.123143311067138
K 13.056856093031211 21.976613943030316 14.899235200434832
K 17.135989082067525 21.610333864286908 17.264183548082475
K 0.935830964907332 0.7247736612503787 20.602540402700733
K 20.853537544979915 21.244799086922093 20.05656452732368
K 12.286645333991503 17.710892221637156 13.409585669219323
K 17.149789972751165 14.119551000452645 22.562053392608554
K 17.741052069681654 1.1623934307292532 14.592181519782036
K 12.844852178074865 14.518129070091302 17.132802884105224
K 16.732308428169755 20.825756534381267 12.672091289455242
K 20.11781443494319 17.63030017293264 17.527475260688718
K 21.045098950708887 21.46450651242714 14.881271100898925
K 13.762097961530765 11.71422528480962 20.487803883814284
K 0.7331322128131643 20.14717377760258 22.34358106637978
K 0.9486467848684851 21.139035809744108 17.816179925081894
K 17.218285110696915 13.889056336675619 18.18261377669738
K 20.64927247663634 17.255575339339448 22.180336294900453
K 17.767703764733355 9.709662283512674 20.33972629199657
K 15.972313167967815 16.48835966041579 11.125267015281885
K 13.444381960599685 13.160242942382984 13.022035708578297
K 19.92143571012574 17.43389379471021 13.025848257572342
K 17.857262823695574 13.408546736663261 13.802220429771994
K 14.90180318865734 10.185905430163222 16.34970874811024
K 0.1857596914588339 17.88697425530652 14.92040648059326
K 21.902039409170996 13.894630215083865 15.997842840483095
K 17.11974939767651 5.930758277507499 17.13161770036347
K 0.3494302787570074 16.723135696843197 19.32770337987328
K 19.42691482986332 10.046050456857504 16.392517025028265
K 21.129466435046695 13.077500240468225 20.367756581277973
