42
Energy = -34.90581343 eV
K 17.292183464072455 20.351121166473103 10.64867473068121
K 15.427574197863178 16.494084821487718 12.27354255399204
K 14.38658630670699 20.894407382422543 14.243183096784119
K 20.869802138073027 17.308911316558195 11.410753085231423
K 18.90860373540524 23.09294014518341 13.993218109425928
K 13.974818787275268 12.6381396973502 14.325432026241433
K 12.83222661316284 17.016723348781916 16.107132106693722
K 11.775884044575553 21.140286252534324 17.95428988600431
K 21.60869196849087 21.638289985626407 10.498947501452607
K 19.078734328380893 14.117294061553311 13.78492693057395
K 19.031263690621298 3.491361044805664 16.82393288316384
K 18.139520021809247 18.703422621287817 14.843331239211269
K 10.297577046601562 17.22324933592495 19.794153593301285
K 12.27537906468579 12.845952310976806 18.49949619178976
K 22.613978756286855 20.094070688013534 14.59455014288057
K 14.012438196678465 8.445148220276863 17.62100308508789
K 15.96299515743403 19.061036232435683 19.066711818507173
K 19.745213579603593 21.59262411608307 18.21311678622441
K 16.47746551590773 14.864683171437552 17.262176820765756
K 15.773000648841375 0.1511582865015852 17.581291933103664
K 17.55561026793313 10.249345366679176 15.778942119854996
K 12.70411138056048 1.0486488245799157 20.894293861062692
K 12.855588375329475 20.140014449766735 22.340972160227764
K -0.5165120551910567 0.6805945325134356 16.895091965348815
K 16.84351843642926 22.567039684597315 21.97853741202682
K 14.012952367610401 15.5827881798042 21.58505528413774
K -0.14084589642890705 15.551667513373594 15.34489403941387
K 20.19200372947975 1.8417990888707785 20.703228672856493
K 16.2788566910184 11.417899206141549 20.29086452536113
K 0.967664243011421 19.04438176729569 18.537169370957315
K 20.377629993853482 17.180822205706384 17.9864516996696
K 16.076730626859664 4.041588220236041 20.16274734794197
K 20.548350345119395 12.51264505932613 17.973631361416327
K 0.17015973641381416 22.454570315854937 21.194168869248323
K 20.539587425002118 19.40647492367501 21.974305676149264
K 16.81300557946588 18.334025283784744 0.5786892775512796
K 18.452893162734252 15.268516288832238 21.286859652794586
K -0.15763954378103678 15.013133768460584 20.525989280692368
K 18.736170244747022 7.692735068490945 19.413252041493195
K 1.4537469274274388 18.345873911271713 -0.3805838201408329
K 21.264557048058947 15.766789714222712 1.096302745405989
K 20.531215778513673 11.383991016913672 22.33063577651713
