42
Energy = -34.76361594 eV
K 14.284624464287305 18.81995540209094 10.294792734227292
K 13.890674259272163 14.273002033371597 11.01895757298897
K 17.946616540975143 21.252301139635218 11.553240643447296
K 13.923180425468916 21.918822898431195 13.713360212060548
K 16.787376119402435 2.1845094469834914 13.1557272437958
K 17.618120110450494 16.506833136804183 12.276322743931917
K 13.348504613806794 17.21574436311612 14.463357054565689
K 17.249239132816683 11.986863729330931 13.18502025492088
K 13.509700132106 12.601962276629692 15.380520450339729
K 21.241259969180952 18.84346187674683 13.9048522699969
K 17.154243981424425 19.433305086098834 15.748732348469057
K 20.038438977221187 23.26130831258542 15.06339072010386
K 13.175744789933793 20.2067598378816 17.93914769100263
K 15.718477628561244 0.6582098571783765 17.225580200146712
K 18.27773938117252 4.790682546105192 16.972709869507508
K 20.87194155006364 14.288718297590137 14.626372024136005
K 17.034849315847026 15.045683853397996 16.835641217742758
K 12.800015200792341 15.703441927881093 18.655694663996666
K 15.041579341228015 8.201931439836594 16.855580704056447
K 11.162768319507473 10.765019377288011 18.66996788421707
K 1.275607566675809 16.456811976705573 16.10037611450504
K 15.226430967581226 12.05842188738739 19.80977710530672
K -0.02185629701686097 20.950611682964816 17.21520383217441
K 14.651672847660246 22.309461109254954 21.584899936638134
K 18.820622003629193 10.56220806216909 17.21817137404031
K 21.584370363720076 1.4405271070461503 19.042601295233123
K 16.522197082770067 17.977325408692504 20.38218590759195
K 22.736927635480857 12.8198226920736 18.323098621185533
K 20.828732742085663 17.26336418000622 18.396229224283562
K 12.231261505722658 18.325363579709563 22.221862151496175
K 2.7569899797014643 18.298386281977287 19.778475003217643
K 18.858612012476396 21.407753872320974 19.099605532982444
K 11.35433191290771 13.685357909979434 22.32736233087889
K 19.172510994262428 13.865066095982163 20.880296627556202
K 17.542827252171474 2.3851892435660575 20.875774443616663
K 15.710260874945538 19.226672660598993 1.5123268588605598
K 23.39975086597643 15.512782699280466 21.95351049731684
K 3.499402507903656 13.957488779482647 19.36857519464688
K 18.851733276075567 22.00239348148365 0.0047383702589271545
K 22.492956187965333 20.131547925527553 21.59950996800733
K 15.501844931270709 14.95547951368675 0.038215535369360815
K 19.619201008611434 17.33079426747579 0.3556098757250853
