42
Energy = -34.32928637 eV
K 12.21962707105304 11.69158787854832 15.423556154912315
K 10.120002409021142 13.74143523621526 18.668369107462205
K 8.822012403370644 17.574147745357514 20.487327428282118
K 11.31202304936612 16.22754011154807 15.12186433287977
K 13.612180791087658 18.309099510183852 11.696164468498997
K 14.9382473479312 13.676667683895081 18.553131012456717
K 12.34657588360962 14.746108684336514 22.37105326515908
K 16.648202986461754 11.025645629660941 15.154766766951267
K 10.802499577175652 21.583228799878402 19.782229693588775
K 14.50035798509591 13.918449800603918 12.341749025129884
K 18.50784829481368 12.216284828773396 11.14301695227892
K 16.794221873688688 13.290128352626274 22.68542824494211
K 16.01526842218391 16.788058915352295 15.488438270518676
K 12.839638195657693 20.745448371066146 15.441655059446289
K 19.040064540307966 11.525621123632984 18.9338339830035
K 11.834216529952341 19.026252114951244 0.5083579822076488
K 17.984207340205767 16.74494063376326 11.351468743762144
K 13.049749298989612 17.882565690625814 18.929603398370833
K 16.11013106567667 17.617752257707373 21.76996719278714
K 16.90012171975221 20.97851954073898 13.018245227981822
K 19.945040679041973 14.057391780591562 15.09001708547554
K 17.016762393042736 20.471545644002614 17.90769934424762
K 20.267592397957607 18.623110363069888 15.050916416172134
K 22.183719894463223 14.904893250396253 10.973783191596974
K 14.028819543726232 1.1211485447578144 18.181673672912186
K 19.302121529807703 16.198891515271708 19.232651609434473
K 17.590701362394853 1.5591691448214482 15.602205450989628
K 14.9015877672694 16.351267735951247 2.8156117303704313
K 21.685282093631645 19.388113679419412 10.727641358706926
K 0.10248450724954429 13.926163958963812 18.668105322690764
K 15.104812812746133 21.821885754174495 21.93235556737228
K 19.35841469886474 16.684320999017572 1.6333828737512408
K 21.20146947372712 12.950885936238159 -0.3272148234759794
K 20.003841428952054 20.30745570692856 21.516745941867292
K 2.854335142682437 17.627329245611282 10.90150318298234
K 21.318944905140654 22.488595005732247 17.416245779612062
K 18.26568866440623 1.4263609220419629 20.108397201138178
K 1.2498043689079288 16.021472674515042 14.748135293421056
K 0.15309108372849245 16.89284824284342 22.292596404293363
K 20.87273922551749 0.1550398305069825 12.954334045529816
K 0.3407487940891614 18.64582279864228 18.364390409659563
K 1.4212497903800203 20.519308310796344 14.210247939965406
