42
Energy = -35.03790479 eV
K 19.540299610995312 20.960831952475512 10.482956243803159
K 17.66967164287587 11.701360124991242 10.876912919175263
K 10.52963675575441 18.0350596416405 11.63434977581725
K 18.7826162522352 16.334871848158066 11.609065576910837
K 15.065394500020563 19.7828652131093 12.010397944245476
K 14.27431832523795 14.993001592328321 12.042530767664452
K 22.936309465135817 18.397827101785474 12.769064279580796
K 21.779465525716663 12.769759783806073 13.120107958685749
K 17.387990128921523 23.88193278944754 13.208661945680923
K 14.252196526569627 10.494069685540586 13.927102761080338
K 22.188317437325164 22.958369999785113 13.876364826608928
K 11.2518402812777 21.800034506364053 14.255786297924804
K 10.1161458438443 14.071548684864185 14.285144578772757
K 18.814422447550548 8.997090365946102 14.324936553130353
K 19.162615323192675 20.08932477638985 14.648649262094398
K 17.695479478032336 13.117601745023707 14.91574504373475
K 12.405115202502614 17.80220669861591 15.423579271249897
K 8.082364044867276 18.387889564153216 15.744125307844854
K 16.48543078337607 17.15820542818797 15.441830892361908
K 25.003319740504665 15.42903047466175 15.781365319452254
K 20.713177162904472 16.06993884297242 15.902474086070704
K 13.896310385659596 13.894627556817063 16.72976903460656
K 18.827893660185865 18.80325174731607 19.128488133080037
K 21.03496946488824 11.633145217928112 17.626990130889848
K 15.194713318911214 21.408250513485278 16.465064510646663
K 10.195555403712397 15.726673708828041 18.82083394814623
K 16.51357623313759 10.276971951041057 18.363792421997722
K 14.663460373180556 17.567183500576558 19.52680406797859
K 19.469516507652514 23.24787683994727 17.699763113530413
K 22.494474090287053 15.452214784800239 19.816571959747982
K 10.933086545320732 10.914205857798486 17.63820785994176
K 22.920348327920763 19.83485237222866 17.316500349422693
K 11.243138068347918 20.333120268841686 18.83549122353557
K 15.764519007744045 21.836605580356466 20.689697449519247
K 17.77080365471784 14.595251027914596 19.28384713018062
K 20.101232736840974 16.730008706372523 23.2649159237387
K 20.292219989669224 21.38537747776507 22.13539383431794
K 12.364995165465743 17.6476165832642 22.94092205349017
K 19.526687119406223 12.043041382682746 22.12270220260457
K 16.54316032401129 19.1484551061661 24.03419422090179
K 13.512407740872526 13.132993503466944 20.950219343043777
K 16.18585654053215 14.740506629460175 23.913730614094824
