42
Energy = -34.92791094 eV
K 15.997350857913391 14.695162164960438 8.958396327394507
K 19.93270933522265 14.33433160919936 11.337756201845915
K 19.750021668791465 22.553381648371616 11.51184974258534
K 18.01537334208744 18.31603439223109 11.533839826057267
K 16.674653579407728 10.787709536382378 11.082255527509124
K 12.644734062269638 12.797238680737799 11.227766931846709
K 13.245660597062177 17.41745138031094 11.55127114580076
K 22.263473264760144 18.91597384582692 13.700284440634794
K 15.020842361446649 21.710096977809076 12.658326723476662
K 16.08937586413787 14.491119433974164 13.334749337542759
K 22.8000184295785 13.919845542971666 14.727535738750113
K 21.89079363226299 23.51155547550387 15.390871980128832
K 18.842382019838983 11.470807081992008 14.881483029004881
K 19.508474574219097 16.376172637365173 15.797307873440626
K 17.482260902463352 24.982867638432353 14.783736099325063
K 14.35229777058224 22.30064542513011 17.1489501445023
K 18.586861415399227 20.88128148352063 15.2130053586731
K 14.178989681698981 11.102011687797392 15.205224990764174
K 15.29650819730254 18.17841758923261 15.203269528416797
K 11.157906980214086 19.583094058108813 15.2454638792185
K 12.03159360904102 14.983171771596073 15.547099543482474
K 20.8336555947719 12.317378312409415 18.613223677199485
K 16.283980292078727 14.592247169837417 17.929599269577793
K 10.393146670588754 21.113269636573026 19.505074146275266
K 13.15128936027124 17.893683708138354 18.851050472160498
K 21.672523031473855 20.0074399013477 18.3663927508457
K 16.640861207974833 10.444496319037146 18.836259571618605
K 9.106453413627833 16.694360948778762 18.63554094048156
K 19.799714422203152 16.245039115890247 20.384016769205513
K 14.501523903471936 21.176256469342643 21.578340879606785
K 17.24388904103033 19.13778959379874 18.887034185942955
K 23.655972132095105 16.05285111244005 18.498384771430732
K 18.470066550635725 23.308132867505435 18.963732261228696
K 12.740484543007923 13.674099653862823 20.142005632513882
K 22.58573574009243 13.606212822171942 22.4922957896677
K 15.627321224166842 16.755631966589615 22.3964004748832
K 17.830649123277517 12.932719542772782 22.268195881246267
K 11.152063554174774 17.677831170876022 22.566699955250268
K 23.189568451484003 18.16206008337053 22.488505394006857
K 19.655554613565393 16.229044882060947 24.817318846139635
K 19.113961939232812 20.219164729814008 22.646279287876247
K 21.84718023488259 19.709797121736703 26.351081862249895
