42
Energy = -34.78910977 eV
K 13.884497218995277 17.374672524898394 8.742689980274328
K 16.917800760965473 10.110931953904585 11.035935971580606
K 18.04049463971888 19.560076645138814 10.884327268377499
K 17.773246984985274 14.828746761749635 9.925880637824974
K 13.680567369867589 21.239653858444324 12.629373577678619
K 21.395802511297006 20.43266799682333 14.207762218390934
K 13.450608350684758 13.278800355064 10.897439629445056
K 15.009112248770604 16.904593990671408 12.755304894706068
K 10.69738883771966 17.573572850521188 12.709974861439983
K 13.820281131741117 9.89476372826024 14.62944054454581
K 22.27158766096576 16.85123050793842 10.952891730049878
K 19.299964647974143 16.423278901243616 13.830397386432487
K 20.95191348885974 12.569669705655988 12.743265955845406
K 17.050188442841232 19.898369489664788 15.148649701092909
K 16.695351619813938 12.98932963514189 13.983952664016575
K 9.939816902996082 21.33448450661965 15.686586592249466
K 17.75172944257271 23.663854078641325 13.59174553724635
K 23.292069716187594 16.200576538943597 15.571596135050353
K 13.021570429295707 18.636882727573656 16.259512560397148
K 12.458631040309506 14.211157582923612 15.370200708475744
K 23.444975141486175 20.03410014207084 18.596192343180473
K 9.37303817724753 16.881434799154192 17.43004985037941
K 16.227572050406042 15.876195139309596 16.919996073861263
K 14.355714613970138 22.920182006326353 16.937714274818124
K 19.982337894600658 13.3298216675704 17.287065133105347
K 11.275669355471488 11.953214138167407 18.818931297709774
K 15.842220310284835 11.738124683173442 18.232556694275594
K 19.896260217964574 17.95439429566395 17.800055266043877
K 18.48144896598541 9.380807273665516 15.347167106225559
K 13.08196039233446 15.921073464943932 20.050728590948474
K 19.17334859682696 22.472898148679395 17.96580736187063
K 16.020724187276485 19.401013657116533 19.35951635468653
K 11.818518403093812 20.44769622108629 20.027929853390898
K 17.640441516527662 15.471811725533195 20.920796482186585
K 19.260028549282094 11.797568178860208 21.734507176642644
K 22.36168277014841 15.627233033624666 20.37039606451764
K 14.460860875559232 12.237942887503253 22.23694446203787
K 15.874572671220902 22.590743703979584 21.93998112994528
K 19.75984718259689 19.85221333275545 21.729635559381123
K 15.657451284399489 18.304124771545847 23.59102218038342
K 20.286113330507476 16.22325531876698 24.383453809187216
K 16.85291923949588 14.137166243928421 25.292953553349037
