42
Energy = -34.71904593 eV
K 17.693442048650816 16.313076954498296 8.947942702092853
K 18.80413356588682 11.692134860984764 12.157818059580672
K 21.83038679489042 15.924001629419125 10.374429403015899
K 19.563892985103298 20.013850025912884 10.345095857457457
K 14.69039988944618 13.895364723461133 11.039918774964296
K 15.407252601916463 19.54225119234813 10.893677449114398
K 14.986607119211929 9.189882289701742 12.559141019891468
K 11.408162608884128 17.54967658838177 11.440343292442742
K 18.740905844904084 15.820499905291205 13.360578873261106
K 18.05680716666768 23.115196299401603 13.334110821377692
K 10.447926434501463 17.946895989616536 15.987206012473907
K 17.174207202597152 8.8680669172078 16.454202770902807
K 19.895713392534407 12.374790238394665 16.729552460847998
K 21.420926088634765 16.929771119500927 17.453468781304508
K 22.974914170393387 14.187174799224369 14.338761595325757
K 15.660490313205917 12.613904851849291 15.042800184512869
K 11.193984927027559 13.658492400400046 14.009989172025664
K 17.813641386385463 19.49926629985781 15.267150052368796
K 22.011766765856112 19.07792102377975 13.763158533500519
K 14.50494890475412 16.848976573339623 14.220758261132666
K 13.560116159275875 21.335486432355673 14.546783516181433
K 20.878491857672014 21.740203785333563 17.473141870263994
K 13.12344342325573 14.789491958201195 17.852348226309083
K 16.42693002309744 22.97024376622274 17.92359640553425
K 8.973112382340261 13.915207179051912 17.94402620689219
K 14.364263321288444 18.94726690752651 18.078316154962074
K 11.883484717904915 22.28823340655934 19.012661591328815
K 12.47327799870082 10.488304112746176 17.193019040169627
K 23.50495489562844 13.300372141990323 19.026148108733434
K 17.276468980261576 15.67375916757288 17.546834055122552
K 18.281611608881516 19.065759793776667 19.78303851144114
K 11.153913911892998 17.70464784318232 20.604048924845497
K 20.35041487840593 10.272161461424515 20.472975698100434
K 15.352732415743478 25.236894466165438 21.535695934788407
K 22.216405899670004 19.11576100557377 21.326036967605848
K 11.945623811267197 12.87773193377748 21.328637066827003
K 19.009203374074517 22.827331634582638 21.800311374624798
K 14.80859343137013 20.775699281302792 22.078465746654192
K 15.36225697881921 16.116015388227687 21.633834194751177
K 19.784240927452572 14.807949527238964 21.2189361319648
K 16.23326753389587 11.933348574200215 19.72947062892507
K 18.56218821820495 18.562442510971223 23.977076526934678
