42
Energy = -34.98579013 eV
K 16.551045028404776 16.407927556036398 8.275464985671777
K 12.475022968091858 17.392504406861246 9.22221886119735
K 13.887289381639091 12.977220055006553 9.704869607770556
K 15.76396968761718 20.09100221545023 10.838704023392902
K 18.303558195525486 13.222603757593895 11.28284208344909
K 23.55126752871138 19.390135811255828 12.901537433535987
K 15.260951688332652 15.959710421874986 12.51281018123809
K 11.260209128260787 14.764692611521165 13.132507949912696
K 12.375571717725492 19.271610911322988 13.72716515451813
K 14.642006360262059 11.820661719999352 13.99451613925502
K 19.456035179875347 21.891155500277954 13.294269730759213
K 24.882238135729853 18.344841430467074 17.06084199079084
K 22.41278273618851 14.778021787888699 14.539776665796062
K 16.672734550034857 18.94673970075795 15.078488661537406
K 19.545995151484338 17.43733457036316 11.858616309101242
K 14.805317575978819 22.848552978030117 14.98108728269242
K 18.858057210875543 10.39138986032012 14.663340046238945
K 14.458615707961256 15.539853993137244 17.292461649200213
K 20.791780489203322 18.640415174113187 16.012285080431717
K 10.197637683023961 17.354936421247388 16.76384060771192
K 22.88901695236133 22.478032909641374 16.299756638568322
K 18.346193676408642 14.584161245497754 15.845527837436821
K 15.884261880793423 10.847017204824954 18.042705134613133
K 18.38487514975564 22.360500343748072 17.697569034148252
K 10.620459922655783 21.88310885013271 17.49437599558973
K 20.544485967057373 11.383843196135128 18.658396603512955
K 11.489868967760541 12.691481493727121 17.51235082457487
K 14.092360342530654 19.721132906737047 18.413253466904262
K 14.28062762430971 23.98837470852999 19.377448667069302
K 21.85492125134822 15.59644055990231 19.190299594403943
K 17.958623214278926 17.985519574902888 19.09721614017426
K 21.657340855301644 20.208148401244216 20.08167001532619
K 11.419032764496095 16.481575530242413 20.714585453637856
K 17.75460541141841 14.03983202310393 20.50247643393624
K 13.90999381233584 12.758941786061783 21.70809816447206
K 17.669197077923933 10.03414972216564 22.103670470944394
K 16.99080287225377 21.210180775402673 21.815669607798437
K 12.027000849725335 20.871220632277737 21.892150645308593
K 15.154565095750199 17.17316190545614 22.545715637720754
K 21.166889408904538 12.820513183420431 23.0595471019597
K 19.668803063111863 17.119171365550038 23.12700822835254
K 17.431491420105772 13.639684483284917 25.03036754485948
