42
Energy = -33.25522165 eV
K 18.580859963540306 17.62389806715253 8.951890544381968
K 14.643513325361399 19.052121995595808 10.31543351744707
K 12.18254460576382 11.289922640718624 8.90607319059611
K 15.392356730958058 14.698697816082547 10.029512050734848
K 10.827052099639552 15.493994524148379 10.351168908826764
K 18.843018379548926 21.250463895547714 11.828004719344047
K 19.63657320872184 13.813456176886895 11.13936888766701
K 21.813316337802437 17.560367974194357 11.8597588183112
K 16.188174090298094 10.376924604830055 11.282521144873451
K 18.020042842649616 17.820393735800288 14.04063203899259
K 10.514428665695927 19.244071501532446 13.129780543945818
K 8.762677181474197 11.495153532679973 11.874087310471909
K 13.723820977675949 16.763962714542775 13.862984387723829
K 11.998718814133236 8.372311209148773 12.392072723882988
K 14.630914747971325 21.1254576921444 14.287081709518503
K 12.73666996778171 12.546708343263031 12.955447280877346
K 16.816200780765936 13.713746603625646 14.471522449846148
K 9.403624078214397 15.011513384293965 14.821819080083902
K 19.604907430487454 10.616345553348017 14.293725599577257
K 20.978614426436494 15.121743465689914 16.05378077219299
K 21.968477856407336 19.953776156764704 15.49669219991414
K 10.458186362849165 10.624525920056294 16.19045037993355
K 18.229047255254727 22.06226673038268 16.624788467215595
K 15.060166651140637 9.961602412800477 15.855155303058247
K 15.424333428001548 18.601030367867494 18.11557931080504
K 18.87507244077616 11.236341456475616 18.72389133365093
K 17.09212176476478 14.896388717890897 18.796818329442495
K 13.922409334817159 22.54460207952899 18.455642812729074
K 19.670211946349276 18.496038072971118 18.87836855272584
K 11.134917431174099 18.1795121584731 17.780123761492597
K 23.86843937316518 18.062532083312448 19.24778034314496
K 21.9648790580808 22.16779300639228 19.47636965068873
K 13.165614747711604 14.15825774753265 17.10974360285791
K 9.620315532581063 13.939048301856639 19.397340792803917
K 20.939092449168488 14.862639927079043 21.012161468516528
K 13.617056474694015 11.26203512470109 20.05420097223953
K 17.78197757523189 21.708446525159264 21.3277368540614
K 17.136760775378214 12.912539528725212 22.654560502394585
K 13.505287725533083 19.89656792437611 21.969882864025045
K 17.294169053857964 17.446145295689156 22.565056427162894
K 21.395313999069504 19.30093943986561 22.86304455216876
K 13.409097177155585 15.566692658955208 21.388922907754008
