42
Energy = -34.65232857 eV
K 11.378282600642672 13.239129081552674 7.559475283305504
K 16.072748030986133 14.086139260893063 8.271793933564119
K 12.97672541214384 16.049220959437303 10.694958026202235
K 14.001658333332719 20.35516678809933 12.60490003672691
K 22.03491235528366 13.697338910190233 12.2808535643981
K 15.68377835191189 18.984289299199528 8.617678096541761
K 13.345800229940933 10.94736743963262 10.733348125421493
K 9.420553631181182 13.456519930025706 11.80217911733016
K 20.09160211797277 10.649711624106944 15.681589734064277
K 18.59759240624447 16.826860259646164 11.12014561581131
K 11.013918264409497 22.041753112020675 15.843985272104497
K 17.279924163776872 12.512508086284475 12.40634259792339
K 10.792408486528378 17.435294044072123 14.598029247280497
K 15.403011402431542 16.335153081036875 14.168585467638769
K 19.530756111857855 15.137850106665171 15.41559950451067
K 15.768881142128732 23.184173991114935 16.000940921024878
K 12.877795709615588 13.146077862120993 14.465129868592841
K 10.474330357102962 9.70195953087859 14.744591817455154
K 23.52914711215504 14.227484752345358 16.784597922533713
K 22.119944171896563 18.38446017283188 13.628632211650585
K 18.480810688255957 21.550656694729238 11.710933684270248
K 14.090141771690579 19.299468720764757 17.193870480970205
K 21.413734256359174 18.178872641437398 18.225712332765216
K 15.148540888270066 9.066686148939207 14.958036965194715
K 20.62480810723368 22.388442573912815 16.172030916836075
K 16.3688270988422 12.729080299644842 17.049885042301987
K 18.00880441441673 19.292982106602114 15.301754231589264
K 17.272743082366787 16.573829293507366 18.854396597008478
K 13.09358900530779 15.319543469494116 18.2057417785335
K 21.69093902532802 19.79256222667713 22.375950039076272
K 12.997600657843899 22.38452591371026 19.978032161623144
K 9.150369665130231 13.765073861986544 17.092082943562595
K 20.05738165781521 12.916728782161737 19.80630679182697
K 23.298556279266545 15.623912522804671 21.369002961110077
K 10.099089324332803 18.50997078809325 19.189784276959173
K 12.598864416700197 10.859254364436174 18.836487749289134
K 17.088498571827923 9.171258490485087 19.35660446027245
K 18.90010909502506 16.40590633476197 22.760266724994693
K 14.059739312206892 18.02375951431673 21.79134099304598
K 17.663604774695255 20.912821534871064 19.802376145147665
K 15.536037104295536 13.284980169902232 21.675977183160658
K 10.855417057363304 14.44320190072466 21.762045822499527
