43
Energy = -35.71163191 eV
K 15.680521544165295 21.27940199988287 10.438227160411941
K 17.474036045752136 16.79088932214177 9.905876618937421
K 14.544118702058036 12.696036126029169 10.211816327233636
K 12.863746784413536 17.198622087795822 11.542395545574294
K 12.677579177294781 21.274138602780056 14.228986098747717
K 20.152760501860183 20.883326595632298 12.119695389989252
K 19.06510833464704 12.326551307395542 11.532247765332299
K 20.454778244545846 16.352889171051206 13.459564947053519
K 17.07618454791788 23.36088054231518 14.917942674164422
K 16.465734768273585 18.858860082164373 13.78432384183962
K 11.590624274854845 13.416934730648268 13.994244632792675
K 19.64437507405277 19.820212198504453 16.443474896160293
K 15.687901325342139 10.12549177088408 14.172664544637472
K 16.02911217234525 14.525954182454722 13.63861752393528
K 9.118190052629203 18.134358491573483 15.154889228102896
K 23.7530398128101 13.834893592121384 15.284409126381133
K 9.152216764696574 22.557591638172127 16.782487546916226
K 19.41417265582121 12.222212502308706 16.104538396329048
K 23.86475643685542 19.006673871785594 15.343665526883703
K 13.080527960951573 16.96463087374125 16.060551815707928
K 21.89878256399452 23.438690887630916 16.04978985026075
K 17.390416128851093 16.010739258278377 17.144676467484924
K 26.545008746358192 12.304417424065882 18.303786470058107
K 15.37406117853151 20.193604474920345 17.83123921704325
K 14.430108162843112 12.679159375818923 17.70606492113569
K 21.40782958989432 16.116070450512474 18.121836551680282
K 13.428327903399545 23.877181227419687 18.299459616411138
K 25.382259589349378 16.42422009858103 19.41539473664971
K 17.348785551404692 9.735281205451999 19.381804065132467
K 18.41380222125876 23.053125707146854 19.546548966431267
K 11.183685735767556 19.603300338926285 19.411104124021673
K 10.479201667862004 14.928931605232858 19.045397538422105
K 22.610874045912666 20.396026293650696 19.803892608547663
K 22.349094279202582 12.210075047165828 19.782988815910347
K 14.50985444482912 16.519737229035183 20.238585981697206
K 18.431077125228835 18.506351253021972 20.523536996521305
K 18.250231617349648 13.795517612643367 20.93528103360639
K 14.75192777222539 20.809398276178396 22.277786634542252
K 21.703404694515623 16.415948388402718 22.707466386909385
K 13.85001958282525 12.718840137472892 22.282801158481107
K 19.767075688887065 20.533501365220122 23.867274045545585
K 11.758232769643465 16.81758273922675 23.469483423342425
K 16.453869056581343 16.78916521261829 24.240596081037076
