43
Energy = -35.48665523 eV
K 19.065511638483457 18.263666620009385 9.142308184378317
K 14.721503206947412 15.757835053738015 9.357868471109573
K 18.294962594819204 22.669534518051034 9.492536837631778
K 19.93542748290565 13.678799093931495 10.246754250975187
K 10.419101225967129 17.92880525797556 11.311582375738839
K 15.019730390549892 19.802505934887158 11.150012153767396
K 11.278490821376762 13.099168446908308 11.391918250980616
K 17.62840518320898 16.49056836922226 12.832790604491771
K 15.843071877947496 12.306713912356653 12.195775396879727
K 22.163657337273502 16.867258616415373 13.010757252582872
K 13.36654518539311 16.199094747128292 13.724247588972926
K 23.670624845857528 12.440290806174575 12.89190315457992
K 19.456936339646774 20.580256331366016 13.273962498503675
K 19.36284463729947 9.540233656581055 12.350368677764703
K 15.918390510003919 23.64358746601359 13.309262124863121
K 14.451920827238162 8.256754839568163 13.498883072260236
K 11.693647937399415 22.080719299231706 13.110903835457112
K 20.096819090291675 13.098492019101034 14.932329858967229
K 9.27421217743641 14.941368814755943 15.395901260624417
K 15.491763046937505 19.34982636650908 15.994421853818247
K 12.61592502662389 11.70866593585192 15.648228940059198
K 16.32343574403126 14.10166468993018 16.264507628060898
K 10.777106869398846 19.28842982260246 16.351292171759532
K 18.657002337962357 22.976912752447294 16.82396872453989
K 13.803544420510356 22.96297565628405 17.440420217226315
K 13.268496040988564 8.321896299031406 18.63413912850467
K 19.342572621992804 17.419093696989652 16.835581825087374
K 23.336388368515053 15.459089909299411 17.248041000637606
K 12.814787887902707 15.663262897844607 18.058401906493284
K 22.380621496158255 20.235391241219524 17.596422972579745
K 19.711965093225814 13.120516240800425 19.396467464581836
K 10.461576276515174 12.174813545546005 19.722407612591205
K 15.266261452443239 12.065720030519211 19.960983964197908
K 17.25503100920886 9.768337311661972 16.5291843770655
K 9.155361183458533 16.574054763943302 19.98291997905554
K 16.524509214105066 16.473153653656293 19.995502947422306
K 17.597298409247454 20.743050567080626 20.28676520390059
K 13.120724479494582 19.44594514051515 20.47437993701518
K 20.721798715067788 17.245930961442344 21.198070435759217
K 12.902405894946348 10.207019517110446 23.02002187807698
K 12.97135770545939 15.064507834055725 22.632338907974304
K 17.537788333002766 13.89379202979974 23.512160097071877
K 16.50801856231948 18.297838832005414 23.980848475552936
