43
Energy = -35.48212954 eV
K 20.30581585385629 12.22073176116952 12.562506718255245
K 17.31347457026359 9.9377675871256 15.087070033347612
K 0.36526046212335617 14.802646828691183 14.51960037177416
K 17.23019270322233 14.669891526752615 14.717307065541721
K 13.978367623022363 8.454931144563451 17.902643705300473
K 20.6137096432983 12.606509912693252 17.093390800712857
K 13.250904533719599 12.452836687625565 15.62591878141708
K 16.417209008677556 12.213041915112854 18.81425048294715
K 23.376094575341437 15.463961448804456 19.104397886687785
K 3.7330511186774804 16.561570403314157 17.14289779506436
K 20.970087387046853 16.53587033323394 11.457294657156487
K 19.873650449525613 13.661314337559299 21.72451951090844
K 16.75574569172983 18.078768974628815 11.211888415937935
K 13.213680769524581 16.214914711207705 13.28471292521077
K 18.024371196192924 16.51408201387275 19.08840603140668
K 16.68572278346345 19.12169667685466 15.494630833278725
K 11.961818406545204 12.144875884276901 19.870435740437074
K 2.2411018440050126 19.15684768248735 20.642999485714796
K 20.773002311135357 17.493071164922924 15.852430258059558
K 22.783167596706974 16.938658466638216 -0.30136272862805824
K 20.442303899850213 20.825702912041272 12.896366679243215
K 14.913936162645662 14.871532023362194 22.11244288274755
K 21.33537919925912 19.58191356585825 19.82639667617318
K 13.752222464590261 16.540356062527874 17.860378931676227
K 5.896068519146064 20.261186670288318 18.057505508926667
K 16.600422997054622 -0.3659037762083167 14.359052085318115
K 0.7665074411561384 20.00978115747945 16.23387906091148
K 10.317867615120736 16.247493472422153 20.727791758626903
K 18.38403602785805 18.089025336216217 -0.33780816247358814
K 13.011165502076114 20.550722590340577 12.964982259165403
K 9.922634938141874 18.398074527804173 16.229116835327453
K 21.905172593407983 21.39283275076734 0.2098438528035149
K 17.153476722960757 21.039463972445887 19.53599245214566
K 0.6551366344940845 23.19105441249687 19.85478003736754
K 20.477394462426744 22.823705746374042 16.816717637180755
K 13.236144859418518 21.546324644269042 17.33969116936357
K 13.894161586436464 19.165826587823126 21.90017632941486
K 9.930661791616483 20.634795628158766 20.253361647148658
K 17.113935840525574 22.462541698767662 0.3625886453989471
K 19.937222190126032 0.7736549204207509 21.019842787186683
K 16.39087789344653 1.8386962787382315 18.387536924704726
K 13.437579743318464 0.011030132593824158 21.374451931397413
K 16.228625403199437 3.3023782107510855 22.623403726350936
