43
Energy = -34.82487451 eV
K 10.151593722843682 11.971104461649595 17.57408452036901
K 19.70701323642143 14.656155262161127 22.203746550593504
K 18.272967779178177 14.021594888368268 18.142800601424256
K 19.014880201732403 10.218185554171543 15.945744020070032
K 21.625871433316075 13.769336107006076 14.689896114337682
K 20.87940817926537 21.95873619463538 21.087355238494716
K 9.478694915484606 15.882787471422386 15.160833411168527
K 18.16838501716001 18.21724762083553 19.669380763356468
K 17.004398203322083 24.09350509328985 15.415393165699651
K 11.0203464568301 15.694256525801382 19.846696407500232
K 14.377327107296917 15.828177534755287 17.286389214785736
K 16.950008054712722 13.63231141408717 14.101185759784642
K 14.359467148518098 17.310974918845517 13.279917699919451
K 22.184128487183497 18.118985425071873 13.305164203530044
K 14.722694497827069 11.218546300422082 17.33127397993369
K 11.55247923169248 9.045609791333364 14.587170697213896
K 19.525719489156455 11.831215274170352 11.112561972038495
K 12.724977265145949 11.415896270835521 21.254251644243347
K 15.35450834431915 15.053519601501437 21.552438419507812
K 14.749424738454545 18.75678201273931 9.405534890994966
K 21.987076895692837 16.717911000721468 18.21032917030304
K 20.13788202644336 21.024435696364293 16.702347272635738
K 12.63527778939045 13.180680708132336 13.95371481428984
K 22.95024176593243 14.577273388638119 10.529961626131247
K 21.892370286105045 12.019827150983655 19.04815415830336
K 18.543151064426254 17.24896000609692 15.287866442698657
K 17.500692169812663 10.810999265220264 20.82685123312813
K 18.803730912467387 16.413223865506996 10.772111558592274
K 8.40387468575559 12.05860333033776 13.031583837249553
K 18.049282981362204 20.54896702877303 12.47919978890407
K 10.549934441007919 19.25971535098199 12.272387896680227
K 13.830129849117712 21.99476517288361 13.042823209815449
K 12.968827067495772 23.397037411864474 17.51005355745535
K 17.513068392470977 19.00320658622203 23.671426109050007
K 15.176701869118185 13.923331149308543 10.1013576090527
K 15.56247298476372 9.878338175012459 12.72658255236623
K 16.802978592576327 22.60029386114535 19.88628647300927
K 13.837299381849544 19.3124636412105 20.535391820353748
K 10.848746460835018 15.211187861791238 10.595132962746334
K 15.672479363067465 20.097465727448053 16.47595966240135
K 11.405967073153356 19.36451442447576 16.721910264387525
K 11.562661794873666 10.731683662211898 10.37053612529912
K 21.947161742420825 18.336490911565367 22.702515680178898
