43
Energy = -35.30393262 eV
K 9.55765269924283 14.127629483330466 13.689470486587735
K 11.573964285620697 17.465551239303565 18.66862415322627
K 12.9933491767699 11.15504156684019 14.059272246486913
K 11.089227625964776 12.98815055673713 17.77893998514303
K 11.45318465908297 21.328460847446532 21.26088397030179
K 11.435333916556193 12.588594905675691 9.976611227508835
K 9.925393561006116 18.54888782617653 14.45804558619544
K 14.48459897777657 18.22728563424183 22.011023607035604
K 15.14323512648934 10.855147420952875 18.246830214467124
K 13.721659487126514 15.641578140177385 15.137116556164047
K 11.44305561784623 21.99340221791309 16.90969556756334
K 13.655895666413832 13.83363646749285 21.509917332491998
K 17.536153450202985 12.558629468901946 14.831183550929198
K 15.61816889218687 22.783515166730012 20.998453338148448
K 17.527471913962625 19.844117075459177 1.8840972991652245
K 15.593080827818994 14.119482259897142 11.118624079211866
K 12.182903393239073 17.030810524084817 10.751079893363837
K 17.141269409322025 11.110185693158181 22.38514608321532
K 15.415074592344359 19.688874442922 17.543140583045567
K 15.24224007435867 1.1935854174489302 16.371966649283273
K 16.774084455877116 15.240823844378871 18.648148081454142
K 17.982902616309765 15.5182340360713 0.3818557344897264
K 14.077842559788587 20.18339477392344 13.371031786486302
K 17.10426241372238 18.317999207514514 10.378747729459432
K 18.705627607235165 19.25201334993907 20.41098805677233
K 19.753280531817275 11.461855984937273 18.692248472743934
K 21.32399611284594 12.24783494201294 0.06313979550657274
K 20.162873227498412 0.033639131494703 0.001884252365828208
K 17.858619546197602 17.17394107514404 14.550876303469604
K 19.134779288100415 0.320194705186469 18.22187181770125
K 21.251184318015273 15.60044090232687 20.008216378402025
K 22.071392667512836 18.70760902615337 0.41740740506116747
K 18.181613592340216 21.68662308560152 13.80098905118725
K 20.180739594225305 14.92852135034064 11.472908486042924
K 21.26839654816636 19.060658256071783 16.761689915286563
K 21.641492455891377 19.35092391381233 12.189347870657937
K 21.578808594297115 14.465618991114605 15.791845332354393
K 1.8907918565214559 15.243999142352253 0.31749076236721696
K 0.37590796447017694 21.67763247955284 19.83127591249716
K 2.218129534318597 17.517635420233955 19.08869407083791
K 1.8843234713492112 17.151442854304477 14.398216414183292
K 22.253872923928164 0.28417655860355634 14.910479915756389
K 3.0123104027290544 20.92619347361905 16.320343655931232
