43
Energy = -35.57064472 eV
K 14.66749199613261 13.356022038839717 8.039697925992678
K 17.535002878047028 10.28114422089897 9.44616852420863
K 19.03360656148823 14.896364426065293 9.99144974279094
K 12.964300827655181 9.994436624679787 10.435276043804048
K 15.23113048798206 17.168901197030923 10.694358722458192
K 11.62126886444631 14.3565470503745 11.493934009783976
K 19.04096396978177 19.261019116988493 12.037942485120686
K 15.041341285138593 21.71005036100204 10.589207417236802
K 15.777717628428693 12.894383048321084 12.23811507989539
K 11.321775124165343 18.935537333148915 12.470685300050041
K 22.510199000619643 15.780319994434814 13.281795488045127
K 19.946821287068207 11.674159470762522 13.056229501121445
K 16.034074395633542 8.840010958697983 13.62528015778388
K 18.42927979444199 15.801229364752745 14.530616337331827
K 17.949126078114187 23.073858835458168 14.380673166151245
K 14.222524766999516 15.745331036303044 14.852813160814478
K 15.013524780438898 19.834943122751415 14.309777185307171
K 12.508235057209149 11.487601693709578 15.019104362053648
K 12.623185887284134 23.391154102557167 14.000673728208843
K 10.242674519285808 15.717637331388612 15.953857511416148
K 22.168243144579243 19.75141071924641 15.556890927514145
K 24.361959539303506 16.269616564255447 17.528827310731458
K 18.297333960515665 19.449121232437044 16.868708508473418
K 17.093407277214812 12.041490179297828 16.657307142284576
K 10.911246865497521 20.240537085365634 16.876038108034603
K 9.925349529281103 11.955513270028652 18.82973377784278
K 13.987519881992155 9.651679693837032 18.974613103667306
K 15.050343463803852 22.54431861835702 17.87866079985729
K 19.967256892090326 22.766490909221254 19.01650427579023
K 13.808089774640187 13.875032553320544 18.716724010826315
K 14.380110179718333 18.067687451246762 18.321081751611413
K 21.530717219570136 18.671885793696504 19.96893360518427
K 21.31917358401635 13.298413719251661 16.958126386438202
K 18.13081985189691 15.804898356818866 19.0811809976849
K 10.530151345008766 16.320134845565082 20.43411903563736
K 17.179762912130197 20.04536330775005 21.207309665993446
K 17.203337939708053 12.41169817930456 21.407969854676463
K 21.90561272749866 14.29763879821728 21.088295244011654
K 12.42753648095989 20.333190013168895 21.23956006525904
K 12.416681282442363 12.448518968297472 22.523219075762704
K 14.780516200387355 16.296756393352137 22.426629031944916
K 20.67941744531902 21.33157838733697 23.45395856962654
K 19.19812562608862 16.893331946485233 23.50491121559586
