43
Energy = -35.61824481 eV
K 19.71877552617829 15.220598566973072 10.64119941080458
K 14.945954276239775 19.73395819044545 20.61318359529885
K 11.597299066199666 11.223354920198844 12.652287065662739
K 19.89725857545918 11.228388744830466 13.058567259643874
K 23.806262077348958 13.571503112725619 12.343830205445675
K 18.50874621898046 12.29774500599299 17.563427127895217
K 22.13905530645241 15.429321867788055 19.62064900591548
K 17.718364458340215 21.177509493705166 17.405756078867494
K 20.285931728482367 22.47112059822348 13.926839088152668
K 15.565738992009699 9.96073508130696 14.811736965442433
K 8.50992011635771 14.649835866943638 11.532751179905185
K 9.949487597863106 18.28913458079667 14.45750706259163
K 12.600954477617064 21.612741058715557 16.913157093256327
K 9.22953358675879 13.859370561870255 15.935037235596562
K 22.877101831007863 11.579227093205006 16.612779680452835
K 15.137368983288946 10.345297682415938 19.792329482737973
K 15.87035493596771 12.168596168149074 10.528821718368404
K 13.504829890984198 13.424664334606703 16.598399142477355
K 15.367676241436618 24.47233753732523 18.84273962105627
K 17.187270417462308 16.699869778362267 23.693565588945447
K 21.148894523446774 15.38892725437962 15.167468541044032
K 11.923961524376724 13.764406100012234 8.683740953220042
K 19.017706208371358 13.016948255715366 21.924958473820755
K 21.653072844344262 16.27983063807067 24.072742739499827
K 18.037313716207226 18.606323537625038 13.74658982144758
K 17.72425182509183 21.133521281732886 10.317984877386944
K 18.296959793440095 16.831570575027886 18.18272646252545
K 12.790070718611803 15.447550306054469 12.775129751885942
K 16.870012655996348 14.48299188393724 14.104235257046723
K 21.918575850023924 19.435204176986176 16.976202705691595
K 14.799054541399693 12.63549197575784 23.768571763418706
K 13.699107994244716 20.249655624851126 12.438078858064209
K 10.86425333887672 18.04233870399394 9.588959423330898
K 12.54259723284752 16.58700199927747 23.214490659118923
K 11.244452225570623 9.735231965427678 17.00343191037409
K 14.511609011844627 17.834577320952082 16.19579542900115
K 11.174336895858769 17.19998831451561 18.825755950240847
K 15.20670752194801 14.966658931475203 20.089792000672375
K 11.200300958790004 12.832440835210903 20.524308122007096
K 15.80897525458726 23.69821821018447 14.18269829337878
K 22.291169269812766 18.598604702834113 12.28853671464247
K 19.917828077278905 19.50052383941273 21.22977821595147
K 15.591517846789563 16.967297456179423 9.804073601908064
