44
Energy = -36.60245699 eV
K 11.258867428722374 17.529999691549506 8.838219772640212
K 12.23166646221522 13.009413744853187 9.413192985660608
K 15.640450888834497 16.79947904455006 9.034960226512059
K 8.514860461516339 15.137676539574215 11.187536195881288
K 18.531766451947774 20.24978020730165 10.490126156097206
K 20.06443357757613 15.604800951922718 10.842324684600932
K 13.966628990945013 20.363166447758903 11.634195477019468
K 16.62271490748571 12.988658451498607 11.134069066033213
K 24.64980973334535 18.930131827174765 16.164454596413414
K 12.806726727698296 15.701592425360126 12.580252621514912
K 9.818342231997288 19.10447801342484 12.845048022347354
K 10.328128565356476 11.683984571870786 13.226264680747617
K 16.64156337342441 17.24795177816598 13.165085085242753
K 21.51983097989044 22.537900435106526 13.2283584483752
K 20.874548990926083 18.41817081292435 14.020615150728991
K 17.27946387536425 21.790452881821217 14.528978621802946
K 23.336844191530943 14.586413195135675 14.744840767598275
K 9.932178285863605 15.52391910502641 15.676471992291471
K 14.449387764577173 11.332972554690429 14.31658787572577
K 18.76907912328544 13.901497035248642 15.126663442990132
K 17.610991621813657 18.257513267485972 17.017241172223045
K 13.210535284327772 19.399601627249737 16.254511390540678
K 14.444403781353396 15.038029954218112 16.797399729214934
K 21.55864947944358 16.656208226383992 17.962924828548456
K 25.324831331186473 15.153467847716012 19.141677717267733
K 21.57910215909576 12.327374828485079 18.577264524330097
K 16.461597625478692 21.903702621906948 19.17481614840459
K 11.699533174485978 11.893171160998863 17.90327198875925
K 16.358397759243935 11.081513533780972 18.315564087415996
K 23.745352831183077 19.180552307474816 20.95861218994293
K 11.05054529605325 16.295221179439995 19.849554210052666
K 18.04245521203867 14.747096503058955 19.640599187956052
K 19.30323932490395 18.738566438902357 21.015834481939944
K 15.018904509015117 17.749561525400583 20.37315153598304
K 20.88555978246636 21.304052107693742 17.596902797951053
K 12.154950612540421 20.715832545079163 20.862446319117037
K 21.915878468870094 15.12933509557736 22.3373647525904
K 14.188187627159248 13.5080368898183 21.60313947832327
K 20.59640864013793 22.496134357931396 22.165018489562524
K 18.54256370208791 11.642527981078565 22.39372120027274
K 16.189779556082144 20.5577087089642 23.56252174017045
K 17.383884122917117 15.941396747191646 23.897726020447145
K 21.069955446835237 18.870093016986907 24.822302055401348
K 12.782477274527631 17.326339447967953 23.933665719110845
