44
Energy = -36.38074172 eV
K 18.63785880059897 12.37410884945211 9.169231981179008
K 23.095753572678785 12.920462806862583 9.669411829632246
K 15.87102220596347 16.6660036093495 8.899943658226197
K 20.607612845848276 16.407574868176187 10.480217894208229
K 13.434927978240061 12.797319288262077 10.835962980801437
K 13.645648365015393 21.13738795526676 11.06569920883297
K 17.064505921182306 14.577376541828547 12.429124175829454
K 17.485302275104104 19.220938699027233 12.320902299845129
K 24.154693758495625 15.475859853938417 13.262753185935448
K 20.835964345437155 12.126005517452056 13.301717112650543
K 13.106340522550408 17.0935497691571 12.522137014380295
K 21.80937541967273 20.268665378290372 13.73279739698258
K 16.424154660876553 10.229504904283344 13.51110100070969
K 17.918067803951832 23.35406339464004 14.242479285880437
K 20.33211743603963 16.380361676993434 14.895950038247047
K 11.548154188154797 10.390414591869131 14.509449354296688
K 9.616051887370737 14.772918031679747 14.450036781543698
K 13.818393382663622 13.573759646047755 15.212894145205452
K 9.988398706860348 19.766644215023483 14.495017434975525
K 16.11509352678015 16.95254851136672 15.806325252958565
K 17.984972446997602 13.043959979000155 16.512710014589842
K 14.276223433561288 20.910038482750952 15.457606991383718
K 12.10398696077482 17.146193857647344 17.134952751359467
K 8.303982251502495 17.665095133648773 18.896403100040736
K 19.573697238166385 9.278689490722765 17.207506609304286
K 11.537806014554597 21.08446054218598 19.104993516707726
K 18.96704582370446 16.331307983506512 19.13227195292701
K 21.089508702013653 23.003645555111163 17.63569598274297
K 15.386039437981452 18.956065862995253 19.62429493248749
K 9.274908088025535 19.950407506284833 22.661934691814928
K 22.700048932910857 18.389941133633457 18.11465376307607
K 18.615004691421177 19.97983788667964 16.785375697419063
K 22.18209549032702 13.543723470184185 17.894411788946467
K 14.99592692035896 10.265458562502538 18.24519946968076
K 15.031767156553824 14.568611849590596 19.339307097070098
K 10.948626159120092 13.058167239540058 18.697481744689547
K 16.393010567869545 23.110936337510918 18.98360687544953
K 18.53520645430368 12.220576336880894 20.918738949215733
K 13.740866759287439 20.796958117344982 23.093344699198237
K 21.686213059598284 15.922939719546854 22.21035493236147
K 11.975986404614792 16.675397745314196 21.678228438565
K 19.388699945643406 20.109796499869717 21.291495323664467
K 16.802340733384007 16.327261264526232 23.00801661209148
K 13.991805147905607 12.170267758122066 22.553468456959024
