44
Energy = -36.46661192 eV
K 13.315866277895376 11.577232521178852 9.967029199307394
K 17.00736299492877 8.758621018310524 9.184865362319627
K 14.49598690680276 16.033392364664035 8.705860145795244
K 17.796985698405916 12.879771988603252 9.813282247803658
K 17.25348637370631 20.348945098486706 9.115706255997205
K 18.234541379348073 17.041664563144955 11.478472604357579
K 22.06171622051195 14.635775944837858 11.409820736805397
K 21.704021075664603 19.77618223390227 11.455322272923777
K 20.70650176647729 10.261620567307594 11.956186477187035
K 10.718739732802582 15.115708077586849 11.854865904000029
K 14.793966343650478 14.559233895726623 12.810365193320123
K 14.017025690121194 18.77000205049492 12.069063309227275
K 16.015226039248006 10.169001765002765 13.256979782059458
K 18.825129420978644 13.614730099292988 14.060741242529852
K 11.618568171642087 11.717832980685492 14.604449475952295
K 18.00976751330465 21.03677050143149 13.572192047730361
K 13.41206646406488 21.409655372978875 15.336171465294528
K 21.143925692388297 17.255741663756645 15.07498761268345
K 16.746241694538746 17.690938472386666 15.85931832995014
K 9.74406748981018 18.98776997478477 13.931375319294114
K 12.601258319127115 16.641193268229873 16.176002753245488
K 22.64117020343276 13.074050195526846 16.052091437163106
K 17.12877363817005 22.71945136181427 17.678226794937416
K 14.256697856341173 8.984506170917388 17.586035092535933
K 8.661137671982829 15.30218445169352 16.530025318825533
K 12.664428656739878 23.922321048830415 19.096379076721743
K 9.893163079802438 20.208685406739487 18.183685305124417
K 19.15721769103724 14.72777311607976 18.171705086396663
K 21.502364097331586 12.090236347396266 20.542003791212665
K 21.370312878599997 21.072444274842603 16.794986109967102
K 15.410255666172734 12.973999285343686 16.604588135279627
K 14.18542473634918 19.847526064999098 19.205467328695903
K 18.652565799635358 19.034706466202135 19.81898338687874
K 22.652271430606536 16.73318641032157 19.357971746282406
K 15.332311936863547 15.800743976027988 19.71326454229832
K 15.889941309568135 22.733749783307548 22.055426084445667
K 11.926890130848653 12.697930580805954 19.145986424381466
K 19.013149918499135 10.250827594189753 16.960527205602983
K 11.132388350015207 16.872018550846594 20.744217691746538
K 11.447922132327802 21.275488312357606 22.351568556672383
K 15.206531769128013 18.465752143128455 23.218417450146752
K 16.779539605874465 11.472036357997263 20.614884442648453
K 18.800588193031732 15.25109328615355 22.509574020913558
K 13.950596003233962 14.085598412694198 23.249021254348897
