45
Energy = -35.74294991 eV
K 11.975173363028805 13.442958316358723 22.035125394346398
K 16.27336426273024 14.392179570715076 1.106838167513431
K 9.243695976637294 16.585567137401917 19.561014771833122
K 13.111655616441151 17.88111354861791 21.842670437149604
K 17.362480047771072 18.830320746134138 1.5295941238165995
K 11.09500952885865 12.954360558734768 17.680065457953923
K 14.394214797010536 0.3808419560849468 22.03292218358646
K 10.306790647468773 20.885232543916782 20.15052570339093
K 8.855871686206191 19.98846367613943 15.85357294368158
K 19.875563061497978 12.1796125418044 20.83202365602075
K 15.54115065629118 10.885766136236485 20.289371023850876
K 8.155255852106313 15.564532638943085 15.140253744336718
K 14.940034988033016 15.072505065260193 18.82794679576045
K 18.913759980670463 16.633224359326338 19.95913390534351
K 13.29730425619795 0.3602358702043595 17.351894163147662
K 16.12228866919049 19.617792360240625 19.2696110854374
K 18.954398584066823 0.3774227562548472 21.75939888296037
K 14.819261204783901 11.079866685814343 16.029448144145015
K 17.548245021586222 1.664971272438008 17.71185546098281
K 12.579187660317563 17.933260936436245 16.646996922136868
K 20.66145634212525 15.343946122631971 1.854562404371625
K 0.9262184250293897 11.632576118424579 17.69543233729797
K 22.09766002662657 19.18938328789358 0.12982122270945531
K 19.14830502117802 9.395295075369724 16.626014114953907
K 18.635859867005166 13.611912687568035 16.825148456605785
K 11.956116230193851 13.099207168896946 13.282085863146452
K 20.833769708029056 20.30533704598244 18.0880658838825
K 15.637599526209295 15.717994341288057 14.374065731680236
K 21.003542013396288 1.3093464713281537 14.783599710284182
K 20.69173940958975 16.966034945068973 15.317916933729043
K 11.438233078651024 17.332501236559736 12.221868063720109
K 12.648560499832893 21.402255606498137 13.293096644351213
K 0.9474409148993096 15.88737664670033 19.323385995605033
K 17.120503504048195 19.737216787149684 15.27972177220684
K 17.355223774360912 11.814844030837854 12.57390136314187
K 5.164129280930723 18.098047892775366 18.06822911032743
K 21.74581577823073 12.880495795491635 13.624529895831621
K 16.74633758303232 1.4435287057393067 13.095095163428834
K 19.036464170198993 15.851236830875427 11.242393887703598
K 14.7443191063096 14.753246003430682 10.003212740389378
K 2.069298849481895 19.73041601462569 14.797126989357624
K 15.842362693740727 19.17657968959952 11.076892308607716
K 3.1606973622834262 15.13959182530799 15.450700519600781
K 1.4447102145840693 16.61690330956862 11.479179848281825
K 20.30659927325975 20.147100346230307 12.01031718103869
