45
Energy = -37.15261988 eV
K 23.10381947630619 13.739050288402128 20.700195965343184
K 17.958393333386613 22.088751532344475 16.790234388220323
K 14.798758655147052 7.6799794986191445 14.062834326311027
K 17.39054589287743 14.33069393731909 10.549759295081966
K 20.937339831285836 12.012823427348675 12.86307075061306
K 15.326746224671762 12.071571347537056 20.228668527065523
K 13.568478683980848 12.137640161519569 12.55905857740656
K 7.293779144843046 18.097400125970225 9.580813812747245
K 17.342416513192468 9.781244955997629 11.054003588972812
K 15.166351916597325 0.06417687883784479 17.56759204716219
K 7.915998726339067 16.796526636664428 18.43956870482972
K 7.814548934267801 17.75194829752991 13.92614145370524
K 12.664862238909746 10.345250857218776 16.98063850027125
K 11.085414499615634 14.094451295733203 19.931195456175644
K 10.135504085281267 14.11807567888839 15.208592855836342
K 14.165248648230156 16.859820152124172 12.88845754702655
K 18.903535834684185 14.807423179851302 18.825721629705317
K -3.824644326352409 16.633006534727258 11.941073875309202
K 18.078159843353244 23.647052873497284 20.982092826567204
K 22.082054599234258 22.311318647500986 18.615534130110312
K 11.182449741707588 19.743092629267277 11.581739274403228
K 22.753607186605677 14.767574509566106 16.18391257377994
K 14.103030529244558 21.32574564983076 19.384854574937094
K 19.381143620181792 11.230023037549138 21.639588392142997
K 11.583007844170128 18.445495208732936 16.511561792437107
K 19.18841166816625 19.135940839617252 20.42685608303707
K 19.878060916455077 0.7183957226534329 17.25946338411108
K 20.959854604650204 18.805227783755708 15.973166033291823
K 20.980840410865298 10.847536423897218 17.48460840663418
K 15.04937086492257 16.616417442201403 20.833767393745358
K 17.732944203902402 19.83854047640352 12.615059299496243
K 19.522130623028257 7.67083799192884 14.471897919915833
K 23.645316509302006 18.042417326760212 19.569778416337687
K 14.22487656741328 14.54006910061364 16.721238810872237
K 16.181506958396074 18.358593661014414 16.900373374149233
K 13.938670361107746 21.802063226247824 14.48763919798025
K 21.24152744836482 22.895915818685246 13.845898886205484
K 18.314356147913173 15.409198426230063 14.549517564067491
K 17.030885857335065 11.434320899155084 15.44616199367305
K 17.00823281793075 4.034981369004641 15.953162749535855
K 17.18239228235267 -0.3256996296877498 13.4091718588665
K 11.037227827048318 18.436653071340846 21.327887931305824
K 17.051890941734413 8.213655116842407 18.432867361874855
K 15.880569522800757 20.27682773090804 23.28448203971207
K 10.544251701073266 15.216148245481545 10.841812104996047
