45
Energy = -37.26574226 eV
K 14.882380991308498 18.516308219384097 15.131833392634642
K 12.408010424927499 13.99103358722714 10.189635270603027
K 13.025267360632595 21.8970847542305 17.020213037185098
K 12.94630917563296 10.289906062700226 13.270570848428815
K 18.362049442685937 8.094214679721265 14.008654443875287
K 20.454540076709684 23.071964998768546 13.638646479597709
K 10.822039717573636 19.69438098650553 20.74066191333968
K 10.098142743461931 23.86792506573533 19.26894327562649
K 13.900475921007073 20.164140425661756 9.911395861293903
K 19.38344487358784 13.619412119877078 18.426090251563085
K 19.418532376473635 9.253795169631466 18.510340918737242
K 17.978492762887395 15.190664665712955 14.631481957560863
K 17.520633544717924 22.048218681104572 17.457315540818236
K 13.698329523365015 14.452003980867085 14.113091325527707
K 11.133058713510252 17.759772678387517 12.82532928194009
K 14.843182565982293 18.93177156724389 19.653333630318322
K 16.086663438492135 16.713023902747395 11.007431921977172
K 18.516412670985194 20.37326005121526 21.66002930873042
K 22.64459861622693 8.142452338351566 15.861286562528766
K 14.75011057612876 8.056162004825659 17.393007299574247
K 23.244795587020686 11.799029120776332 18.424058904265912
K 20.618144617761125 15.884544787168393 11.321924685606481
K 8.914696476974362 20.40584528457634 16.414350427061716
K 12.125758406162326 12.038386200549219 17.644588656446498
K 15.995163951153772 22.271346214933736 13.121826929361731
K 9.570714985267086 13.643019921299913 13.929526580223367
K 22.282037591566425 16.099648929696404 15.844794762724623
K 17.445838724040375 15.802066431881384 22.15448894360712
K 20.400563818391806 12.113533578927072 22.17712013532606
K 11.14312013453838 16.634750232359576 17.284782665666313
K 18.902218752845723 20.297809229249534 10.02088190512601
K 23.07299505447312 19.563777726596793 12.651525675466505
K 15.866739166897082 11.554408485552969 20.602049098167186
K 16.90777538159411 12.204884853427224 11.533285735757044
K 18.68271793481576 17.84469093353106 18.166796095139738
K 14.193174770108389 22.90700209648827 21.17844313766227
K 15.252587879081617 15.057551072268298 18.095103159352206
K 19.089245100540943 19.156084138331526 14.098234616872661
K 14.508697252071748 19.05582167914779 23.87432950634509
K 11.272808482073136 22.241767472718056 13.083094383444882
K 21.952176010420903 16.33404014868805 20.696184312173422
K 21.933110600317814 20.505725267493574 17.344171804863155
K 20.795602647150123 11.840213805037841 14.376967467498803
K 16.408284293693857 11.446919082724234 15.89857409024925
K 12.764177718860825 15.38545822079444 21.559424653850204
