45
Energy = -37.24500274 eV
K 11.328134771986804 14.821105975924729 20.80315487252246
K 12.456040015977587 11.179291962652824 17.806854125536763
K 14.271680240411355 17.0628371187007 23.521950443723302
K 11.6897771088431 19.336884435877113 20.048255231872222
K 12.071392272923616 15.809334674090163 16.668935417326363
K 15.393383075974167 13.011489862950038 20.786536740833505
K 16.680737609588846 9.287683871297924 18.207498820376415
K 17.422512694527065 18.562895987882406 2.5971505056728175
K 12.033447887540293 12.466175185654807 13.513170574809797
K 14.603677586705203 21.521232547162562 23.036564969749623
K 15.30910953945917 21.953150618792876 18.551867820794623
K 18.593072982451197 15.295653988722565 22.87872705461066
K 15.575133861080136 17.45402950453107 19.285842509016526
K 12.446500879409056 20.09721805227005 15.428293191348443
K 19.757545508844995 12.069168878353624 19.56786129505631
K 15.230478936850554 9.480179218554223 14.131112628866875
K 16.157790293541236 13.737890770649438 16.350419501275088
K 20.41469556381264 20.42304074168482 5.189010030006157
K 17.868663903342167 22.952803799360538 2.1444174727397227
K 18.2241271488461 0.36317807310508987 21.370512697296405
K 13.028120324759318 16.618059553303027 12.251494491007186
K 18.54023785920678 19.71202260228024 21.921758869121184
K 21.863494804679522 22.285571849045713 0.20570057908565556
K 16.442715015564456 18.16387250533679 14.814525661689789
K 18.94480137807087 1.4843005158136724 16.750774668863134
K 19.697957646804767 16.36405590897389 18.260226380658718
K 16.342795570744816 13.395930091482064 11.918836091408746
K 21.751162308116264 17.94814653154449 1.1168760671965916
K 16.37774372877841 22.688010356058662 14.15223437919334
K 19.54601328013049 11.166258144563951 14.945257140574661
K 22.89456532607662 14.861636551386331 21.27913804372316
K 22.758269625851284 19.303619512512714 20.45675685758033
K 22.288726875409694 -0.005680002224871313 19.498195052521666
K 14.122955018714775 20.772927005655042 11.117597748918262
K 23.022905072530232 13.746225191169488 16.71767104823808
K 19.457130652879155 20.801675900888185 17.352339029643456
K 2.0356162602182257 21.220351851655614 17.823998139687824
K 17.2012656861215 17.598457112746157 10.047807662436517
K 19.660581947259324 1.0157832045534114 12.057243234939039
K 19.981837696740087 15.632319793033956 13.703080192253577
K 22.80390308171198 23.181504648842264 14.926711691845927
K 2.2415793536575666 16.72343277438731 18.570429577931794
K 17.837895928497282 21.90403136225971 8.6663650641418
K 22.983656658869144 18.45468462472417 15.67038997878264
K 20.02347438282149 20.275616748758335 12.498310738043125
