45
Energy = -37.25180713 eV
K 11.947683115047257 18.24689423016501 12.340732680467136
K 10.40000572994203 21.777760568870026 14.873768637146194
K 10.228841395699073 17.510469314319593 16.7532361116886
K 10.615321728847348 14.144572751083341 14.108762604376032
K 13.818461224269441 14.170374890730942 10.815659388406873
K 10.822729868124444 13.18967980535842 18.614300790111635
K 14.301030488823846 0.03977632035377202 12.832389020860223
K 11.148610633594378 21.462417992904378 19.361190059349383
K 16.347736054768482 18.61177084579836 10.615341122108264
K 11.244516710824309 17.329734015351903 21.063505379730607
K 13.938163451198847 11.54933920851489 15.259689971293408
K 13.41471395197504 2.289891382914383 16.783045645996605
K 15.054835269812443 10.955874916390611 19.702933821177393
K 14.19639942467196 19.783123683272382 16.761811315561804
K 15.280057308145489 16.017163670738235 14.362003483708019
K 14.487851305914218 15.456615867112586 18.430881165258796
K 18.22825044891331 1.1259211679840042 11.025349536542235
K 17.49432683884664 11.879189018500586 12.509828194653386
K 14.508443792174411 1.2928396439212186 21.19911385495647
K 17.163063385094716 3.6935901775903437 14.853033975367461
K 17.921701995894733 20.327478529258094 14.324902188468515
K 15.62782896392667 18.977576044848565 21.199979011897568
K 13.807447849592657 14.150790678246894 0.3515538146772972
K 16.788388257288325 7.956722128648191 16.449578973573416
K 17.533082781458457 0.3672526124780498 18.127899173814576
K 18.60765435400621 0.1613760982162895 0.31455443446129155
K 21.201884025264835 20.071396032592443 11.215518039130039
K 18.644720952719226 17.678079045363734 17.68429232962736
K 19.389792313982827 16.061793543417558 12.979019789392067
K 18.252369173592463 14.484440316829545 20.684044538606148
K 18.215856471357448 12.973360038373519 16.691264338969543
K 17.46793280928492 11.516042601112765 1.4895566449381525
K 19.324639003274658 9.656187021740216 20.070901911277144
K 21.953615122160404 12.270218719297583 11.871801386301762
K 17.14304968338284 16.006168263057972 2.5761030185883715
K 21.049735471372575 1.0876276937813325 14.881997513292955
K 20.096810708727862 18.26957217178156 0.1056325950119955
K 21.581293597008024 21.179679480378965 19.311632350367823
K 21.09120863187249 9.689281950637428 15.656704633065019
K 0.024827551184870754 18.95547768172634 15.422619001503929
K 0.5189185830747007 16.534349927158598 19.54294242465634
K 1.4890898712268188 16.382397896136585 11.876914640231712
K 21.570765005656757 13.786310152984864 0.9709986090512003
K 0.004196885934533167 14.343497058844585 15.732521107423256
K 0.5514799331801631 11.926628361467326 19.367715290266126
