45
Energy = -37.40616159 eV
K 14.832801905013973 20.20739487543991 16.96755982773277
K 12.689707468826516 13.329875511532938 10.976286754208383
K 17.478603379491194 21.48383940701147 13.341361573318984
K 9.732016477162581 11.184099323273069 14.064320446905437
K 17.825730171426336 21.31204595242892 22.513181816816648
K 20.229893693716686 13.668088324623945 9.325491014005335
K 13.362693022223077 22.23191214162184 11.262233426061837
K 16.219294765991446 19.892742293199255 9.000456969451053
K 13.903036291650572 24.137293397127245 15.219505572241353
K 14.632608688948254 11.50602419825148 19.433672979969167
K 10.453607847825538 17.928482791329657 18.424582997038478
K 14.176652564633999 15.897926240923757 17.324296569175893
K 18.322512253449496 17.534839691530106 15.478353115087625
K 11.507246387514519 22.753390342351477 18.947636777968775
K 21.985045895168568 14.879566879859254 13.708658041388679
K 16.628537211808432 10.81069763621883 10.143303906923778
K 14.80676543389205 17.610620340962516 12.996453107695476
K 21.629278390216786 17.283572114796815 18.428001425273088
K 11.933008620418953 17.965919345812154 9.942549316988343
K 21.684714034395235 13.373398942240732 20.56699562496586
K 20.694742664113598 10.307457552304722 12.215340541048793
K 21.653780187231355 11.181129538152062 16.443058975430276
K 10.678681186685873 15.727408454160557 14.24917456177846
K 17.477442420724266 13.696730510671504 22.334183798067183
K 19.163438955425704 21.260959573333206 17.985394683392677
K 16.02992647913066 15.44313482512414 9.013250135448805
K 13.582669477503837 19.64379913552105 21.298281312936155
K 17.278404618743718 17.493405712017704 19.997443585528938
K 22.048831609424358 19.524044282748115 14.449732090904968
K 19.540751783944323 17.84380955020557 11.002875666753381
K 13.94672486724839 12.427431351719733 15.050229870022331
K 20.44934306446069 17.229426547282088 22.989257884423566
K 15.790177630778198 23.98388185404767 19.495997904209425
K 18.77619890141557 9.839792459144807 19.714426323975292
K 11.195745081066963 20.248733547589275 14.479008117344442
K 13.728206256710985 23.31764698208938 23.40949822682208
K 18.242144883630463 13.706089857671824 17.572868684089908
K 13.04094950476202 15.158698475420845 21.63823938803884
K 13.379672358437231 8.791870806214519 12.581020575768486
K 17.636064903150757 13.845864885575216 13.044829213001437
K 24.78906876429039 14.430103818446323 17.175343888957418
K 17.285200273425314 9.588499047763388 15.234538013599016
K 12.167409691631224 8.706274437515622 16.972081060448044
K 10.460165533487707 13.031632940047443 18.228534000870287
K 16.039517521374705 17.689457227270402 24.46950335649511
