46
Energy = -37.90047565 eV
K 18.045317546518543 22.32282218968592 9.921613562328384
K 12.052435458469697 19.569453989842522 13.73334847910781
K 11.298042390429426 12.265658673198313 16.63536573818452
K 10.263109159521713 14.770816274003241 12.707768337250677
K 18.287301218993605 17.147738486523032 9.453753451961173
K 19.481640875178222 21.582651930142536 18.748794036350372
K 18.482334473032225 11.08811574401246 13.866125303962189
K 14.626306584032367 16.176090034445846 19.915117874006928
K 14.039693703151746 16.208868508663436 10.739680950585425
K 16.73846189872102 17.303012203043107 23.90805407383785
K 22.94090980034141 11.624925885184693 15.633379998466554
K 14.033149259535906 12.203380608233743 12.983873141387276
K 17.860456250040237 13.32651930312457 21.404051556234695
K 14.844350254660384 8.954548118177089 15.966499295614911
K 19.87073168852073 14.364601966176883 16.78709657829861
K 19.96173820358414 25.678643301796733 17.88992650260127
K 13.826942226277977 11.291749684271666 20.209133591752572
K 18.933779903997117 22.837397271224415 14.429431353600744
K 21.190753549228855 16.151438437071818 23.300818859037893
K 12.44639813624223 18.439168483631494 23.182077945867977
K 15.771365067984194 8.532724816549129 11.486196226126491
K 15.673115323508215 20.60576955553635 20.99665747603484
K 16.490396912659453 19.53535086260314 12.547580964195136
K 12.024478500846064 19.673765738344773 18.512969974438786
K 17.160315426423903 12.745759069553763 9.853497918977618
K 18.689726098900074 17.284039232494983 19.743670412963635
K 22.709603163409923 18.46673700424946 19.621885239933736
K 9.099115974195694 16.678545751962808 16.45636508594355
K 23.72991869958748 16.272847813267585 15.755164935234905
K 19.94112216011359 18.453976579848362 15.569428706618499
K 15.665102793536562 23.67989029272874 17.74397725174857
K 13.472151232302126 14.045004000652943 23.624476704711352
K 19.184818753268843 10.286889322009054 18.257113390657366
K 13.308780402999624 16.034125996567234 15.591746414885314
K 21.23250562822465 19.728412018171426 11.798884887744057
K 14.72262751099571 23.411002902207848 13.235506192614661
K 10.634703330646424 14.949961064379815 20.31871947615165
K 17.15286049708632 15.495738178256545 13.619053266110784
K 15.928805752483225 13.070640763418167 17.10131978138571
K 22.524490909625083 13.54144671615766 19.8628389657861
K 19.84115867627344 20.48016992800143 22.995284975989552
K 21.164491643557955 14.744432796398884 12.349475187655056
K 16.000978923659318 21.59239766609069 25.118651276799845
K 15.945313713371382 19.343252947692616 16.721610569598784
K 17.85785267299399 24.447476758925333 21.81715727141431
K 22.89582033197817 21.637513812588036 15.930329496951781
