46
Energy = -37.16903984 eV
K 1.8589494819810455 14.76276267921873 18.976081103630804
K 1.8015313441306826 18.118072600784693 16.52058489562075
K 0.020962175485354933 21.77193492582234 18.24279000227416
K 22.98814180691226 1.9969765843018976 15.360284160608584
K 1.3030925665417243 21.34542591993744 13.997889564862815
K 22.578575977330875 14.561929797922364 22.41087433560533
K 0.260655795688431 18.444712590725988 20.821282133769284
K 22.75579319293663 11.37439306159884 18.17919763103536
K 22.663499624925826 14.536289339717104 14.93027141187552
K 22.648543750196477 17.757675885460483 11.904409269286994
K 21.73952146398913 2.3908375232006187 19.572728858910605
K 21.631335711005597 22.071104771422416 22.316673596205295
K 20.810775932326607 18.11557680498972 0.9843231479327488
K 20.77287870234537 19.110451590429953 15.598755817600997
K 16.154019105153683 11.554245824932993 0.0332634649271735
K 19.183381490368312 0.13513765794350804 16.663305747971336
K 20.57216425428765 22.812206511827902 12.494860851544555
K 20.5968000275704 15.622823557130427 18.494348154006936
K 18.39427649023486 19.10559337356785 11.653223228260407
K 19.01424035202298 11.709196811082922 16.121038994033007
K 19.3422673212564 11.95284160305585 20.608664477229027
K 19.173790169039425 19.73003498052142 19.424668445029354
K 19.430410565894928 13.60595792920428 1.802562440390572
K 16.269969363097324 22.47966603355578 13.558217532952792
K 16.4144095974782 18.652657341064383 15.944028667417406
K 17.270820406304143 20.215069240792868 23.167812791494946
K 17.804283645565533 0.7825397879175269 20.751326090455603
K 18.607044661653934 15.506441615575188 14.0797048400221
K 17.687996282684075 15.936937745688976 21.880136868222166
K 15.47181808445902 10.43814838565512 18.714617617507333
K 16.2691977415012 14.79344826838199 17.954278912080685
K 15.200434829158906 22.16689366680192 17.82359967442555
K 14.651558680867298 18.278461326266054 20.054152949019993
K 14.709272556147232 16.948547259288123 12.070918616438593
K 15.236383611601699 12.604407376217248 14.224936539230669
K 13.486180499193727 14.004162475202882 21.270360311847398
K 13.878451087034323 22.481229205101165 21.914328712935312
K 12.671871635125013 16.505572595115765 15.836347274359255
K 11.606832178480408 13.717257317140751 12.362024386747628
K 10.475682719953138 16.291719178106835 19.567564456722824
K 12.590872879832542 20.589177998075993 14.468109033156864
K 12.081366957433954 12.564707585509463 17.30624460671203
K 11.268625410363091 20.727319734951628 19.118741889675373
K 9.964783658080274 17.66207741387938 12.2438681108992
K 8.730228888140315 14.65314287602247 15.505567785176252
K 8.750786655811497 18.8236761192045 16.32488386199102
