46
Energy = -38.29822406 eV
K 21.977259128047084 18.856560014136164 16.630926013340822
K 18.39793305503411 18.82682046386144 14.125400696066592
K 15.480845091558447 14.62285877439987 16.321404397083775
K 24.92365312056705 18.941189936995425 20.057637243978732
K 20.17347446532933 14.740823012013065 15.775271048573098
K 21.54182340316604 12.050492751074348 12.472478055248141
K 15.115253145018915 16.775757436288593 25.4360793841826
K 18.42387103391258 22.9965216710747 22.282989298320473
K 15.93946053378957 18.898052615302092 21.59013169164451
K 23.075982991715613 17.40613214500316 23.965487732645162
K 18.529143512195155 12.455155866972289 19.300854262406425
K 15.166562354196396 14.351990774144275 21.49981010484684
K 10.345784264901853 20.366568255527874 17.781257190408912
K 11.324412447737245 20.02467207952581 13.183436342314385
K 13.59769745458278 23.320461927525603 15.929626014350056
K 18.004358606448125 17.00853790525097 18.528764774463763
K 18.939773270008267 19.354514988910985 25.336401940570283
K 17.80098022364962 18.165878278374574 9.593238117807093
K 18.98178015747842 15.488087059081522 23.058093420924365
K 22.31063882318772 15.101259025936201 19.844045989307745
K 21.860884990151035 16.618259708092992 12.070314427136175
K 22.28382357703185 11.136802281796298 17.014959640872462
K 13.426783441817028 12.382590858011879 13.192155607711525
K 13.271256904216234 18.916756261672607 8.759529484641668
K 22.740505705635503 21.907365034682357 23.452641756640862
K 19.696659870535846 13.963876945340163 8.646423580825406
K 17.664020092817953 14.38470404808729 12.347855245847516
K 11.697324978115763 18.897746292155 22.998427501539357
K 15.095676749829904 14.710110128178322 8.438676537194839
K 12.20312998238805 11.333968778897827 9.09574344208987
K 16.640373620515035 10.675287979009108 10.26701140829305
K 17.768787045387974 10.702952031666696 15.068606071694301
K 14.838993689960898 21.484883994457928 25.00633618129206
K 14.512863617527412 19.19140940288869 16.513394864822747
K 24.559094968567678 15.105890181897811 15.879133713824942
K 10.922151095896654 15.48072472058401 10.56572709547125
K 14.446486436854634 17.00438057113982 12.528112580124326
K 17.82747888490631 21.7978396097752 17.77107078469503
K 20.446564136712148 19.268322747140903 20.95954719719938
K 12.510684066033395 12.199209392901345 18.393847658657197
K 15.497533089384898 21.447320507946873 12.101145597930683
K 10.97238055812741 14.360811621589493 22.6923566570591
K 13.697910268463312 22.284117638885252 20.34212662625265
K 10.96950133910772 15.886358373405777 15.224236386786867
K 12.436942081241778 16.717504621874248 19.27379614719432
K 22.282353400455353 22.709322960728137 19.004341759924
