46
Energy = -38.3276202 eV
K 14.857622730655766 11.838777878674108 19.324567225659873
K 19.25579188329946 19.721295788352805 18.14562866875142
K 23.340424733884532 21.18680821826098 17.3909655553266
K 20.246955515590233 9.546947024944366 15.128252744456262
K 15.181232701908485 18.87704756884675 18.69576203071092
K 24.385500122258524 20.816553419645153 12.917568255346149
K 17.82226403373749 17.974360384128033 22.372775147420274
K 12.110651905949997 22.10936589749332 17.803674779519127
K 18.08768568753835 16.866638550755663 15.22175183263057
K 10.603260558825742 13.076073796862916 18.666795913766787
K 16.11019595859137 8.220047347464693 17.13481743044809
K 10.802145650893046 15.778558076870992 13.924418181846987
K 19.910933909833492 24.223885510564134 17.759261686757796
K 12.87032951165517 11.282973083277904 15.14420797715376
K 18.331443856756408 25.341392075635007 13.485292852060557
K 21.81578715212871 17.866358133778107 11.022632854835402
K 19.87769513080471 20.90768293523784 14.107487610305498
K 16.540063724996763 22.511232679461546 20.594256624491614
K 11.96474878235645 8.766480107937639 19.012865800840277
K 14.154558321384693 19.076164832180382 14.516745032026648
K 20.182221412317258 14.052044067264356 12.672393899909345
K 21.37670816177301 13.521458941927825 17.214625582225842
K 16.164120663293037 22.626008325393663 16.066463299678286
K 22.609394456774833 24.543727721506613 14.285511842055287
K 16.292400133531167 22.129863207218634 11.305956147755646
K 22.59381479075118 17.302225359994775 15.27538794015716
K 19.109794354462327 10.533820650311775 19.63334729523627
K 14.070937454178157 15.232481105996722 16.752681553158897
K 20.829674504697056 13.788471119750048 22.265802300825154
K 19.557720242487896 9.632031006007324 23.98712378357483
K 12.737300410743217 20.261884002831497 21.86486730705281
K 10.854924695209993 17.905393544396844 18.17992506968774
K 20.84875437714227 22.536135437194286 10.415325195272207
K 12.612440712246611 23.124728739433525 13.190456607210903
K 12.338282473481833 11.432686912742406 22.772081744834473
K 21.17596002011008 21.392407587142475 21.457427544721785
K 12.552434176841139 19.00739783814387 10.765048893109858
K 17.48982337020302 18.036762523083862 11.04437793515421
K 14.843584602186066 14.769924973239048 12.456759313265122
K 16.62828323460882 12.907572140927767 23.27491664089183
K 9.681910467607315 20.0816695976038 14.393146802787614
K 17.89064436924323 15.086190439974185 19.272534288139866
K 15.734519239762221 8.463544021881951 21.903006957452156
K 17.23883393357416 12.372996941414822 15.580376427021305
K 22.31215842135686 17.24745116268411 19.870854557602307
K 13.686900446208073 15.705312319402056 21.412705864703344
