46
Energy = -38.65010824 eV
K 0.04990131277779587 21.539406974632097 19.330307335972712
K 1.7792256367072234 17.1936312872565 20.00108304575774
K 19.69449620781822 22.061565794093173 22.499328723898167
K 22.959576621693245 18.955138047389607 0.32260136033217646
K 0.7188065352503973 18.7587124039349 15.66115614468935
K 22.02514153140568 22.7946517959753 14.953205828078145
K -1.8444371248657863 20.063563699445265 11.268806046036543
K 20.07031674504474 20.39753015131131 3.8098709827390382
K 17.841527436722135 -0.7770123513817889 12.620407250647
K 21.15496778330745 15.828832302329344 3.31529490217403
K 15.585571064259666 0.3532942763609365 20.974358954422954
K 18.97031418886432 22.43096117785667 18.04287223647481
K 21.47603251640267 14.50228218073261 21.965262889021908
K 20.61320915910049 18.229632078718097 19.49397286387423
K 22.055437077716608 15.826159773915135 12.444472315606033
K 17.858386389720874 20.68689278714355 8.055511591172415
K 15.706958464127295 1.508474049519901 16.408017823834474
K 22.596820185719288 14.747412166388782 17.165880639824152
K 15.904247016072116 21.155235153025753 1.7754583112508264
K 19.59904080835579 18.71246029479718 15.366429791763712
K 18.57955017813966 17.88922166006699 0.15984659573468576
K 20.383107036538085 16.91279607905018 7.841393889968739
K 16.828963372352877 17.43526642417667 4.525365321605622
K 17.532652476231455 14.98770748238923 19.723115511959143
K 16.084086854871142 19.411963087705793 19.869353151756226
K 18.821730958052537 14.246184324304698 15.122269487359945
K 18.928193261855238 13.170917317122267 10.434927825656292
K 17.487937876213408 13.854271313725512 1.267882843004466
K 12.205826675646582 20.968524111886353 22.25393116324415
K 14.061960343336299 20.343795270121333 10.670546919209253
K 14.221470342698797 16.97944963266384 0.02025906785845289
K 20.055567600298325 11.31861925184343 18.557757162725828
K 15.498193770202784 20.402882368166903 15.492353315209426
K 12.21092528258381 22.252755014391376 17.93501210164287
K 15.232539499754687 16.230475333035287 16.04418205521834
K 17.48814449035712 17.45758814252033 11.688092691735553
K 16.769176733584068 10.749061169905525 21.51034832500627
K 18.97172542564222 10.031476472787201 14.19905329747252
K 12.727708179666939 0.03338637801782429 13.491639326422002
K 12.004851568992065 17.66851791653869 18.972274372825776
K 13.308689468324719 13.578623162132015 20.363115112314574
K 13.159540745815193 16.03404563002972 11.70734450133211
K 15.64754773874363 11.309608428145625 17.152301729263808
K 11.458907362752424 18.940136094774562 14.609505845045154
K 15.280243841327799 12.400693903022402 12.899760119427624
K 11.686712086062887 13.902911959428268 15.862363294688716
