46
Energy = -38.06672596 eV
K 15.986370546556126 16.70505575642111 10.955487480153847
K 19.519656457781704 19.749571540184153 10.150961584205003
K 13.570282962614616 12.7160526509315 9.498027047535297
K 11.315563718820593 16.867823776702764 10.377683218493349
K 9.963624606845634 12.003558983043423 12.010302444396496
K 20.091265444817843 15.653443170234155 12.094750804814748
K 15.682471211878568 21.435527387179242 11.220055077269205
K 8.408480745218553 19.654618071445363 12.67071944805439
K 19.603458803225504 23.114651085720716 13.558572631242999
K 22.917040762669483 19.139514391174473 13.022677645826422
K 17.036547027489174 15.47027561517549 15.600857056449456
K 24.191296220420725 14.399785457362528 13.308297653038352
K 13.493253065404648 9.6916380406388 13.35752888971997
K 9.358311409802202 15.924276573435822 14.544981910029097
K 11.488204469628881 22.396483733516764 11.953892694146655
K 18.23020010974858 19.325068060199133 14.438070021047361
K 17.056457827096576 12.08624249076554 12.407137573224766
K 13.364039823426355 14.150812224480493 13.504786120238201
K 20.479780830174995 11.961424862096012 15.111653142861652
K 13.184928240649327 18.7132739558916 13.764128304765048
K 17.44968145481026 8.387959124120876 15.097101198771574
K 14.689321680676878 22.87988236246368 15.228628372356104
K 21.76080599041008 16.348859237398525 16.105225043833535
K 10.878079695791206 11.897873146453339 16.545502516882628
K 19.601863987357994 13.80823173136289 18.97287710530748
K 12.724249033062728 15.770669760522866 17.314386279251877
K 15.057804932987306 19.307418740435164 17.675963517026826
K 10.568650041221881 20.02892841053933 16.907184162659366
K 18.00201775394193 22.496284901036105 18.28104073735027
K 23.806550836860076 12.582243070760764 18.094484455987608
K 15.613077561863516 11.700378551231978 17.367126166028246
K 19.83434789970373 9.558439130607269 19.001416300478514
K 22.98021952801977 16.538632714870626 20.304564365967376
K 22.087141297917636 20.78695035509008 17.08056021575447
K 8.982526220884951 15.174717741502088 19.16310290191642
K 15.860277648489907 15.602761137901789 20.09845248959055
K 19.04928783016619 18.202012858345388 18.829502212976532
K 13.439038790622094 22.611504416945287 19.811919306408605
K 12.179921888634622 18.209343010323447 21.148046861038335
K 12.594088621346016 12.931850761687445 20.90630094773075
K 19.223869051747048 16.056444934163995 22.928949669720016
K 21.8916800552081 12.11571672710798 22.089543495522957
K 16.300682696974604 19.75549002937792 22.07096433560447
K 16.967038956056083 11.8971998804411 22.048738670205484
K 21.06719157955227 20.829888746266402 21.439816725143093
K 14.660319048071992 15.572189059093152 24.148999565623384
