46
Energy = -38.36933601 eV
K 14.641805018719856 17.361085497195702 10.917949281697526
K 12.375664572573488 13.361532981002556 10.863595340778847
K 10.927736414905866 17.31686877480826 8.914776260472214
K 19.228954546318775 17.82636196812061 10.369323060481547
K 21.51557874473582 13.704647900230059 9.134503306306977
K 17.161543644587148 13.608595827732568 10.94514233964167
K 14.956239283441919 10.19325765094589 13.0479773438405
K 10.77853301990588 11.597041551462475 15.366729235849919
K 11.946216675324985 20.72111047154206 12.035430699097759
K 20.51376102394104 10.40702011738195 12.269178887572947
K 13.588023626551418 18.482150525303048 15.341374484822536
K 16.73957833191201 20.996380263705003 13.234927355148907
K 10.303625001765992 16.473488851540463 13.25729634241507
K 23.799697760248446 17.213034523678104 11.235521418283325
K 13.885924425944854 14.172899465508063 14.869791989964252
K 20.9294133368313 19.367252302495306 14.435427056053513
K 20.91246491554161 14.789212422551081 13.163308559827094
K 24.59550821370488 12.816021546518895 12.467295457835398
K 9.74816839288114 20.469727277988394 16.234702731336817
K 17.826593253081064 12.559895523549164 15.372753260085627
K 17.281746599762844 16.79679310930291 14.244291635324767
K 18.701944043430252 23.22464705023636 17.143088949167762
K 18.963920362291205 8.561897088501361 16.124401195470597
K 22.22296118787455 11.844302875029591 16.25886373399665
K 19.904592246057792 15.777859759626063 17.305084539344307
K 13.905894353490558 22.830397610253254 16.313959200575265
K 24.155499818361164 16.214301910928253 15.723327132558124
K 19.21503621133366 21.370552472354888 21.39393479576404
K 17.19165912137077 19.478474309627003 18.001704476257775
K 14.762110392357782 9.999026268623734 17.415927912290798
K 12.823945068111394 19.685508426192886 19.363927157404966
K 22.14053137937074 19.215263484874935 18.710982744732288
K 18.676394525690593 12.078065940185185 19.713996572961697
K 15.162967516422766 23.08425769528781 20.607320772254255
K 10.703063052220063 15.995770135195151 17.67928185205892
K 15.365546014302852 15.601344259103175 18.73980418502925
K 15.50017912410946 9.50877946731815 21.630964787905036
K 10.693392131120728 23.5338843105225 19.628463467068066
K 8.677412591913544 19.4548928939128 20.487601120592505
K 19.147920292521476 16.67743460236846 21.429809741734367
K 22.965777667577456 14.674393402179824 19.875171958549096
K 15.642068216542699 18.847256842557673 22.620479137572936
K 11.776688577495165 21.121728482920247 23.334734890761826
K 12.404870822329256 12.46770189333502 19.821178055204975
K 11.842116350292368 16.54553797877775 22.108637726212912
K 15.725754391551003 13.901364548343901 22.775080108513098
