46
Energy = -35.02864243 eV
K 17.142998020922985 18.29916483441592 9.814768805175516
K 20.78962536652952 15.213985718849413 9.457205087465459
K 17.029705163201 13.054577256001828 9.89172849364462
K 13.783912666704925 16.053534201993298 12.016746575195048
K 21.272699806423503 19.317847562715972 11.6607353249688
K 20.94250673933777 11.554701647319137 11.917231616835299
K 13.519097613053475 20.379555281945116 11.580396737186149
K 13.940285521159634 11.633980628809695 12.6553806902534
K 17.737116367796055 21.91636273813526 12.634657737225773
K 18.183277821787136 15.759780063722049 13.184433451968655
K 22.327588018347075 15.412907477586396 13.985457199057493
K 9.649995120097456 18.069440848281282 12.814109497460619
K 17.822475376832024 11.7665411866243 14.935000050531858
K 21.7470840728102 22.986239000124318 14.549460695401484
K 17.36958384783043 8.859819154313145 11.63504926906648
K 14.72271808910456 14.637450584443465 16.01164941610675
K 13.932752356891045 22.73865748659404 15.189674756400894
K 10.659727863400208 14.038394760509 14.698651994206857
K 24.350836817910224 19.371800087735398 15.015329889874806
K 12.080469413183144 18.434017471167728 16.318879801484506
K 20.186445607719115 19.046572643839212 15.83426146442969
K 16.114565160007004 18.896686829777664 15.512159715788632
K 20.36481671322831 8.170385040582984 14.8659179992529
K 18.039959789609846 22.825595532446755 17.315422405274695
K 14.036446490593919 10.494258735748032 16.977710686343602
K 8.24053055857514 17.13649412657705 17.303858837579828
K 18.49991999148477 9.714431070019513 18.750146900662756
K 22.767814263199796 16.45690514790999 18.368032972553213
K 21.834916124661948 12.043739853210974 16.872617175609573
K 14.267002244986829 21.372434745142275 19.242444838860486
K 11.470305440392508 14.37584303615018 19.133810150407747
K 18.646500444887053 15.270444453999195 17.713412163341868
K 22.148613497174303 21.155134435858514 19.104914676309022
K 14.84833086507125 17.0526963824689 19.642448047799036
K 10.925477643882084 18.867836008013292 20.886175495057888
K 18.359799338047903 19.337275136873444 20.06885599400846
K 15.808272300465438 12.831218155670383 20.4331322538317
K 16.87930440705677 23.587660878664625 21.757492046008448
K 12.3247155500388 23.19269871635424 22.641880343791073
K 21.674967679931097 17.574887775419683 22.489349043776002
K 20.462033835501575 13.286945219849324 21.121018941516592
K 14.583680468143648 19.545053081506307 23.454601735734418
K 13.113145599274892 15.223359048191982 23.285180250826826
K 17.596492499089223 16.058154823588104 23.239026261998784
K 18.788037436254598 20.48996739286025 24.429757687145127
K 15.383419872232627 22.864533622822265 25.959794707413614
