47
Energy = -38.58891882 eV
K 13.03665952391608 18.152522380014975 15.931846892719292
K 17.913481020660786 12.506032761650678 15.600305822859177
K 19.874070620592867 9.571317945085578 18.036173351569555
K 20.005647294222463 20.603693055070778 18.507185030384303
K 21.957346965811592 13.695857671914672 17.68581630144947
K 14.6579961867168 22.6725654465342 15.480832630157947
K 21.6383449057527 12.019958892844253 21.840490110378664
K 16.408989313832727 23.634822357733476 19.59787119983718
K 21.809394083004953 12.104878015460967 13.402348745099497
K 14.669961817762756 14.887452043944103 18.224346159502144
K 13.927985139724948 14.742649374943051 10.315141414764195
K 17.870317080773283 12.80472180023723 20.147534816547296
K 18.74824776042801 20.783253330020734 22.543429891591888
K 11.89930160586627 17.121430603495053 20.59842874524175
K 14.111622352253564 20.888806358400576 22.648227323429186
K 20.343777966325856 16.119063436688947 14.185593412723147
K 12.279322141479417 13.61469939976293 14.868770838876788
K 18.601634879665838 16.50837607192077 17.958628605570414
K 10.573265810266193 12.737719790719243 18.756821359899252
K 18.28236612909077 13.411738760887342 10.919909086467246
K 9.125172680220539 16.802652418144557 16.9683202843956
K 19.434992818986444 23.948447940791144 15.958989448799848
K 10.25769682168809 16.475258214881084 12.431785681169748
K 13.875693554152079 12.827257805399078 22.114063496212953
K 22.1058721822973 15.738054837268919 10.291099278544946
K 20.89292989731383 16.58942832846388 21.582269426853525
K 13.944053851900044 19.426321555566325 11.864095525927317
K 15.92351825695545 15.767424208648665 13.913599548457258
K 10.553641427987923 11.86248808462708 11.285461354571831
K 21.734681892205362 20.20792820170066 13.893061838637626
K 14.566030585656327 10.53596856911627 17.78021835090616
K 16.31114527097689 16.730283990399833 22.212847930387923
K 23.328515952311598 18.065111429460035 17.76384359600527
K 7.984547981141634 12.99791882448546 14.847221396472632
K 20.82072701740278 24.41538246861878 20.44586067630167
K 18.087883173851935 13.35547714778856 24.422706043816675
K 17.775184041442735 22.51386734916939 11.980203291481143
K 10.07962680459132 20.64144498793089 14.380360768873357
K 15.73361159193591 19.5005730447961 18.987063999408125
K 24.570780675604595 16.073343761390046 14.078448180821935
K 17.5514271862691 19.603600781767415 14.998414332731391
K 10.908166899858687 9.540478724475772 15.222576755437943
K 23.673430813422083 22.632192460233956 17.343599267060057
K 23.198396393150404 20.694694429315202 21.52276134900555
K 11.774902379563793 21.42662409073593 18.75304337168843
K 14.749659273776523 10.803317277994378 12.753404954493735
K 18.191178822725778 18.006100415036393 10.718178958005833
