47
Energy = -37.74495563 eV
K 1.145411942616617 21.02271092587467 15.178928059903123
K 23.562906611912364 17.317311803091226 13.143895165429774
K 0.7824442417482562 20.435156086135496 19.43152310204511
K 21.586249832075914 21.09023303838869 11.862697719168924
K 1.0444607261891152 16.796531927928232 17.221440188393967
K 0.9272201190322656 13.366282365213491 14.737840953839937
K 21.767105908111677 23.396362612865357 17.65248607567132
K 22.839595933067333 1.03830610476467 13.690243139798712
K 20.43587029810165 17.38925315877599 10.030556238632736
K 0.7746230361275788 20.33821289284715 0.06909984406860703
K 21.56835532291265 13.492560802018012 11.673374512441297
K 1.068714410061347 16.603129476793942 21.640081921224546
K 20.889037356029604 21.776282454523905 21.629468896583752
K 22.829564929221874 13.348955490575445 19.762521100337896
K 20.89159111145505 17.352566011024503 19.769945772158938
K 20.82412710783379 19.45478244724309 15.962291757541578
K 22.21603322532944 10.389931933996648 16.817125057525473
K 20.67396125928636 14.826399590710166 15.961876714510671
K 17.741724583496634 21.686964476674024 18.449300497489613
K 17.693959463999175 19.319532827828464 12.691228991525712
K 20.91921755372898 17.989133790984116 0.5709452691379995
K 18.60696082220205 23.505611454751104 14.54687957313251
K 17.63075635051283 15.011791727702184 12.59213894030632
K 15.21140509586571 1.5468175638602573 16.73848653635873
K 17.232833460149934 22.553711921096358 23.460623070950753
K 18.79900510777853 11.002288230041671 14.194431338723323
K 17.213759105186003 17.221131594402053 16.815958231526498
K 17.270265673876562 18.477314286374135 21.58364168468215
K 17.077616074814504 19.15718788885385 2.402935846500323
K 18.703123162846357 12.03532342054516 18.827055633871975
K 14.740110412839915 21.16897102718295 14.942625026856744
K 19.175203969799448 14.288261261609097 22.537447417406508
K 18.640295104341387 15.144830282180788 3.1380677263046017
K 14.096611237145686 16.90609995645803 13.647045673150062
K 14.178630757183438 23.09251154024423 20.583911882826676
K 15.480834779330385 12.979117909675429 15.911254899588256
K 13.802567948716064 18.922309836058066 18.717736452143427
K 15.566892352448855 14.640351615154353 20.035872269904928
K 13.64795240943516 19.81829497366232 23.665335155061197
K 11.569715752947923 22.794209514936686 17.199819522045587
K 15.131544432796007 15.511431416634334 0.7014520531496563
K 10.782012294635404 18.71817023490904 15.36544183380815
K 12.133827840456286 14.944670227920188 17.38329978970179
K 10.552311633593124 20.58194991573194 20.95115383164011
K 11.881567165943459 16.142780662931067 21.760377197975753
K 7.752759972681184 20.866094158387337 17.489480974338598
K 8.772181437581455 16.97354260073794 18.97344135547475
