47
Energy = -39.01156319 eV
K 22.34266890653746 12.812095860802179 13.06994319390005
K 11.94014681938818 20.48193556745733 14.217519722972392
K 22.5159917430562 17.678760329403772 13.273945033630744
K 21.385189701014987 18.24134470058949 20.01811487185242
K 14.692596367185969 13.24000472984934 13.310862182185303
K 10.213537439218985 17.331873472312544 22.65165989726076
K 12.539641490870464 17.70584647534631 7.464305567364704
K 21.375064923180464 15.097418468309009 16.816280376352328
K 10.527238773369705 19.28054392411725 18.42649739585289
K 18.34414637947848 11.933150883947867 10.545305974196722
K 13.456289290121886 12.100299921334996 17.805370642991754
K 17.87936278435263 21.651502811168843 19.622298391316757
K 14.00231953207745 23.312175874661868 17.937917914135095
K 18.6260857687338 25.0886247593446 17.15228988693582
K 18.912899191005078 19.54338262274386 11.433949420665302
K 13.814221057955686 20.209518225285695 21.699910992052995
K 14.469867918266074 20.511144187669306 10.327442212774097
K 25.230373605232522 19.81072441609448 21.410433151199676
K 8.367907845459351 17.264895558665607 14.780880675594675
K 9.90136050683511 13.110096135771572 14.277076142779919
K 24.71537434458165 15.442401229390875 19.701240212888397
K 18.57511657364195 11.246039633107063 14.951448667985648
K 11.50980768593028 16.636118749584842 11.504117398853353
K 14.974977936500327 19.181955680927288 17.53707174593803
K 18.162188624913828 10.704084585581604 19.15601868527349
K 15.471831742395315 17.871568229330904 13.556001634180157
K 16.482157243608633 22.187780020503364 14.25849354773814
K 22.462236139373744 11.121950226187536 17.74209493679913
K 18.747497016663807 15.310352334524215 13.248496065795191
K 22.10183511954361 22.667430966723042 19.383401481441936
K 17.392613355409118 17.39097321263896 20.97721868125265
K 13.32425204369322 16.007811794661247 20.02839331669281
K 16.877726312943217 14.892514608547781 17.323269380965822
K 16.14253399507815 13.168138339845726 22.08870611847657
K 11.580419867649807 12.907361311845802 22.32405378279441
K 18.84827012973651 15.855054971584037 24.78730688983239
K 16.06832711618731 16.08237622364116 9.6355621496268
K 12.3866599178572 16.078812252343198 15.823273960045597
K 9.278967533472278 14.661452834997498 18.535423466820752
K 24.137253068401957 19.365793264982475 17.02285208962814
K 20.98123039244593 15.525046283415751 9.64462933409818
K 20.612264877543097 13.92034932180435 21.062855557512197
K 21.17592560659328 22.176634504305706 14.792910568737584
K 19.1343932100575 18.799777695276386 16.225383826512772
K 14.336301048377194 16.485692632778395 24.27297684207965
K 19.949429312771823 20.196000633450208 23.452254510838166
K 23.14453543380833 16.822225225663825 23.833577193696804
