47
Energy = -39.05490874 eV
K 15.127512203235971 14.55431431257525 10.40185683991702
K 20.12508303298461 14.868947244208792 10.721998133853765
K 21.360869402368444 19.296875472307555 11.031741025163115
K 17.85144248904416 10.960448005415367 11.271677650411519
K 17.150087066785478 18.23373271144226 12.138174039574734
K 24.23039188442875 16.096615960912498 13.1911750444233
K 18.52479154055701 22.70987858048393 12.42127815817927
K 22.810482067901837 21.453460733686967 14.4367057092653
K 13.870833221200852 11.3434100570559 13.731352989930501
K 17.25515524248714 14.18068977675564 14.200623778913513
K 21.69765700464911 12.2605682952979 14.19927524627636
K 13.124980257262658 16.163083344345782 14.410555308356107
K 20.59743649435367 17.106553412535124 15.017337654053689
K 14.305184469749657 20.78381079188276 14.023533634424075
K 24.526533201415994 18.566599121149874 17.25209847007443
K 18.64166934652395 20.905089253528825 16.313391194450475
K 20.5535148695323 25.15110336717509 16.381397366130052
K 17.908732115646053 9.916526186579082 15.802984984988969
K 16.28173019552745 17.461475179888765 17.159702344331315
K 23.669975215862905 14.307360983631684 17.8999450514749
K 15.860091979325071 24.66910531319449 15.838155923200636
K 14.44583598674131 13.15603581559842 17.85092651513768
K 19.263872768012185 13.72033096691727 17.895730877724695
K 13.871643655355133 21.255790183549152 18.379076143945053
K 13.981652071230169 25.38436088727586 20.347590818890726
K 14.133126956518401 8.722165998758397 17.668775179699423
K 12.892089337004814 17.139246359564115 20.057418552784178
K 13.360731641300802 25.585767439257246 24.827592267780762
K 21.731142516967658 10.089436437148573 18.37879702652537
K 17.689278724879 27.84343702214531 18.539348553812992
K 20.314171806186756 17.876767091025332 19.507019212206107
K 21.315947394296305 13.465765308043146 21.937985259107613
K 22.413209683186416 22.058079331408912 19.167586698059505
K 16.7858552454761 14.97773199511388 21.131039909676144
K 13.278333739017429 21.397386682852193 23.049626224548074
K 23.75950493575758 17.567522915781986 21.846132104033565
K 17.62011960023235 12.989959315952834 24.847253344208877
K 17.888767921704993 23.332834777533517 19.775666698358275
K 17.51418281035994 10.47228806823147 20.50422811125803
K 16.809884406005445 19.453658060637387 21.485060680943423
K 16.63477992925177 28.176086697446394 22.76467478361209
K 19.604400893090716 16.99912218604805 24.26317538966615
K 20.82920031148368 26.02004354818111 21.381424903444813
K 20.704260169382977 21.26551259887856 23.14062975627061
K 14.624824782023474 16.712166323271596 24.488342990555875
K 17.44130460342468 24.148527932278924 24.072893946286346
K 16.79476614206574 20.377369284845535 26.024084835868916
