47
Energy = -38.97004101 eV
K 1.1599875325299067 15.713817067012085 15.747364156823016
K 0.727527168151282 17.918977077466707 11.672714903456818
K 17.9271792010286 0.34702731309342927 14.210272503298043
K 21.320763219672898 21.438599675164255 12.41077389259049
K 21.3324676408193 2.2485824389043483 11.962993010893857
K 23.576316195992224 13.477644514025593 12.321220119226641
K 20.970809988982616 13.095431456575493 16.45536521053516
K 19.34239643825639 12.764654191229766 11.994134173073
K 0.3783969595877642 19.987501492453458 15.680760908335369
K 16.274780214159055 16.062580031671924 12.400241110822542
K 17.5520964415364 19.859104409500677 14.60039164181835
K 0.37900901211580473 0.3654745312362764 14.569673750900979
K 20.952837096876262 2.8211817375975006 16.46529065785203
K 21.535695038664233 17.255047136968674 18.365828102377634
K 16.186816329050814 12.132968594479582 15.016711654491917
K 21.784347535623645 20.689267633760682 21.28769089634647
K 17.234694132421165 12.375847038906166 19.4574610823728
K 1.0902439629882361 23.170977031550322 18.89276151117099
K 13.122312582257287 18.31151597574369 14.968586687562777
K 17.2327802762319 0.9162908273946443 18.71078236961046
K 14.25182921523238 22.322831248048914 16.474198351705752
K 20.792670144718354 22.1232175969759 17.01262691423125
K 20.818441413808994 16.877761034156222 13.86291084837858
K 10.151139689013688 20.494012896388107 18.025654799046855
K 21.288885071412192 1.1444627615889553 20.588994523081883
K 9.404021116475821 16.13694512488962 16.820370455410096
K 1.5056203029974637 14.224550943196842 19.81905152436904
K 1.9426947856709522 18.713090977176073 19.736122676554587
K 12.346138672378622 14.193956147848866 13.790164812134611
K 17.550467805673293 20.170354450188633 19.260725018038688
K 19.77838393868813 19.06590551972128 1.1457993466452814
K 13.630595843674165 17.9393915276737 19.438928083540585
K 6.376085881492007 17.938966074955328 19.788682097068598
K 13.767731177376486 22.43637936017502 20.91998874081805
K 17.96891016522256 22.79726815435819 22.832472679621336
K 13.069869534442375 13.659497957934326 18.192571772344145
K 18.375619799122365 16.42040515805239 21.694370172335532
K 23.197911620620516 16.818713902156006 22.82084990161578
K 17.171136315270083 16.08610631682086 16.98193063582588
K 21.353071149418632 13.07597649937066 21.124908592406484
K 9.901113027095565 15.300891188859723 21.181716560731733
K 15.188021914650403 19.09575594733779 23.578139165689883
K 10.534117887715121 19.431689421600094 22.449045312045186
K 14.194250611591483 14.599544295011308 22.609050159220654
K 16.828076458642308 15.747038478091643 2.2493713401476447
K 17.866033640707748 12.027426947539235 -0.013370744240871316
K 20.97746859583386 14.5908410043579 1.8560703172305302
