47
Energy = -37.82486194 eV
K 15.774328237921532 12.817500205282627 22.462677460800496
K 17.527083955051445 12.118462075895328 18.459770816072112
K 13.242770683946217 12.158044953768483 18.828515532077326
K 21.69613948684826 13.082970023396175 18.180016880485635
K 0.6641700981823755 12.036316496805819 21.486877541460164
K 22.00046408488112 14.051377433664731 0.9321573224706826
K 18.12574539620589 15.452665299372088 2.1745358648582855
K 19.88625347755747 11.012099806469896 21.892985943490824
K 11.708512231763073 15.060654751819008 21.57801236108591
K 15.117946953591918 13.799817950236642 15.302344123185145
K 15.116191493605902 17.209821168993233 23.08352020399849
K 19.38967006707845 13.811849901522445 14.578378480837788
K 15.788965813645163 16.385464128419375 18.799083320022362
K 23.39572045577773 15.635822943252249 14.798980264157302
K 11.70596858939388 16.06660526306766 17.20792887199034
K 2.2352662272977457 14.490084403924035 18.069262239415263
K 17.452389893194084 19.753067335549506 2.102868126693725
K 23.35211614432881 16.390716693538636 21.028697067175
K 20.24807160622291 17.23208035212888 17.694336714178462
K 21.38572795028418 18.40618273763412 0.8100665037184179
K 19.053264625237777 15.528315699494348 21.426052238188813
K 12.553738640525497 19.17850243565037 20.187213709264
K 16.69170867648455 14.727817241674396 11.321693312564523
K 22.09987505732922 20.433601854975336 20.48806772493237
K 17.791774170771436 20.12966111881526 21.16049197052319
K 12.890513258477228 16.882779953858584 13.233821596271238
K 14.208997069620457 21.666010202738978 23.217532837661587
K 20.94692956416368 16.966913178677128 11.606140239872136
K 16.723604530592926 0.3658970756496945 2.4588011008713395
K 17.43852513691189 17.85771042989891 14.357116045682641
K 1.4121447874811093 18.79173944822349 17.655286318360393
K 14.109122143787426 19.83232087470151 16.191948537820757
K 13.699796856974347 17.38028975194771 9.115029365590614
K 20.440489080808955 22.607260409059403 0.4403955880674462
K 18.618505524009578 21.111624152820596 17.128070905118737
K 14.927201173602537 22.865393797833118 18.948637679108735
K 22.234883921077667 20.015277303313745 14.550857848746329
K 17.717097210086028 18.5785756212384 9.481533188839814
K 17.009169379336967 1.4091739322854167 21.91584505508647
K 20.837227544157834 0.8220837998113582 20.04971050210433
K 14.631815521529658 20.73827449614234 11.974484848108595
K 19.02599418593565 21.464725715975398 12.209223813269599
K 15.980882129207373 0.2399041304658044 14.718165024873159
K 0.33489186487080147 23.05230151828009 17.35389149874523
K 17.719373804532342 2.8968549443918357 17.73962696372913
K 20.515432288193175 0.6815096115466593 14.84609350566999
K 22.222700538312957 3.6989088762046305 17.227527375420554
