47
Energy = -38.97021683 eV
K 19.205866741136024 16.427938313907916 8.751304214390116
K 14.921657644512322 15.894681447920787 9.908356486248447
K 16.607597456358572 20.066685190254432 10.533919068121872
K 21.12102814074877 19.619326452418424 11.428662457047489
K 22.087698927115657 14.876664077252094 12.058675748851387
K 18.218322700070154 12.622291534525319 11.08058436898409
K 17.974646759537496 20.4757434375587 14.720429126175517
K 14.038645751862687 18.36874466663869 13.828555772507944
K 14.903170208921294 13.81158540596504 13.963575395335914
K 22.53786554727432 21.756682981926453 15.197630843556665
K 18.030132039271294 16.512979259676683 12.868059212217583
K 24.911405331076285 18.11244716391998 13.336378149517484
K 10.84148307898341 20.27911860359436 16.469660196899287
K 21.195938559853705 17.537882873530254 15.455806618239441
K 19.05546205527985 24.59093249424925 15.104659539740847
K 25.524818422042113 23.047066147958496 18.101809889379318
K 19.608001364895127 13.077502785940718 15.884679087225201
K 23.983945800013394 14.41892526582953 16.563176044089445
K 12.596466233263602 16.174635664187083 17.4532693898644
K 14.438821719739456 22.91111603618988 14.908181026394727
K 15.491411954034765 12.468716133726241 18.0647482665611
K 17.097868293998335 16.498188436015923 17.340669815256792
K 23.22055517946359 26.179832310409008 15.66903624936784
K 19.635147642229914 20.355610873681883 18.645200817708606
K 21.363045983788805 24.360234493125702 19.139465494722838
K 24.77342494799244 18.60362553545943 17.81956301350657
K 12.291301135530455 23.48688278065174 19.19027749688078
K 22.17176872569503 12.03050507121457 19.906813914487294
K 16.806365697720388 23.890485542860304 19.006315305610585
K 18.215166718826364 13.581483904667184 21.223372028862237
K 14.884765378039308 20.0617271726841 18.281465867695033
K 14.011483836885963 15.202266679234537 21.491637013701016
K 21.02128563240856 16.34646501846589 19.609917090056452
K 11.53248253053859 19.17813211655794 20.952830773035608
K 24.634617557994044 15.691454551680412 21.440159698234076
K 23.22488278554507 20.565491556593333 21.217091020361835
K 19.145486475868037 22.185387421533626 22.61206271029266
K 17.019739452537294 18.256342503432 21.68239562403901
K 21.408552204129556 13.683163903628996 24.275808390928038
K 14.603144091026317 21.97896197034791 22.849082676407047
K 13.385660583487592 17.99295103540382 24.88134943966602
K 16.91577259458971 15.26785068741496 25.149621571860145
K 20.861925994221057 17.877989346523236 23.806232573199672
K 17.391894617646784 19.875514561853542 26.011337496425178
K 19.99107370001589 16.498531052096762 27.905566079308244
K 13.510016701403547 21.660494482334133 27.15674105287935
K 15.281752708554313 17.332328661086194 28.74743349028565
