47
Energy = -39.0463517 eV
K 14.18249726232447 18.849585992384355 15.265034238794536
K 21.734030016877245 18.197143005640864 15.595526905528958
K 19.699822024579063 11.963214095396209 16.41564371648062
K 19.17188586631407 18.075165229674173 9.16178507947326
K 11.299375768544747 18.4568845610536 11.960382772054704
K 17.453573946740658 13.474355337973618 9.030862111406096
K 18.235095926121627 19.56924183635553 13.274589718463217
K 19.69833826366854 15.362946381261393 12.46990096096793
K 21.702646815716985 15.526779551141663 22.890547831626403
K 17.193186596562917 9.883466685002109 20.056639701684862
K 19.994953549703602 10.835358208159494 11.91874891374559
K 17.282711354863086 24.25815392492583 23.690354092488473
K 15.400763624796236 16.735339120775706 11.407967819247443
K 17.39289142571278 16.689599902572624 23.81060482291068
K 11.485945337230602 15.862777948235948 19.269814517345612
K 15.423783156492096 17.088697297252132 19.552704863885733
K 12.774007125219288 10.315795617606167 14.15505369561359
K 16.259065368174184 12.841276718324217 13.442644641526005
K 19.77926121709445 23.13162208412759 20.128416385261186
K 12.579179443703767 20.709377175745136 19.1804857004136
K 19.05790294631982 22.92812245674604 10.958333933784791
K 11.992508158957111 22.50526886266165 14.855598433326728
K 15.753752274125846 9.449908413786371 10.85252090742645
K 16.815023684383675 8.854771774194507 15.261113193729893
K 14.788926035417797 21.271962736729506 11.205260856123513
K 13.006600377228747 18.082913105363588 23.180273509968874
K 14.842394663930593 12.636556495696373 17.653484669135892
K 22.532708849869998 14.827332762794333 18.359894762778993
K 18.515974508681868 14.179637299274432 20.129244304704766
K 23.174172654665558 13.546353996435597 13.935867707446064
K 13.04559322131326 13.123411179772342 10.450991009616859
K 12.343964547084513 14.928326569034187 14.617440843559686
K 15.456248137236955 24.26005807153357 19.283000365017614
K 17.35196126780709 20.56623565269848 17.51775944473525
K 14.450629467076476 13.561654265104373 22.08758701100276
K 21.874989260689727 14.025683816338399 9.178654975462884
K 18.51470908511862 12.088501423119572 23.798222098810122
K 17.781853020595662 16.08298011518806 16.183254059793935
K 20.1546536326449 20.329522769690143 24.01731828205299
K 13.011161747099147 22.841700052395236 23.1025289230162
K 9.821008933202915 18.81597794651964 16.101923257437
K 16.445620752143913 20.611253217317472 21.75429982489322
K 16.25394202504064 23.634495628754113 14.684657763989557
K 20.45824154280899 22.812358617416393 15.546996034394994
K 21.56931839968147 11.159497066675675 20.60535851059675
K 15.871001102062337 20.489156138589284 25.949351910757166
K 20.30476405708156 18.4922173352723 19.983993360227966
