47
Energy = -39.29214252 eV
K 20.907790855822864 16.586049647445808 11.840186820997845
K 17.500453769122682 13.480278329395965 11.663325811105512
K 16.060122638805566 18.415583834117754 11.660870922066179
K 19.004459449262228 9.237992254942318 13.679608518865203
K 11.23110667372372 18.805882373240337 12.675464217837352
K 21.837377195883313 11.859944538622694 11.081497346114547
K 16.497166540039384 22.1996474802844 16.859434371727144
K 19.864773685294857 20.9966746843611 14.035155420473174
K 14.448733653308205 10.17374597112313 13.066265363215216
K 22.76513286797677 17.22238583186646 15.924697050112988
K 14.138094096113367 22.366972637965198 13.075433750676078
K 17.921014995266827 16.988887298085654 15.257118824124591
K 13.17158289907496 25.396479415254337 16.5244839807922
K 24.830736218471785 13.957688621287245 13.756584160576043
K 16.727189458076854 12.424885879784018 16.043105422930104
K 23.34245130492528 9.775145735592053 15.142399406343056
K 13.543794254169162 14.810581627610183 13.660790610422048
K 14.005324133131651 18.797824922289657 15.939578861525458
K 10.364774043081095 16.2273253582954 16.7907721815924
K 15.996452900641433 8.248415805728909 17.079531517033235
K 17.548158710657805 25.56227040387263 14.499780645596859
K 10.821168737432803 21.464359991868076 16.703302306504792
K 20.706480345618406 13.33955463835592 15.050895408827227
K 14.518514694385543 15.220426339315633 18.276645040159668
K 20.012152685037062 10.22021997250814 18.43582472347679
K 20.705452667780364 24.256125127624376 17.677209187719022
K 12.382354057484688 11.510292803505216 17.0641007045865
K 19.200267253471843 15.219354264584663 19.02358517251968
K 24.142690663262805 21.15279093703015 17.420827408218717
K 20.1664057685664 19.692565368547257 18.335006166752812
K 23.511898885898805 13.25815489889364 18.474741105841463
K 16.711997928167435 26.487071837313067 19.09846231989432
K 16.187329806115688 18.82285776284773 19.79939183764552
K 13.44807675139901 22.893911279363763 20.24767580843717
K 11.614799132569631 13.77654315544776 21.061067285181046
K 16.119063539298086 11.595125729193366 20.527014514387464
K 11.955015482537073 18.433978408792168 20.54449116433588
K 18.041405776270576 22.536688731531143 20.972160037010056
K 23.37311241196937 17.33803668787753 20.538006859039573
K 15.73207036994828 15.551363277983425 22.77351707628816
K 20.465044195856386 13.385490673074633 22.44600438299001
K 22.453900975388876 21.89209786865875 21.657173298843663
K 20.234289906574137 26.04074565883536 22.14114488041887
K 19.527060426534128 18.306234820194092 22.900539691812185
K 15.793475724573215 25.138941107713904 23.61725869726554
K 15.19476270994797 20.402308726844993 23.84280128355677
K 19.27550173489101 22.531080254759765 25.11605140799021
