47
Energy = -36.47534428 eV
K 17.03049314214207 15.874475152738347 10.596249618211525
K 21.4053052408867 16.973115959575672 9.114328269776074
K 12.734068331196596 15.23223851346484 9.269346695328606
K 19.204805721153413 12.059402827418454 11.875735721969816
K 19.286848909679293 20.029170577050746 11.516693868043044
K 14.512254775109978 19.625100494310253 10.65737888635116
K 22.77243559468472 11.839039210595127 15.28615573876152
K 10.501595301001405 13.180015745308891 13.994229674714266
K 23.589075492765584 19.484543777498825 12.466121814025348
K 16.920307745970625 14.380706697835635 14.918724341896757
K 20.864000659417556 23.140163227280123 14.606551489734468
K 24.450462371099213 16.393716599910995 15.961902095873562
K 20.944540579919895 15.771188994937297 13.169518303380276
K 16.402919113774225 23.124888885326307 13.577605537302354
K 14.562728786611485 12.204051822816258 12.037010945321134
K 13.013967860246442 16.455451916329206 13.31775239384188
K 12.482335906581037 20.668418407176635 14.919338462357196
K 16.45339430847365 18.690837624002572 14.597666590245703
K 18.32750040504752 10.331413511947602 15.979038479999751
K 20.72977658181434 19.0947507443098 15.922373419062032
K 9.823224805423976 17.628197612803184 16.748526274226442
K 20.583067876268732 14.516501768904194 17.375885056468537
K 13.682166375291082 11.096621854421985 16.551906564453382
K 17.39499401084223 21.65953292768926 17.600376984980123
K 21.243211119467162 22.635883754796033 19.121082175481792
K 9.414752109754042 13.382241708050538 18.308817247153225
K 13.38109428047106 15.317791237406087 17.55708909802056
K 13.734014642880032 24.13036324668174 17.151431561047836
K 24.629744054308798 20.910509820700423 16.582037057496763
K 17.65867621183301 17.24029519885406 18.49395879139869
K 22.334602638061657 18.156577160949603 19.79858381132551
K 16.76997509165098 12.954806459655481 19.172433091371783
K 13.950195276177958 19.387894196265925 18.90716582375172
K 16.246703586561015 8.857980487577116 19.842747962228827
K 24.01999313289674 13.586172171934608 19.586956908842815
K 20.464723959336748 10.705031758195174 19.97393631606558
K 17.98204011060136 25.757513447179676 17.07474247819515
K 10.61296272219119 21.637376938600138 19.432113412552905
K 10.686489209017203 16.65832573123872 21.046655616863212
K 12.732435411892656 12.364206101209387 21.183344434681757
K 17.9962227268203 19.848470724843857 21.83977833142957
K 19.853413881807793 14.922133191070136 21.852693451436842
K 15.25494418138655 16.022592269314607 22.028880783473777
K 15.021387142779913 23.183098640553776 21.148309214368172
K 16.682028300515782 11.81025966804016 23.297698066383237
K 13.092582432944605 19.61835268918503 23.309838286109883
K 12.152909548627653 15.045950211432443 24.816660521382175
