48
Energy = -40.11184269 eV
K 0.7493148899619922 17.17962413295611 9.889842410236321
K 0.1808761466306783 14.265671263111889 13.736218845666462
K 20.210910746073893 15.763362451026834 11.189718800605384
K -0.1601209774143996 18.659761083850448 13.912057289341622
K 19.401134761232786 12.094159276583534 13.908155700467795
K 20.841140008385892 20.31901354006265 10.596980093316297
K 22.12787171858749 12.13501882574682 17.563086539803624
K 16.020515621156058 14.252957200774265 11.738836310852887
K 19.01379913573607 8.415833559348474 17.217797080126854
K 0.5013856651788305 16.55594488006037 18.06651264705871
K 19.724466757689598 16.518998636913288 15.901021979473851
K 17.209816033233263 18.68004489970254 12.838916353457536
K 15.03245898095067 10.76695008899525 15.01713549227896
K 20.14663199540569 21.79453717120574 14.929618105766222
K 0.3775013861113146 13.374333458360153 21.61629408255834
K 17.569698171523463 12.817877040302992 17.936580573998842
K 12.817731904390824 17.918551569538693 12.425971754062697
K 19.786450275100595 10.62284478324665 21.425090590024332
K 15.37678513574645 22.681025507797212 13.571248817360635
K 20.129110976062027 15.365678280475114 20.277016058537768
K 14.914086458321167 15.833569013380279 15.6925940128877
K 11.884969739790531 13.172015254588887 12.854973851159414
K 0.8154440662926737 21.228510131778897 17.24298413444424
K 15.583003146467773 9.248487090276702 20.004753919174565
K 10.244135577664496 15.932400964659859 15.77433864531064
K 16.725160485025093 20.518226868419823 17.180403950857468
K 20.442721096609457 14.297917626100189 1.1032145926184205
K 20.501725834772103 19.93580291076245 19.38977740772335
K 17.900999525144265 2.384621658347354 16.13010733224626
K 12.470025206744511 19.972954307781123 16.41248019132596
K 16.25111608486512 13.535697298857837 22.327025130043957
K 21.549316793875423 1.3318150607487114 18.335461907702832
K 16.071420615636 17.068196764066798 19.59281276242614
K 0.3784341942764617 22.489197720082803 21.564524527162362
K 22.960219117803046 17.957018004655307 22.678338283495158
K 13.114331816428596 12.98946798093005 18.66821194162678
K 14.087027872801775 0.9429147894725881 17.72834216601545
K 11.553529567190303 17.04889517896352 19.78753337834017
K 18.31658584933197 18.35702359372391 -0.1623171780073864
K 17.809437261811844 0.04032529175333205 20.605492732275234
K 17.75640813071464 4.769810707188523 20.12111158657023
K 13.948015034743163 17.562911378913718 0.23376295857719442
K 13.765169040151019 21.056131300947033 20.8262794565332
K 21.447334257438907 2.9461812824566986 22.5046809604567
K 20.30563862167572 22.296584823002515 0.7547340983213139
K 15.729195919427056 21.977824419143573 1.2965176686525526
K 13.982336015569036 2.163376314457387 22.08644879298355
K 17.588238596031342 2.762914539433041 1.1066868544079442
