48
Energy = -39.80651844 eV
K 21.578539489179697 23.14306090773192 14.66947039305146
K 16.93634391866759 17.446258163191636 23.983166936704666
K 18.574412418824483 21.046041714921184 11.957868545822759
K 11.730865038151718 12.514233526073244 22.18967035949396
K 18.57973978595905 14.618733319057876 20.613366780189416
K 20.62702187106158 16.444760132174146 17.163282022746593
K 8.406146282617732 20.288063921093585 18.62374455797379
K 11.863617972041542 23.09386035806995 20.408942322291345
K 16.26113562036443 21.184403197243572 20.45471417969689
K 21.782898176477048 12.571119499685727 9.63527689603388
K 19.86224821959536 23.507254189785407 18.97438218936462
K 14.527688302589484 10.959283014748166 14.221349996185925
K 17.640040738690075 13.258562893715752 16.04704599668979
K 18.00669759135941 9.079355866568454 17.199781316138655
K 9.099089314003734 20.226383322747868 22.878205668162153
K 24.858474924670556 15.781546205725723 16.025005663852582
K 15.806961117391323 17.450133192002024 10.004686312621192
K 11.486134222397688 17.56701211899734 11.241803102410609
K 22.26824852092784 18.795250614706788 13.86770922996037
K 24.792388812965896 16.441271097129523 11.254036871009045
K 23.198384644776183 20.89942581166711 10.432635031127091
K 14.276173521843084 15.34523603323641 13.758757313341938
K 17.634615515226766 13.35285788541455 11.200355523011872
K 11.148393885569925 21.976965593891908 15.317679107335435
K 23.07082491729673 15.681700041378516 20.467042991714695
K 16.186960557517178 17.054900817305274 17.580779022172482
K 10.487286537979092 17.408592820873128 15.599983661212514
K 23.133958968248436 20.063941497423848 17.979953590137498
K 14.250113404117899 15.95281371249607 21.15078023002748
K 21.698078803719522 14.093666389516963 13.551728097653115
K 14.635905230112233 19.672235068914606 13.963874390930261
K 15.913556620615465 12.792774720155847 23.90982748169384
K 11.826279217932196 16.19861370588541 24.770134818163562
K 20.583172069020684 16.97801791833599 9.930245520737792
K 13.267553167230753 19.935429688294573 23.240344269384465
K 18.200371136122232 17.011304362432956 13.59603854347951
K 19.264368394401195 10.440465792943895 21.453100471571506
K 19.924032032271167 10.125447377268042 13.247221477071964
K 13.29678376496438 13.524421698819 9.944425832219844
K 19.851479132768056 18.958604271579194 20.739395006804077
K 12.804204116197953 19.424951297464556 18.526880016048747
K 9.918002022536063 16.564262369358925 20.551184959257895
K 10.485057988776974 13.397962638551023 13.418360610127202
K 18.742990564552013 20.341578001036027 16.420801738581353
K 15.394291763575836 11.613401370716332 19.565713233679833
K 15.526013997198737 23.15010516395434 16.519355929226105
K 12.559993066141812 13.981809144325494 17.49885511672694
K 21.525626700857195 12.13509163089574 17.744200755666927
