48
Energy = -40.09636086 eV
K 12.469009084882012 16.111111628747512 10.130394438713086
K 15.709370933016428 20.344395961097476 11.000611025371457
K 11.060486751958146 20.510100385678975 10.94716986780623
K 10.094279333434235 12.039690107901611 11.290453294371407
K 20.293848577265834 18.049743522341952 12.194520713486453
K 14.637085841068076 11.915169247645697 10.920296789558426
K 17.50418272270384 24.099982090911336 13.918410926053843
K 16.328887650269692 16.092437835166596 12.412919169025965
K 23.041965236372683 14.305499183138766 12.950959682448028
K 8.857559120594484 16.162489531052717 12.968624897588281
K 19.130664138916433 12.860975557975143 11.489071254925838
K 13.32248687391692 22.69210073912636 14.28843848926354
K 24.5639649827864 18.325732319200444 14.37544382496221
K 12.94439650105948 18.415284954761276 14.000954262312675
K 12.531732547460749 14.099750015271319 14.039905682236045
K 17.213285681042457 19.970903560414136 15.099547071413273
K 21.529935063973276 22.158957715595154 13.706618296443533
K 17.30182528514007 8.858075296032242 13.109740940804897
K 12.734256642518286 9.675049228578283 14.40192282458386
K 9.499716644890185 20.49820857307512 15.341527914339686
K 9.131016478127634 12.009219814139296 15.806569708223336
K 16.500644677384024 12.463098810010461 15.150312034308449
K 20.796453251769698 11.064158008356294 15.214146559585288
K 19.454458668570993 15.511040358982552 15.780241915958218
K 24.41696907510031 22.27614634952142 17.16175583427322
K 15.229848146710143 16.36860169791133 16.981155831143084
K 21.339911010733566 19.149257452248786 16.962227473273142
K 10.335745824500815 16.321231163362526 17.22880219921452
K 25.043273826187114 18.28207647998255 18.95235831124276
K 13.155095946939701 12.748553325377307 18.20318180323066
K 16.02948623873162 9.165426437840518 17.94855772592565
K 23.29850136226431 14.365577998408105 17.291534250404748
K 20.014670724782892 23.369885057456404 17.781459732206983
K 19.06967436929917 12.44092307011969 19.127320054903365
K 12.938136175629555 19.82482449711236 18.340497516334803
K 11.587262133477273 8.872508163248664 18.698665637733665
K 15.613036940765884 23.30416851703963 18.22818791979024
K 17.721533497908737 19.559389691852186 19.398753175125115
K 16.61041856860857 15.653965034221446 20.830577158187147
K 21.044584012980955 16.342630610303576 20.48346790224525
K 21.93186571761639 20.91188763575545 21.125594255758713
K 12.351970044142277 15.984073416630885 21.279966909634553
K 15.1773595421546 11.673995521243631 21.872162296221674
K 18.03611777586654 22.964235397374125 21.957811213520014
K 19.024982925836095 13.55359542266454 23.554364570229318
K 14.601790267270331 19.699401762916782 22.580780134312363
K 18.77969112916231 18.44516072249271 23.699572353832874
K 15.086122494778046 15.578870570283721 24.8620045980399
