48
Energy = -40.27629495 eV
K 18.212133146674226 22.158355697146796 20.367804070107102
K 22.85943869970714 21.474893403698918 19.35764006888282
K 21.434394678850264 22.2425766994014 24.050402745263497
K 13.555014829207366 21.02361331702238 21.053845094635864
K 11.685262712269317 13.946002874091851 19.147045711404076
K 15.705712939251123 13.158242593369174 21.131681479436057
K 13.513424898964534 17.71750807147592 17.90423767199595
K 12.113649220876267 23.01318174034664 12.834857163033488
K 10.152969371036548 11.800480410422448 15.034208499148404
K 14.717562548606107 15.509403502350105 10.214997424773541
K 10.849561101949638 21.099822489603365 16.92093656946727
K 17.32414868521456 19.989843061739215 24.499242346285506
K 23.263244377055813 19.205768247942906 15.084806499881267
K 19.922718474470518 15.789611059612565 10.920104846193533
K 21.49134044885956 18.111382305595267 26.181447610670947
K 12.429504400152279 19.568638906374204 9.415613344210822
K 13.256144429596507 14.675465995054465 14.648791784606162
K 16.539608423266696 22.46478035412934 12.389473288941074
K 9.449063731852975 16.63912407665329 15.867365265537927
K 23.397310490080347 15.056865819742358 23.033608549852847
K 13.198496342337439 18.839061586059906 13.545010894276057
K 19.585149577745685 18.530754170540927 17.643774125093667
K 20.736039503276633 18.44901902610975 21.902530474392464
K 16.6090992398507 17.73052972922358 20.745879598969537
K 20.92044547115444 11.319697094897736 12.492784652816248
K 15.455052766100167 21.47795133932414 16.738194960498852
K 24.85452180602849 19.496472246982076 23.007048098459368
K 17.37692288724381 18.016567766353848 13.914696497569006
K 17.341636721437347 11.693083439024253 9.434289106072724
K 16.902342052933992 8.904298361790449 13.204886206804995
K 23.677262681708374 12.48824124498023 18.826643246382886
K 8.953629462085491 19.843207910832568 12.473293517049724
K 18.10247983342779 15.453739419761332 24.412199333139636
K 12.48626014899167 7.920070723615856 14.307906522634761
K 20.636672656274783 20.37086810102049 11.695322688908428
K 17.15598981562768 13.3573039882811 13.416390841338178
K 16.9493082628372 19.198857928135947 9.426043156414632
K 14.596596519086983 10.95828868193472 16.837011000960082
K 24.008702557332057 16.967405093380442 18.93833822955302
K 13.203712463527115 16.58526407835256 23.020418894370557
K 19.988023383309052 14.336514591961524 20.174795185488232
K 13.202300335505576 11.33750604435486 11.464055419381419
K 21.14801883601311 14.984184108557013 15.443948904116255
K 9.80406505283846 18.090765722858166 20.349750510048388
K 19.232457543281768 11.00844387340749 16.913822023957085
K 10.243547147191258 15.465945208513453 11.388439929552376
K 19.84607600238922 22.45891747491865 15.789646599881827
K 16.786855727703443 14.945352824236455 17.30864175272226
