48
Energy = -39.75677192 eV
K 18.080031249649718 18.913111590960142 9.53225981180453
K 16.122112305471603 15.105124317817689 10.424875028244442
K 13.824357975086295 19.02657185198636 11.363864404846687
K 16.786192751947866 22.32565995609116 12.578099188272827
K 21.087768406578498 20.049579476782185 12.87790796544012
K 20.62628887942236 15.654331880388149 11.803214672348041
K 21.67490826353705 24.349677239442396 14.478515335044763
K 18.745015976155173 9.185787811750966 15.229499275673604
K 17.34530641612907 17.986885474140017 13.704245720574677
K 24.520158864142246 16.203524648251502 14.558817398442011
K 17.791490014515492 26.260978699584278 14.876090541919003
K 14.568794940368846 10.51838849686711 15.218827838221324
K 13.519477303801164 15.52841385492919 14.21484374977917
K 14.481944481045327 24.13558922035178 16.686474644163702
K 21.14578140816424 28.049226352507805 17.193838781090676
K 17.56372487793529 13.6277178935007 14.413836829140596
K 21.384934621388847 9.010144132777164 18.54538431605243
K 23.486766799532095 20.719078721766536 16.57090275031159
K 20.961756324029256 16.606677440499865 16.43304266827301
K 18.671910143407572 21.671051481631288 16.27212425665377
K 14.096450548170733 19.71623262150669 15.975925008221148
K 21.996365068744797 12.313343863720275 14.868661172617852
K 16.80790724484122 9.55823481552834 19.289619910468687
K 21.577487359916066 24.13827204108508 19.014307751751144
K 14.357859812973327 13.693683258842114 18.135848043640117
K 10.770160503263302 17.03419530908878 17.932032117291886
K 17.182540855222904 17.1002290973422 18.0794068111333
K 19.13840241400877 12.835311901494418 18.249633752069695
K 23.61552750751608 13.025376096915059 18.988963908623173
K 24.415117295521334 17.38314280008412 19.53406596087843
K 17.743188426064336 26.031353246709482 19.269557155094805
K 20.56518263021927 19.8485188734047 19.70562837490601
K 16.152210987547406 21.407024468577408 19.650263364435492
K 11.763454327033417 21.324140215281187 19.532089262080646
K 13.8934537862869 17.484769919367945 20.65157747631407
K 20.81565069850313 15.561966732386253 21.25755066671871
K 24.381959531100815 21.52409854455324 21.22095338868727
K 16.621362442402535 13.913057667225589 21.874242177788144
K 14.190299817008064 24.957285244105325 21.336747058836284
K 20.167837110177903 11.240401390275492 22.252605064408087
K 17.623459224492567 18.36882222553916 22.54425630040997
K 10.323703638072333 18.315329419225456 22.610651376994635
K 18.821227992693498 22.83569822995234 22.726408339233462
K 14.125684477954133 21.00726820629505 23.648771631687946
K 21.68828654996506 19.158284769145098 23.925832803633174
K 14.475416028516689 16.73960134276062 25.114974127850864
K 18.970726434453546 15.337318310618324 25.35765819629686
K 17.699580862690368 19.58874442461145 26.644329199298827
