48
Energy = -39.77655839 eV
K 17.469269333573532 18.29880247940739 9.629454646469098
K 16.2099771843868 21.821019728225263 12.412359392343632
K 21.92228524039291 16.42496852335475 11.437231321943505
K 20.977672326782653 21.01453155189763 11.916657459779618
K 18.11796400132292 13.861269303301595 11.55133150341164
K 13.946742175808875 17.763441745621254 12.754629286180112
K 25.39080841992696 19.333747011709512 12.721015684401214
K 22.44637100760133 11.850556164436197 12.726743485767619
K 18.28604522501701 17.857029791002287 13.808669481619605
K 14.21971560811009 10.95204578201898 17.463910378557046
K 19.136849295175505 25.039148011143435 14.067581565313027
K 25.272971121345968 15.038192579626728 14.97276759406986
K 15.212431843937596 18.95517147297316 17.131277807609667
K 15.423648438190027 23.635828256804587 16.619886004293786
K 22.365130933669285 18.24715691364335 15.585366955004739
K 23.563997489964382 22.609051976740997 15.494589475655935
K 20.600393201641698 14.457506790609791 15.589654161080752
K 18.599023788005606 10.524013015748867 15.05545626015642
K 11.856971581530571 15.23137257477231 16.16262235451026
K 19.117309402662062 21.262410894126198 16.100194957095834
K 16.160898904292253 14.454912107056176 15.540136822745268
K 26.361378303832083 19.019202863913332 17.4559721242312
K 11.083011130922063 20.15429728841581 16.463082341462904
K 23.315637745002558 11.571506192254864 17.447564368073735
K 18.994317471146104 12.362324575216581 19.224413810177452
K 7.9465453944691875 16.810516640894274 18.347559203747554
K 25.412954573000057 22.861411308441426 19.87256261659217
K 15.044209457256258 14.466679172994441 19.782901975019502
K 22.066338238090392 20.147959365185283 19.280207130048296
K 18.71364121887683 17.096593124469365 18.72051467599406
K 10.547539487477168 13.258269537596062 19.975723679063524
K 17.920663629748443 21.69703127420846 20.289839355141567
K 20.884352633701514 24.65571668717843 18.613418251605992
K 11.993205186155183 17.590707116744223 20.1035486325731
K 22.562552520453842 15.44972419244192 19.843946460612848
K 26.816938741196637 14.804523016513015 19.289821420589842
K 13.460875454112543 21.91276087668278 20.478440967563483
K 21.77280566528669 22.606208006880713 22.893143229682597
K 8.843620330979236 20.645236418773674 20.567216706745718
K 25.17160473184873 18.67138817976779 21.98090175626254
K 17.90945052614811 14.350929873768871 23.25317484335928
K 15.889818850349481 18.14440886832532 22.073041113561676
K 8.802312661376074 16.447300150509193 22.91538018637591
K 20.39230213048398 18.305866820091513 22.957463116512482
K 13.096581307841062 14.934187843704215 23.860255085038094
K 16.78114657722584 21.515425828901108 24.57286991576361
K 12.19664512644 19.65450833121117 24.237235828307764
K 7.85079126714756 20.36085665460178 24.885981491790947
