48
Energy = -40.15457082 eV
K 17.598101198957764 19.05331806066781 10.336469544379769
K 13.002210490785252 17.43011484129255 9.606556091844844
K 16.837771372457485 14.507299133176486 9.66770276561751
K 8.880926718968254 15.208030784536804 10.397950207159036
K 21.291969972411277 15.96411042996403 10.40502818946109
K 12.619572576100074 13.351657608513854 11.838183524120776
K 14.043834949720305 21.295071450500917 12.274033229830497
K 20.367156660153793 11.50269304587159 9.997386373937719
K 19.97650688817612 18.321427515201794 14.051318600269303
K 16.271463516927078 10.506623284088633 11.981233037713048
K 18.560821121956977 22.601094317748565 13.307268240962594
K 9.45505162007912 14.109396597663315 14.847669443420376
K 15.241868231876524 16.896421067640713 13.35024145880574
K 18.901635701373838 13.800746630473615 13.672347141383925
K 23.36396687648423 12.972684962156233 13.171147864509303
K 11.711226723910173 9.979623049656125 15.194970535519333
K 24.292423926728244 17.441362277629068 13.742321702383673
K 10.529353739583712 18.205312109359156 13.369713556954624
K 20.341260578799695 9.630876400902835 14.132296366604002
K 14.759706055203528 12.858881363764924 15.733034870647721
K 22.646547162292542 21.70301814056238 15.551091615103887
K 16.293529759830538 20.34921669953909 16.301755362286123
K 15.189753838682556 24.63826592714886 15.595972039487416
K 16.26218203000395 8.40319600363801 15.875674287556627
K 11.83589705227172 21.46023124584469 16.325894933380095
K 22.072566014781653 15.161297850891247 17.058309496210207
K 17.612663242942634 16.09524069062576 17.109388580791762
K 24.84962000711703 18.69764645617308 18.153485027362724
K 19.2510372894672 23.701908130450775 17.808177605205543
K 12.959804670535117 16.990206928358365 17.158691243012818
K 20.31485417866863 19.297634130371154 18.520681407789255
K 8.953373740500805 17.510101653759115 18.13561563825064
K 18.583149823504055 11.670450717332283 18.090755259582174
K 10.85984575354801 13.043643600339205 18.929106912404745
K 22.948419907586697 22.49888987542074 20.18756544012696
K 15.373630564782953 22.95751456157552 20.03629626419432
K 15.135850980725168 14.108455896896835 20.026651405822488
K 15.707198744263565 18.534402381525986 20.364221934947942
K 11.841415250451615 16.59310271410833 22.05879167363778
K 19.535257751383295 15.538483492962648 21.14949140711111
K 14.09604080244734 9.801247661876026 19.479598673933864
K 11.471012933378343 20.7078782319334 20.669243363076962
K 22.985177898214857 18.528486215036896 22.213557291250734
K 18.891661464104367 20.773107818227157 22.466332977678853
K 12.965681948719988 12.253005295783709 23.319248630782173
K 15.945217217448151 15.92847485593124 24.110368141994837
K 17.413580150987197 11.507629497912948 22.637402287914632
K 14.441712657459233 20.394030151718884 24.07327011033215
