49
Energy = -40.99508928 eV
K 14.841265057249284 13.955054053337932 8.620067072710606
K 18.850514380224144 15.397124483687813 9.709455212691624
K 15.641079419972817 18.56792356089935 9.31834614106279
K 23.101463775292963 15.959834658864388 10.95200296608893
K 16.373500204746065 11.044380386086589 11.65884040475136
K 20.192185828228833 19.69716262499952 10.614028587019359
K 16.868032460865223 22.828591622350054 10.06295152955448
K 11.605638168973138 16.819195795968422 10.874151314855764
K 12.156856367961613 12.4790503448764 12.31981161786905
K 19.163462476337532 11.393138964977657 8.399558512934583
K 15.416962825190883 15.64103191484351 12.670133907000837
K 12.813291839295303 21.292234273626768 11.621616920488888
K 18.770296600749866 8.937858977127163 14.810880547560446
K 19.848057661362233 16.619077534854764 13.883770374654908
K 16.693153584870302 20.0365984070354 13.399802436170198
K 23.716626206179225 14.99269327095458 15.395827383493188
K 8.840208221498765 19.666756461819805 13.283665671364691
K 14.211681035200614 9.701643010695502 15.484897157862372
K 9.334231526515175 15.419789629451737 14.718435536566503
K 20.858946209272872 12.364217434606315 12.573240929029762
K 17.555680046330313 13.002650214876127 15.733827364547013
K 12.629065606946462 18.429033559849003 14.990167134099734
K 9.991606203597792 11.08493357931576 16.360781954303945
K 15.2111359703944 24.175368508104526 14.174143696672015
K 11.314460087255481 22.583774097926533 15.929183694430456
K 13.174616962509715 14.12603438794909 16.47867058876411
K 16.42638348462022 17.232546782301863 16.727725503321974
K 15.191371225406415 21.393054622557468 17.64532462335513
K 21.382701072035523 11.601555713237957 17.421268173606826
K 19.770783010826747 20.205513479973092 16.8455676561191
K 23.33102967167807 19.3151311236957 14.046393311519873
K 9.12692229523736 18.926100082538998 17.843903981480704
K 13.033043864883073 17.60629301644577 19.573302172464928
K 17.332043382927537 10.105307101114324 19.073376758536334
K 20.221298196978765 15.790097482090976 18.33648553103089
K 24.007693905038984 14.32902240517712 19.97517075181418
K 9.726505845027813 14.60617068851786 19.377096541813803
K 12.877939740707998 11.211113517265025 19.917669572260134
K 16.151136715236465 14.324083290372863 20.033494458409987
K 17.386004395972634 18.800227907510358 20.781550617070934
K 23.679845761806476 18.559426144593434 18.424260317543077
K 11.744018368554647 21.6484817474413 20.577951672560886
K 19.98870920953005 12.919851832198646 21.72780728534431
K 9.652289001776795 18.078435487898208 22.342556822741845
K 15.861693750741267 11.415443871626339 23.270954258889088
K 13.821776062296038 18.983021403124816 23.801094878281628
K 21.350875546377953 17.2897020870286 22.234829660864666
K 12.662554912099653 14.64659997776611 22.928767915027784
K 17.125766403913516 15.82407302713275 24.08159343008843
