49
Energy = -41.07827674 eV
K 22.30616905594416 15.217916906561848 10.594803255648289
K 18.90961681022409 18.206541895374343 9.391673088677654
K 18.18739780811407 13.07735888870545 10.408426539550367
K 14.82274708807922 16.465609118653447 10.678873366758603
K 14.104159855622518 12.124696178998553 12.317246294538053
K 15.424256083380119 21.42698288863695 9.732654888862463
K 22.234760136161793 19.64239488799749 12.17839296500787
K 21.316872913033666 11.935360134231841 13.724538441700705
K 19.068621236643782 23.14354308892646 11.838300102971534
K 14.310704807758766 8.973798442017761 15.9528116486319
K 10.842784634673842 15.172068307877161 13.24239333732418
K 12.34745562832072 19.42397588600241 13.168264954140962
K 19.108458684343734 16.093054912870286 13.222463463432657
K 17.01002477866461 19.710022459306753 13.219734359611381
K 14.817817170637333 16.16131825420981 15.035917235261172
K 22.869280676582637 15.987265292300592 15.262316798166928
K 10.258200925886221 10.479400270325014 14.07431004598137
K 14.74586599148415 23.406398219850686 13.927629411793314
K 22.52462361983747 23.53731806004468 14.752662646253986
K 17.74943643312756 9.104786063668758 12.75801014054676
K 8.258344099480347 18.37379384675199 14.90845003688734
K 18.429383690763512 23.65068007544104 16.482470853384118
K 17.36501022365034 12.634711038511686 15.048901546848265
K 24.72609731447061 20.03684575404345 16.166862792685002
K 8.410231825463658 13.67752429815438 16.883850216486774
K 11.001737650314995 21.61768068049377 16.88566493900786
K 12.74354686275497 12.884738240175455 16.75605969998567
K 15.082533557697655 20.006334088498555 17.002931091047063
K 22.284046721274652 17.58847551882419 19.49899036752679
K 10.311224950414596 9.550401593985473 18.33526930957684
K 14.591535318269788 23.978436338894017 18.597509348009346
K 18.672201611196606 9.149280582482143 17.36129562859413
K 22.12829976135169 22.206324116511254 19.326525618177115
K 11.139905075006395 17.237378374037533 17.968495078391037
K 16.434267699720248 12.666079910730247 19.119134765546917
K 18.441033531616345 16.421953216742295 17.508739129339695
K 14.8614499943758 16.525345451302396 19.944740502441096
K 21.013592207036424 12.99978118291188 18.383295024627962
K 20.367611058642964 19.90094562462382 16.03127291232738
K 14.196715208058675 9.411830152754325 20.654490909779074
K 17.948951479734458 20.378232088683777 20.14163124983369
K 11.298673743626997 13.142029075196932 20.75565420384966
K 13.158686312912314 20.47515186945338 20.91687556854376
K 18.446353022061672 10.364654422816102 21.98188739504942
K 20.78216649595379 19.336519152029688 23.286857436100387
K 19.084140557428803 15.371717573255825 21.81919561949544
K 11.908180517853856 16.811098090574347 23.087904913344993
K 15.048165453490844 13.331212049807794 23.23898536227173
K 16.225135309584534 18.29951102848256 23.74311108871118
