49
Energy = -38.73298151 eV
K 26.32291620366049 13.671324691008198 16.32161992144969
K 20.952780997933182 11.511708717405416 11.021884984510761
K 13.21033600922634 20.337869689078257 11.834015908949453
K 21.31463962517974 17.992052046568585 19.751030980577447
K 21.25929548968645 19.637867934946005 12.244036951033843
K 12.081146816833273 11.103955199644238 18.700571410266857
K 15.649194755363725 23.21260873674276 22.583063802531846
K 13.06758678349176 18.738772032029196 16.096815587727892
K 25.108416416720758 15.243636317457645 20.373592355023632
K 16.30643523297448 14.89635502311192 23.217013431800297
K 14.721806524352944 14.317564407222246 16.165285708348062
K 13.127574934332046 18.645899746435912 23.417700233103115
K 24.29356751124743 17.960102047387057 16.28279489784855
K 20.718232272774287 13.277647667446256 21.649360813773274
K 11.762146112843553 11.590570168248261 14.317895254818124
K 14.206460596018818 16.643804230299462 19.698912355625914
K 19.35014660878758 8.608958065749757 13.998118238950973
K 10.494058639006056 15.115318613183804 17.20950652549436
K 19.862281972393355 22.271818565011927 20.714829767112867
K 10.086527863191964 18.566068083152338 19.98473302639647
K 19.211125556768597 15.725709888170378 10.8060851573318
K 13.291275927056732 23.07068530797237 15.420210072779811
K 15.751738484790593 10.1438885570249 16.193519203263197
K 11.857208012820662 15.857954894448772 12.900648506687435
K 21.019667745731628 21.48423579127845 16.49504184351989
K 15.561943435404364 13.00736085751949 12.006838300874835
K 22.23980719400651 14.097431982869034 17.508213286849934
K 16.04360244878859 11.556376965845514 20.50130496286607
K 18.07888980425105 15.002827994562075 18.75283174092873
K 20.022673846899483 17.1900068406401 15.362451328707968
K 19.909458501022414 10.297409911825586 18.265311324737244
K 9.746394999997936 22.44687793062114 17.90107493130922
K 17.37390365551038 19.928296504260683 9.809836206849031
K 23.188785508082 10.604412358269386 14.969630445637566
K 16.20689196950074 17.401974732083826 13.407953763327349
K 17.182675010799453 19.44458370230693 17.61290242866819
K 17.374625156259963 18.91802337806494 21.954797507233742
K 24.337419605804705 10.90318826324938 19.451322511728637
K 13.740507229043143 21.109742057489854 19.558126265021695
K 9.762642767979825 18.314130975774564 9.964899797843067
K 14.27091241071101 16.686911972676754 9.34407935204767
K 17.305369086005623 21.72679526406862 13.815962586248896
K 18.989105377736863 12.994546007408442 14.697057148543704
K 16.99818057069136 23.925228306955713 17.87464146528656
K 23.14827183250876 14.834867655064176 13.09230748074831
K 12.914102176773186 25.35885685663552 19.46379733060929
K 11.88662073228313 14.081086988172778 21.986706585742706
K 9.293862702677995 19.486922963594548 14.349567523691928
K 10.846220304210819 22.505196529152776 22.39953220570634
