49
Energy = -41.09918696 eV
K 14.217413371321491 15.27193972460661 8.647901406507746
K 17.398754812227033 18.511055198675237 9.538657704002075
K 18.338514061189553 13.871677734430104 9.92421964352286
K 20.644202758841068 21.622439010628526 10.60485408931785
K 13.093931615942234 19.21334747233386 10.83420231981632
K 21.572991681727903 17.13173073788169 11.018969386083217
K 16.33024733898795 22.361429797921176 11.8169677869427
K 14.511413549584168 11.737144834439324 11.417751120459172
K 22.43056748391829 12.609486210088335 11.304971496191373
K 11.169530241413344 14.810432511780999 12.097853848641131
K 15.52990155694916 15.991732017942716 12.784264415928368
K 18.746855436814247 10.319396585505302 12.793695465780004
K 18.714206911991692 19.237534871532603 13.807099717867196
K 23.21785789628991 20.166151757816007 14.116742890560214
K 19.692969920760877 14.538349195182894 14.16838208407406
K 9.818184766844476 18.604929367255124 13.7633394416956
K 19.98855594627968 23.48397296949134 14.627059203973271
K 23.9528493981719 15.55248640103077 14.415959934750534
K 14.154658432965068 20.002037399252252 15.246222900997685
K 14.95996370381131 8.2903179199408 14.392772814057404
K 11.586681229924821 11.307665841235144 14.955619020193769
K 8.633146528583904 14.775577591871679 16.197469593923394
K 15.972259962592933 24.262937601904785 15.79501095260671
K 15.899007339924202 12.34400721477449 15.70247909553058
K 21.31262292999251 17.72969717018372 17.424675719209286
K 12.663923475602962 15.61488444003206 16.459083342126295
K 17.892040654737755 20.764562495718977 18.019160165796258
K 17.012938208502934 16.556953726256395 16.882245856885444
K 22.215906413700967 11.13345437951078 15.535447092892495
K 18.50071084638606 8.941964371604369 17.198323459834832
K 10.391350557465863 19.466058686286477 18.13929220572433
K 15.14782230290572 13.883480529823457 19.953788124376047
K 14.163056067502536 9.379179472468886 18.69452533419164
K 19.502024690974462 13.24382203198231 18.689545796578248
K 22.28632879367008 22.179070855322202 18.004337652421192
K 13.76438571070438 22.767828328908557 19.28434444963333
K 10.876846095473446 12.073559691316037 19.137403235994107
K 18.530002014850858 24.502890947945186 19.565958649054924
K 14.303325467917645 18.44589532078679 19.588640390161846
K 18.39794334886199 17.15113163789515 21.04163801455975
K 10.969048897058194 15.927939704221421 20.983571211862625
K 17.694812556137634 13.764386366083853 23.87650003530887
K 17.433129654901848 10.118572492734128 21.39901860678308
K 13.335210721211627 11.826339506444908 23.008430243760046
K 11.737819438460429 20.234141324244757 22.489651850114743
K 16.29325660195674 21.09004390323556 22.57313755446108
K 20.57119111486118 20.959555040521263 21.914744291854245
K 14.533409878164296 16.728951861797956 23.69828337469336
K 18.60757115094655 18.20919928715835 25.1771305483025
