49
Energy = -41.15252518 eV
K 18.041151909259327 19.285101343097814 9.274610791840848
K 13.823682610166484 17.280504868404606 7.958462544662256
K 17.332746452244407 14.501691464887768 9.010751426957242
K 13.12903329485368 13.342427110787488 10.744977330891782
K 16.375831427248148 10.131745397483462 10.327553167813637
K 13.94464819510619 21.118291040938864 10.439480292345001
K 19.799076411396534 16.43858453522461 12.751928888450319
K 10.895285221966596 17.670546441114716 11.54618925860747
K 20.44282562098883 12.028506858351323 11.196656421200576
K 18.052447510480334 23.55608612684895 10.944447358962085
K 15.213939998538535 16.915617132131896 11.906328077455822
K 12.6128700477882 14.662509699305986 15.423739220454031
K 16.84776613923285 13.15124426545183 13.323172741987285
K 13.991390680854924 10.10125589344827 14.311938054275121
K 10.29040053015246 21.976671206477775 13.236483980245875
K 23.215117849933673 16.871016547716504 15.922542236437106
K 18.483263955741354 9.074007419271542 14.291021412901006
K 14.627057529347802 23.829844787375514 14.097087031229007
K 13.284865034178807 19.467195477252613 14.749887497767727
K 21.509926613600165 20.644473892134478 12.763925650625344
K 20.904110756825126 12.949832797112308 15.544465599710085
K 19.295492580855193 23.601378960762908 15.470968516348606
K 17.295106923303624 20.309634733355928 13.499242027521925
K 16.49382214434374 16.49676974892944 16.24757623823468
K 19.752625029339264 19.168804654710332 16.880975697354366
K 20.521097772690286 9.423827924447464 18.4320525101137
K 23.344103462764856 21.39791673865143 17.09987912645169
K 9.43890889230723 18.323720598982966 16.38904282545234
K 16.899451787635545 11.803475514989671 17.511056835949862
K 16.04927897919208 21.457369869166193 17.800600896496032
K 11.53164120964484 22.215035918433752 17.646648516989053
K 10.442670891131648 15.068536090966912 19.755625579986717
K 16.321619403536 7.696143442868336 18.174458727260777
K 13.29108191061442 18.144363359560604 18.849021886195878
K 22.983701095767447 13.146558313184249 19.93860084781105
K 12.621358917344166 11.002015717657132 18.649348834448503
K 15.09002066407815 14.391353043943596 20.345351771974528
K 19.477333742067703 15.187016826263807 19.03509937885829
K 19.786786874997354 21.94412238090601 20.185262213835152
K 22.493931926738753 18.235297753111105 20.257400397736387
K 9.752142626439772 19.403989339877974 20.94528211425676
K 19.307665603009678 11.631848687571889 21.885975626178695
K 15.437786375609386 9.895562949101494 21.93987507687777
K 13.931113749543963 21.34964119831926 21.707021083047273
K 12.251195118975652 12.620455708894701 23.25096985267146
K 17.314639918288307 18.337577460403043 21.217898059247187
K 20.436907191141216 15.573157843869835 23.336207833519715
K 13.051383349411722 17.110186200140696 23.18926619768103
K 16.39085192275821 13.888242569545408 24.41480019611502
