49
Energy = -40.71113811 eV
K 17.579266597036497 12.164834088199719 11.394844620088579
K 14.90798668918829 15.89792149135785 10.532077114988699
K 15.976687760168922 9.500029562068347 14.865253712187588
K 13.400925059207061 12.86022664984572 13.748698392032091
K 12.499899010392165 17.428387447548108 14.106032307130034
K 21.707002144007518 14.309850962279256 12.351072541865053
K 9.951082849673396 14.14865239097999 16.336414976079833
K 19.183325303418222 17.389026398331847 10.558905627440492
K 20.30363189648135 10.710275074982096 14.697305848846316
K 17.27124912911959 15.26051086931778 14.526726006185568
K 15.935174803060358 19.894233725970995 12.480531636642521
K 13.016466472108187 11.056621286712657 18.09620127061673
K 17.716053717745613 12.141377219286648 18.08402643858083
K 14.176394310382594 15.340040602800507 17.719731427243428
K 12.5015277436947 21.999294494756352 15.54521314295824
K 10.681185599737212 18.464298668235152 18.092999725240446
K 16.33476008809879 0.8791582271242194 13.824190014925689
K 21.33114005161554 14.903134502333307 16.765136972541047
K 10.883783090213425 14.536415094039665 20.80225312061165
K 0.3320782151303283 18.470653854734614 12.10532939100232
K 20.15421998051342 21.977359910269826 12.003382547799355
K 18.269236402269726 16.608903769918033 19.526168953134196
K 22.474341844592278 11.27325125067124 18.81052730433424
K 19.960578951203065 18.76762601442336 15.017593361949201
K 15.76006499653259 19.603369231194147 17.022363632383435
K 15.1403387585946 13.251282529376152 21.74240643809917
K 4.368607742836561 19.914553557242257 13.783580456584463
K 1.782140319380768 17.549458288051465 16.592331423125035
K 0.41106019559482826 21.755004021262167 15.231517611159731
K 14.402210257339505 18.010391852813285 21.327792240798896
K 9.779243739877407 18.721608030086376 22.45858193625857
K 12.708730946868311 21.94877819205601 20.272007137372967
K 15.5905001899271 1.4064607723223506 18.260588798765323
K 12.673133967556355 16.109721583301585 1.6336633707714692
K 19.615022278072253 -0.04106581825133991 16.712139686983363
K 17.191031460511915 15.968619866604078 1.312406786887897
K 20.140176258125248 13.416619232876293 22.031871146861494
K 21.73006297025649 19.58895400245918 18.947157021707916
K 0.6986960673872097 15.567002059467123 20.52750100119469
K 21.000244609761815 17.974450937514472 8.785625058648176E-4
K 17.750803856587027 21.100296590788524 20.614028029365695
K 4.019412245408539 21.28242691638973 18.10824755983511
K 13.04961785096971 20.850496472474084 1.4844542824932905
K 17.40350477345452 20.312146709946678 1.8185221629375508
K 0.317544704855413 0.5306078399348199 19.541776027254173
K 1.8111648873056752 19.920378363633912 21.765664883164398
K 15.938573046284018 1.059652570680762 -0.027792917406530306
K 19.382282332889258 2.4823767183897645 20.529577249038216
K 21.089094397509413 22.505645562656344 0.0023487081477305493
