49
Energy = -40.45574091 eV
K 21.17802994562299 0.9608734174617638 23.84597119601417
K 24.2221827379428 23.490374405139182 21.26571899233253
K 17.017515408584003 1.1579873119661923 21.93933277536912
K 18.212562936521635 21.966280999759128 1.0694065698015407
K 22.345865620973775 20.4934146536609 24.194012121664386
K 21.59164336980426 0.7188629429317844 17.916907337823233
K 24.206415910450783 16.360232737902948 23.810290356092533
K 17.109900062554715 -0.010660365775720188 17.389306180497726
K 19.690777943746784 22.23626728131007 20.74211602947904
K 13.098441827701759 0.3703730570594565 19.619526758886813
K 2.219222232309761 19.70846790795623 21.500453854479407
K 19.70379459277114 17.129930513316324 1.7204958727672304
K 14.444030548266554 21.724187456460836 22.745501530986235
K 15.226686518846854 18.56355173103729 1.765958197749628
K 22.391105736733056 18.570325298237456 19.94329167674889
K 20.390654736778103 14.777156210475225 21.886012973942115
K 0.5620530377451026 21.589408885354654 17.402390544904833
K 13.236640029135103 0.7386807720385514 15.132816351302933
K 19.635671967007884 20.22011323927661 16.71230813207898
K 17.911046481520888 18.67709978158749 22.133250877487676
K 15.166088511747862 20.393120963173494 18.506461411406683
K 9.195004699231866 0.01490281998219 17.425104212921173
K 4.147125072849491 15.877850169015591 21.526148999929447
K 10.627166035296668 20.804021674078534 20.013004724146036
K 22.26682784278882 22.998176881659596 13.956620887484808
K 0.27688365801878023 14.442523431500396 19.684181204654887
K 2.6190001601715296 17.453344258017516 17.43989913577386
K 16.272480705238063 14.74164270759076 23.83560534825968
K 13.278455623846506 17.417967607533523 21.84088076236314
K 11.406976125558904 21.019939620862658 15.515505926928157
K 16.710680490728134 15.915861358420143 19.110096707445468
K 23.463549613741804 18.50565470279631 14.431559493344729
K 20.729417929672202 15.553544307828606 16.861734065614147
K 15.81952308207419 21.196467075865012 13.99540831095733
K 12.250576302007891 17.062599453579033 17.394576814759862
K 19.69135108820654 19.704466246404408 12.14245364602313
K 16.861978847072645 16.727223074782223 14.766591356017752
K 21.162168036719198 11.48120044919763 18.85700591460366
K 17.115687686533903 11.37503577290297 21.10135944538371
K 13.281624445886449 13.234315022588227 19.647687122838025
K 17.05283727684595 12.151200539805911 16.670751502783265
K 0.3177102999496585 14.047369260151633 15.154958161008532
K 12.888357808650042 17.79513534589594 12.821423575079068
K 20.8255910017451 15.416485893319908 12.153534136004886
K 13.268021927295235 13.619078829618026 14.781149173944414
K 16.6515126324018 17.025908319505348 10.227175561659125
K 20.83200481431756 11.440156558929262 14.347568995860668
K 17.054668551904676 12.854591100429388 12.127849885186762
K 13.262780911526896 14.04131058723831 10.225585989168275
