49
Energy = -40.97017964 eV
K 17.51945132686017 15.20161460075783 9.617682282268685
K 17.806798474654755 20.023954429307246 10.670757342460004
K 13.624457105442307 13.42687267533582 10.226829861354785
K 13.937145381583722 21.667338676182474 11.917557014077461
K 21.607675806342055 17.540513182537847 9.96181301464204
K 12.46471742179088 17.996392400258994 9.511130520971019
K 16.822906687108784 10.133419982295168 10.791950925803103
K 10.391334584062065 15.070814669319352 12.967368038449555
K 17.68076403699435 24.04438288104195 13.70531988028369
K 21.10033613840656 13.20171051556249 11.621474045482776
K 19.089137247133657 16.80704992852412 13.266458117355986
K 21.30149051911335 20.733383412198293 13.515193568207296
K 12.7606776854591 10.722669536649132 13.648854001343084
K 14.518218538374429 17.076260639098923 13.087172019773508
K 23.486319988306416 16.39292758284128 14.157687508576318
K 12.901545961304357 14.180575533887055 16.484903636654398
K 10.650316709632383 19.476975235487195 13.896558490881405
K 13.05572669071192 22.931205516424953 16.031825272840038
K 16.27742889087593 8.65157721359116 15.40462163468056
K 16.85965903212528 20.37403198131192 15.28774224445324
K 20.19108087795794 9.645735767012102 13.844605543341405
K 23.89549441129153 11.791656296207899 15.324965867503174
K 16.64840641745071 12.968391355913504 13.744891866037046
K 9.100836177178287 12.158812135946043 16.289178832340262
K 9.233769733274205 16.596638040026512 17.310651327106605
K 20.330370716224564 13.667117492015633 16.19202435885602
K 23.668873384265826 15.606180695132105 18.623941210186825
K 16.707202169131204 16.197177141230316 16.843700043578913
K 13.146037842087715 18.729293737830954 17.502100660033044
K 20.54261296541801 18.163835387733943 17.080934597006575
K 9.583350588077083 21.11415766956799 18.194654796662597
K 24.287098116112816 20.01292372545395 17.124532351506236
K 12.696107463080864 9.945988731391049 18.17777154487215
K 20.428095048633466 9.78820935892872 18.24090530655977
K 16.50142729480774 24.113122787007118 18.271465467605406
K 16.562277990900444 12.043232669734488 18.32700708704407
K 17.086335842777416 19.623823451247755 19.673411232049798
K 10.61957680814203 13.56806567007958 20.434685280275094
K 16.39805501216118 8.023726755520048 19.870211669648057
K 13.384132780514832 22.11429616094587 20.657167617396425
K 20.44970488675647 22.50037904360102 17.77433583581394
K 14.532951869957184 15.63823302949559 20.600943606805217
K 19.215096767855513 15.336675943636877 20.42940290932393
K 10.928913043800819 18.143287302774997 21.386449090461646
K 21.54841401703664 19.543200453250854 20.972291422235497
K 14.279205215812503 11.43712075113801 22.166684916232477
K 17.80286829134672 22.724770814591658 22.339778676342274
K 14.982688051641667 19.058161502935913 23.511690692603462
K 12.382590153128074 15.081797700142245 24.3063989331189
