5
Energy = -2.79511612 eV
K 9.676682812967284 13.668314770700409 10.066865312165937
K 10.876211419943047 9.556136604960138 11.49107250168648
K 13.752950058717664 12.52502456640553 12.12720570016651
K 14.631495867275254 8.632363243290555 13.431405847261766
K 11.441138762589677 15.996639736136157 13.261929560212364
