5
Energy = -2.52106896 eV
K 11.65998358988472 7.3492102040275356 13.107042810102445
K 5.42084370952345 8.232768687586093 7.623954839286392
K 8.821189278467342 9.551892745384158 10.655793859671574
K 6.373167632366004 7.316813398193253 3.4197520731829463
K 9.24626264554567 9.070761820596172 6.7149032735437215
