5
Energy = -2.47413784 eV
K 15.512880728240637 15.445826853030063 22.65511743758403
K 18.121128635860853 14.7662363542008 6.372281529673008
K 15.865349584824969 18.706047222617183 19.936075447705687
K 15.523623235852005 15.533668091097043 3.295976400794226
K 13.678437254934815 15.714192035816735 18.078284643726768
