5
Energy = -2.61959026 eV
K 14.969667304919367 0.4273749856081267 14.720778538149816
K 12.114524772865542 13.460961059641102 14.501433612515621
K 16.870060714334823 12.911042230329395 14.608733554722544
K 14.567435922024757 14.43515510970505 1.0964901411441472
K 14.741992871854608 14.689618868749617 11.264200656433747
