5
Energy = -2.81771266 eV
K 13.781077970134039 13.42185642635025 0.5349173377999127
K 12.684489524633511 14.727107079036267 10.587691379909165
K 14.089498830173715 12.019238177468424 13.861378889300628
K 13.789977842233572 10.570485491350095 9.791865219509283
K 12.389290737956504 16.109422001099237 14.867124897372813
