5
Energy = -2.81970527 eV
K 9.972703154546084 13.827827366372025 15.315634750543087
K 18.352550033888974 15.690915620902885 16.758111547428786
K 14.081925467844906 14.902649386477941 16.244520294127515
K 16.899721871919283 15.267093932800591 12.722175479666765
K 12.851602141966934 13.547737843282485 12.096255616203829
