5
Energy = -2.51586702 eV
K 12.749117307755915 16.50796552820903 13.149152933402144
K 16.259126484597274 13.143555860696765 11.772373138897876
K 12.953310097669691 14.242333721746665 9.779270686237092
K 12.380935815037873 12.068107427831585 13.865536870682655
K 10.888102440687984 9.445069381390145 16.834382319227554
