5
Energy = -2.63405433 eV
K 13.370524271090906 13.451615027717663 12.554366115997972
K 10.432181612598052 10.167007547810247 13.790006420026963
K 14.27464597262128 9.582943894000216 12.248037826914555
K 12.348362721242726 13.558395350218888 8.711271232112246
K 9.011439937985607 13.100465016749627 11.191805143312656
