50
Energy = -41.9330467 eV
K 11.01845921108061 21.61562887043509 13.408760343418944
K 12.770819900408574 23.13234053938744 17.467861721019485
K 17.778373877137366 7.30605092763192 15.967551797201907
K 14.761093276769268 0.8909277729384028 13.43449775472993
K 10.599304327882708 19.116813266538852 17.125002391374505
K 11.275323545106572 20.960607277997756 21.236043046470815
K 11.997538260521017 17.052711408694318 13.250623256224548
K 11.940061985402838 16.39897091817969 20.551714848025657
K 15.558773096680873 3.6458924230555607 17.411998872079323
K 18.917206595954987 2.7389226988687283 13.939219483706147
K 14.555926513976116 20.151043348737613 10.905340634009479
K 14.923244143612065 19.639239110382633 15.26092871760451
K 13.085272222945015 12.824970052543316 13.612043976090282
K 9.821773810270868 14.689473446325625 16.76042527654842
K 17.48225361035438 -0.2952212299278036 16.999681745123976
K 14.385665538596292 18.832254433958234 0.5151360502539054
K 19.955494030214393 3.5990555151472052 18.125657548344677
K 14.735404115882153 15.119229682598798 17.03855863636616
K 18.513136839068327 21.279921286759254 13.039258244839287
K 15.163250119094156 19.2968380475951 19.399068813950326
K 12.709219641879981 14.558095195323833 1.2717325379957787
K 15.841395061586768 0.016548770724462397 21.098753351205115
K 17.157579639691413 16.424347531549547 13.109608036623706
K 10.904367543870045 12.193573037297929 20.65024149175428
K 17.567596817564326 15.725951378677593 20.399445975122095
K 19.4606268146686 19.055791068199014 17.512976390129346
K 18.817893510202854 19.50556954884519 -0.7960808876725777
K 20.697450618217875 22.851602238248663 20.035842225670365
K 22.110803967087673 22.842505491267776 15.63850664815871
K 19.8083048170669 14.703180444495207 16.693211474724855
K 17.403108014353577 11.789276766511215 14.176012894076278
K 21.819631672353083 18.369737180241138 13.843331604487101
K 21.40409944512293 14.000750523436649 12.707309310858184
K 15.280260062850436 12.30029528350341 21.63846898679164
K 14.201295205287531 10.526485430273453 17.436528084880955
K 17.168095559130734 15.4279394664991 1.615764694336009
K 22.181789488185814 16.407213619961517 20.336230668977308
K 1.110235155415411 15.657125522313557 16.177845843524178
K 21.763133299489617 16.63199646174713 1.4693462445930925
K 23.09752057968442 20.696627403561152 -0.06635510679144192
K 1.0592972136451335 19.906734100696724 18.748980781524452
K 18.501658982071646 10.913983712272753 18.72563246714129
K 2.8789294179179836 19.9483188281432 14.910302310123154
K 21.42225919558627 10.205898932264173 15.25863268782525
K 20.151376134806988 12.753455790261674 22.55068304190457
K 1.3605345595589793 13.411195390762366 -0.06565079283927848
K 2.9152954595842435 17.636683769213164 22.49325865504123
K 3.853415991809377 14.483769952624955 19.57965642081354
K 6.161426894678276 18.124699669218028 18.500692383035652
K 23.08744842225241 12.162323256396268 18.9519061014708
