50
Energy = -42.1792566 eV
K 2.875813611743057 13.767639634086724 15.249076031067462
K 0.3806083651323099 17.34095887602211 14.211201853920045
K 22.015103007963802 12.73478802994717 13.09654106974458
K 4.3730080286384005 17.488201496810937 17.11051067900081
K 0.3615441402236235 10.196914456344611 16.759791350578187
K 21.098762111709796 21.44317807262019 13.445445460827393
K 17.48616406493857 11.96025040513992 12.553985445232652
K 19.29123464893965 16.65287252169812 12.858914921676075
K 1.2865753503025328 21.120526623139337 16.383022801539564
K 21.591759267500635 14.432594058140511 17.094044838079
K 2.5420594628196773 13.806691530349417 19.62176692541655
K 19.20546797024907 10.507291782694898 16.399254256654395
K 18.899992757095102 2.847113452155055 13.067622564871941
K 14.885717672372254 16.168170996179338 12.413375564122665
K 22.485788143316412 1.991394193030531 15.617081977376264
K 21.226573829022445 11.631964290940688 20.51908545425569
K 13.239177638575102 11.992011537659412 13.877266924331135
K 16.765063227743774 20.77022801904 12.721870509792485
K 0.3431746188685784 17.825432906705565 19.255016814216347
K 19.841137813605158 18.724595378205997 16.735106528683524
K 15.016831352532375 9.099434024582171 16.726029246857703
K 16.552248936960197 6.934487675934553 13.133542513307802
K 20.60630186116787 6.489831857114082 15.259721350513551
K 16.793918498327695 14.446930144145476 16.288823194033906
K 21.278010329793737 22.46605667531785 19.33010388744215
K -0.561651173657435 15.142876586504052 22.93330181840829
K 14.656851283299515 1.790629587015872 13.80373208293529
K 18.005002480723068 -0.05434317004471798 16.41656339342303
K 21.14148120334483 19.4722208915023 -0.7355948258858613
K 15.065627478783647 18.895760566945153 16.26091586890988
K 19.98407161758648 3.690222978886394 18.843516976224077
K 18.919631470028786 15.835287109536248 20.51403009515269
K 16.12215008602229 4.389121931413019 17.02375641893252
K 16.615420146444542 11.797171484166933 19.977414979466264
K 11.592889454595596 15.677169230591185 15.641183625874056
K 12.053716576012018 12.349073592564793 18.595215448188
K 17.300614232244317 19.953491977515412 19.98957421176568
K 18.242353298681568 13.093373307262567 0.7103349948586462
K 13.633277384786744 22.896318683883457 17.788903029149765
K 14.3281060243068 16.086055068247244 19.634378389615804
K 17.40437422443771 21.09534908795066 1.048094846227883
K 16.829381063868475 0.9223327848590495 20.766205054461015
K 19.45298757004013 17.081716845297844 2.5173444445184106
K 10.566802946587503 18.912466847829634 18.41212910279266
K 15.463132950880762 16.88104821611469 0.6152211654891241
K 13.576668396855712 12.754677467436514 -0.22440301699312942
K 7.791826126016119 14.90911388472044 18.547266976059305
K 9.078840463286324 12.328613018438784 -1.1510436590488105
K 13.400024811526436 20.40132590183278 21.6674038054787
K 10.837042296509495 16.367075569050183 -1.095282047315978
