50
Energy = -41.99480789 eV
K 4.609976012484363 18.350465118922337 19.638605162200438
K 2.017575512618559 17.46443695008552 16.00186038388134
K 2.4179397007637102 21.84938451905908 17.731226776431157
K 21.806123990431033 9.936537763174325 17.941852735919685
K 23.32111449772509 0.3845669602307704 21.077879423987117
K 22.77878303367457 15.44159101256826 18.757663298297707
K 1.8918628248749696 15.542650396015171 22.171810261700216
K 23.256331832399503 13.1476923667881 14.808124079688861
K 22.158522258771455 12.261446302613212 21.852228244757374
K 21.48795756744917 21.244465933600978 0.706473819942987
K 23.376998404534298 19.513429897859925 20.5639911175547
K 0.1619636671789282 21.069059985303536 13.860792105128928
K 21.649430729916126 16.645426091439663 0.17718570841670164
K 19.44377320686575 18.706945572601892 18.51847969086133
K 21.25463623008223 17.33463670422331 14.60995953903905
K 21.462964813503906 22.575736508011495 17.379124986701292
K 19.997407571487553 9.968558138583772 13.861471462563497
K 17.453279554167835 15.885634949237833 2.170923448849511
K 17.883770414110927 6.949789582470579 17.02449400760583
K 18.663484275164336 14.990887423816183 21.101886357285895
K 18.874667449504436 23.20539860289463 20.994684889595646
K 19.20116283035177 13.649574846140698 16.828885411098977
K 18.128181670750028 10.347142946600503 20.34885918517522
K 18.904642663810424 14.045933717336059 12.223233572827187
K 17.93597260347199 19.219343952794453 22.8688546943175
K 14.448632610882626 14.421654602262976 11.837381988342816
K 15.892313465455505 11.259294178444842 14.825279239256705
K 20.335372045159993 3.662874761110387 19.233346212330115
K 15.131983380161627 13.3098625706277 23.142826434455223
K 15.148805469159617 13.109632614449657 18.700909045743693
K 15.147288677530488 17.55279942454672 19.64827674687019
K 17.00744423705312 18.095942916880524 11.077764156923605
K 16.341309169316258 17.03833243156454 15.327525862869912
K 18.476327952344153 1.8505854450470716 15.536322802815027
K 16.277605778649765 21.814633783985602 17.406559585032976
K 19.067540036950643 21.111287042471623 13.879268413386969
K 13.678659890764566 17.737384501938713 0.2150116128460029
K 14.418315697313833 21.819150874497126 21.468404244292866
K 11.866070254359466 18.095684106625992 12.601384393429901
K 15.727418923549285 2.4287177326320197 19.22646954217194
K 12.356475206455563 14.817545407050831 15.854113041249807
K 11.468669666334382 15.183496460600406 20.37362431154913
K 14.766036240142364 21.47602317831161 13.10384341725456
K 14.03190906843018 1.6742182928028766 15.148031788048785
K 12.40371110610507 19.417079195086014 16.85325748062462
K 10.362708567594192 19.60923602310758 20.88170921121829
K 11.515035477433628 23.5368068525944 18.46765725321652
K 8.522998616850767 17.022890965194307 17.35724613161383
K 10.37023793116023 22.232837097628835 14.056774791777912
K 7.420316538446022 21.314946393482916 17.409332782816744
