50
Energy = -41.85175495 eV
K 18.145037755645546 17.566190267739792 8.825352229824293
K 17.942340194549367 21.880608599751405 10.17626022784059
K 24.05903213256526 12.721973157718267 11.366469068617329
K 22.534805181556553 17.23908388710312 11.200258002204587
K 19.46534834110484 13.624847609670784 10.641605594229022
K 11.270573570492315 16.22309925888115 13.407428292426289
K 14.169517823940154 19.05036899967201 11.174935349782068
K 19.14304114226398 24.48619084741567 14.475863229721353
K 24.529122115037946 11.331551193141252 15.640678329605999
K 15.490644023965874 14.981919140171033 12.363535693412794
K 11.34347670300454 20.35027296616383 15.031368587109277
K 21.544496030390622 21.431487296319997 12.520193167038244
K 18.49031658059079 18.15919149086602 12.939784837168707
K 25.506202775417236 20.06040609240036 14.150362299492688
K 21.00883218175642 9.910714976627792 13.168573285960687
K 25.577995101812828 15.729145474955043 14.623660753167341
K 15.439741523019315 22.255279991544526 13.734271565780809
K 21.393102452514814 14.090900301629885 14.349937022938375
K 9.482994900132313 16.729554888365175 17.84374772083913
K 13.541074791126388 14.222872666769929 16.6580247238497
K 14.919269667784688 18.145039754520145 15.528237059967983
K 17.174865850576918 11.754412499926456 14.734045511764277
K 21.932948398127547 18.210922702704508 15.597082349998741
K 14.33239006915437 22.673491993497407 18.032124082074763
K 18.255080721754897 20.528553866217816 16.70605356902629
K 18.29669935572069 15.494431845493661 16.663793575360344
K 20.49157077302319 11.2916221030471 17.774764950561146
K 18.8743536158763 24.098355541942414 19.032557727207625
K 9.530030685280027 21.401620652847534 19.19158249035162
K 23.144634834159085 14.835298747734628 18.5045322450305
K 22.49647571576968 22.559788343497594 17.114242226581247
K 12.878567458600577 18.80244632855531 19.229230337826017
K 16.1899207313331 12.09614718552901 19.571425197358657
K 24.749339619721066 19.070099514744633 18.771169621628907
K 20.338006426667874 18.179841168758305 19.636427679541292
K 16.272150598911733 16.427499901568613 20.085121247332747
K 12.149183238426813 14.544627604166436 20.975497317702747
K 16.895028326432517 20.74165894656756 21.081898964488047
K 19.862552058852938 14.03802382816809 21.491879026387597
K 9.649858340702881 18.14511890125523 22.3071324630597
K 12.64533302669724 22.143161945318685 22.37499761251672
K 23.146322618670823 17.19348595022795 22.689026966967173
K 14.082354136750991 18.013637983606273 23.361764620597576
K 21.714927360225833 21.5621860292106 21.756848618632475
K 15.695309056505257 13.90212727596882 23.859376383247252
K 18.744169177455163 17.827487839944467 24.00345831695551
K 11.602794012061635 15.343388043159859 25.590732847260565
K 15.987110128233521 21.25068590926272 25.568337822677716
K 11.73532455595063 19.78000118117235 26.347432932100066
K 15.347297184553836 17.11074036934552 27.338479319652556
