50
Energy = -42.10095703 eV
K 21.973670203021662 15.34550987251382 8.664051634963233
K 11.971385909208598 15.350385243779696 9.891294767993166
K 17.342025410819932 14.939987100912456 10.045100973021263
K 20.598541142667855 11.405709883836964 10.46927658788564
K 24.90508604905452 13.151059243779672 11.625604949879921
K 19.86968504605672 19.04406173962926 10.452538323311034
K 24.293877205778966 18.239584009858365 11.936093364275363
K 14.225520077369973 11.5692810860957 11.229281383990807
K 15.158288937961537 19.092235677267276 10.951096231679205
K 17.945879256893942 23.17848380534112 10.470907644969838
K 21.35184850233643 15.147119529871745 12.960763062204421
K 14.028030755624536 15.286702246704612 13.52111588624525
K 22.01607999926276 22.468103849736423 12.762612517698756
K 22.373768560383386 11.296812016811844 15.035400826537492
K 10.431529742373352 13.126789415593866 13.880455356159512
K 17.87270634315232 16.93346737763027 14.073405337818246
K 10.861798019709246 18.661348840594506 13.095113838600286
K 13.905083602422865 22.859571594755014 13.504619374822887
K 17.891514107704655 12.347367760585447 13.955499907698773
K 24.650101623641927 15.312887890422237 16.031613347250655
K 18.04464809452774 21.13741305277573 14.24067047837556
K 22.038759862054206 19.039742500556617 15.736859598460935
K 14.179525837764263 10.837856326787666 15.813455183914098
K 18.292321722333654 25.34564940737489 14.59957624173621
K 14.328279138215583 19.079380747840116 15.631827431243288
K 10.963756879267379 21.31906416151631 17.61171693420159
K 12.703972042240073 15.32843700087522 21.260535191855244
K 20.074075152842074 14.931338328448653 17.382630650783927
K 20.394688655985355 22.809845532232412 17.95615220295082
K 10.871275357587447 12.1379385791331 18.58822155488904
K 15.336606684302472 14.789022037568577 17.45842204286949
K 18.25706103637501 18.99859422209892 18.00449537499884
K 15.729834486927219 23.085225188344964 17.936331461050198
K 10.637874678148005 16.637363989049426 17.375980045546378
K 18.747570081509796 10.878484389981693 18.202167986765264
K 14.1900188135297 19.07160913188439 19.822261234331197
K 15.162977390576453 11.5902160414023 20.782881461785273
K 8.296591128049167 14.734992164051889 21.32206934445732
K 21.705152717038697 17.564440897723173 20.550672344878812
K 11.224621977545535 11.612717105553308 23.226630011380067
K 17.175258324736916 16.088786925690965 21.1078646129403
K 13.07639533369515 22.48508412509186 22.062008937056696
K 23.172550812415516 12.728267315068354 19.4608745539174
K 17.927904596501747 20.923303398319984 21.90889882545622
K 10.071770490130536 19.05637232461038 21.694537462581657
K 19.801998689116605 13.08318703603662 22.406206793631615
K 10.847740726834271 15.707481850703806 25.110068127062068
K 15.27536255822127 13.92315790443908 24.732123653158624
K 19.035815696510713 17.19309233749026 24.67859040730326
K 14.282271789596322 18.63856904165253 24.29252578343548
