50
Energy = -41.87777146 eV
K 14.60665149441001 18.345699358645522 8.070803448272299
K 17.641522464443614 15.09412445609335 8.618100967155216
K 18.619029358870268 19.750367021201857 9.639507629491856
K 13.159517443392549 14.272277909687904 9.672042721153021
K 21.54111279555884 16.53473731951506 9.90314177875086
K 14.731385272074272 21.451653933958017 11.410035954014631
K 11.501556509241109 18.21124583013192 11.47974446581694
K 22.769164064556225 20.48259571272779 11.936747300943576
K 11.67304990129666 10.38684865936259 11.531456139086844
K 15.821188504075447 17.10686697101252 12.082928408827582
K 19.28402576550901 13.915049782501024 12.836612008099939
K 18.764363256590954 22.665998992000407 12.988885791306993
K 10.180190844791575 14.091825543385239 13.195819481881438
K 22.591274149563002 11.421733560597024 15.397837204162844
K 19.88326374714882 18.34927368074372 13.996251514107872
K 14.51763923919241 12.885507189854794 13.836643985164823
K 23.728765110823947 15.692773624886636 13.618573079136072
K 15.129874256525962 24.404309418848953 14.894013664360774
K 11.588131535572135 21.225633906568724 14.99073118701519
K 8.453909752425542 17.965497909683567 14.904630652043407
K 15.930675418618641 20.17835122812642 15.59062929579846
K 12.66321708916236 16.928483790910928 15.591682351839324
K 21.681400114686703 22.099286963822262 16.170966768387327
K 16.83861206680249 15.782199163631432 16.198510168023137
K 11.189855051248335 10.606320397964812 16.052062519541614
K 17.981003778330656 23.26311386486146 18.22965363201979
K 25.112602967621704 14.179896459515867 17.804357297458353
K 13.877124493023738 13.392112212150542 18.49449215289464
K 17.98011411134953 11.453777907056002 17.05179596807933
K 23.649402099704716 18.468633691542376 17.161733604993387
K 14.706182952546111 17.85588181854264 19.603045693769623
K 20.953218278478698 14.963609712205429 16.983027301263405
K 9.600889706346505 14.585221980885034 17.7972036761453
K 14.44554045528906 9.0577012801149 18.984058425719365
K 19.157911144939767 18.76489740261623 18.62900381300189
K 10.810982397711262 11.127672645284868 20.6197080009574
K 10.416578932050761 19.006523201195375 18.85412861884414
K 18.03167379687439 9.880833498312116 21.2994418727049
K 17.904187006999003 14.608696876932013 20.446827304493457
K 13.562155803473004 22.44725285006259 19.042156138195484
K 21.744335360588597 11.884771396716793 20.055095161224422
K 22.483834900961366 16.23942349796246 20.935467107464852
K 16.85717025765021 21.154534922983846 21.928176219310483
K 21.649544600375684 21.231645189807093 20.78809532268057
K 11.596460002477953 15.44199733925888 21.82771588431848
K 14.63107545181646 12.132619857352264 22.828811674495242
K 19.098955377007425 13.349640524186322 24.189770730451322
K 12.692590845236994 19.735137890778912 22.971379626535093
K 19.476140249567095 17.954871975677886 23.37031399430174
K 15.475650810115763 16.35557066525144 23.880883281413908
