50
Energy = -40.47051858 eV
K 0.7130906236394704 23.036627569722548 15.856940740621763
K 16.826766604632446 1.38048830332672 14.96895789014402
K 20.81571254415185 0.2726345113397435 15.608392732527495
K 18.125630544259632 0.564719917532809 18.98025049047515
K 17.65088725963181 22.293036619043242 12.231347618526376
K 22.216387948342547 23.846514577745058 19.996128957621373
K 21.508822680975417 20.61698219763561 13.40564776376351
K 13.813063640754217 1.1950738760442075 18.08442473162331
K 1.9616261507215738 21.896439282997704 19.729606142813285
K 13.848347833461188 22.227832003362337 14.801034516515887
K 1.4174248258957451 18.901939125171257 14.585655139290088
K 18.075738112705572 20.86391465276111 16.285339505159023
K 18.753609270117163 18.417002223458404 10.596250447562321
K 22.642376792624667 16.709268942104885 11.881730779294562
K 23.489780634160095 19.861932952246075 22.421523134247415
K 15.194381588310698 20.85522356944345 19.32808966916663
K 15.020135227253487 0.4806819983204294 22.114090490216245
K 19.300210820883024 20.39561333188599 20.736781745029596
K 1.8021781306142923 17.614289478137824 18.890635410682478
K 22.299201463173276 19.845974003809438 17.661928424082998
K 15.271641102984242 18.617524731057973 13.20456723856767
K 23.101689627079722 15.529479507025451 15.908470213492796
K 19.24504039930236 0.12584216356618316 23.197486862336486
K 20.077799524236923 14.373190428893585 9.11463201184137
K 19.186822467270655 16.865862638847602 14.802002812435237
K 20.326831637503876 20.719388452376734 1.2612713999849012
K 16.623875966894307 14.665281369589497 11.793719256416113
K 20.31130272665627 16.289681055636443 19.246987919744583
K 11.010558860904545 21.811401160469302 18.42097774431364
K 20.43697535166781 12.89081109399793 13.243541752938564
K 15.9184285132681 16.662422386049833 17.353839475088694
K 16.26125293087781 20.798796928677007 23.88116166503477
K 0.3391800084928688 15.7039849188365 22.586630085373585
K 12.13260264760133 21.24353631468623 22.557034026256037
K 11.924225623688002 18.425374279801616 15.996285983649111
K 0.1743950116113851 13.247265770666395 19.173418506217605
K 20.504548312294492 12.074649037523761 17.43566492899887
K 20.65149448657262 16.702842061809587 23.823715932520283
K 16.669916649224234 16.926069688088013 21.65021813935617
K 13.050240968720356 14.873211221612538 14.153324381403142
K 12.498237676512446 17.371768513918827 20.124423016488905
K 17.272962409402712 17.312727442378428 2.1519739919940113
K 16.550843643708443 12.494279987958402 15.621277955405203
K 21.05591692159537 12.72362767691053 21.851723000504514
K 13.239302783357482 17.555828444119005 0.34821605373944103
K 12.962824208104381 13.36526235839743 18.110945618862118
K 17.65679622918368 13.331631077127728 0.1660624606894289
K 17.024105143644935 12.747322957335802 19.820138974631597
K 13.599007951675267 13.599021386919219 22.401194362925942
K 14.206900898844099 13.953005844931118 2.7559964313498693
