50
Energy = -41.94242679 eV
K 15.417250370155557 16.60303396682588 8.630798382174214
K 19.887714021754864 15.324013885170997 8.128354351761292
K 22.71898767262679 17.113351139430826 11.33655887184399
K 16.910597091844718 12.54035087872505 10.16838751839392
K 21.148485052554886 12.897024963495186 11.831707605859764
K 10.959713231969348 18.163482838432547 9.21574462119706
K 12.288677874342811 14.049735221882937 10.73750467617342
K 13.74434799503807 17.87998586590165 12.53021131667995
K 18.101203678795322 10.31825761439887 14.03555929906083
K 10.449148994013369 21.152290738319632 12.671572728778639
K 18.312105503923597 16.35975575807168 12.001400860514128
K 25.183640364698977 19.30369796716912 14.654350171478635
K 17.379095194549286 20.782103563292715 13.146883034617474
K 23.892557556713708 15.008619701261521 15.165926187565477
K 13.79648946722319 10.029299138033368 12.440933233422095
K 15.218230545052972 13.74787443277754 14.117118190254308
K 9.438094299225945 19.772114496557997 16.85970639653546
K 10.797774731476549 24.052653636294753 16.179281287315668
K 9.506870644790858 16.705583609781954 13.27070256470034
K 19.52099062781327 14.054201745570916 15.845673533991143
K 13.703549504356504 20.822908896310494 15.998765651949611
K 10.927383504829221 12.666396215032881 14.896495339199983
K 12.430113906922127 16.40250271803282 16.70803387209838
K 16.65421896307464 17.468041365257033 15.914043211001225
K 20.980033866425767 18.40895221023441 15.2647876176511
K 22.330843560091477 10.692341737710056 15.830739220034985
K 8.29839995242539 15.374885677384361 17.47247945401742
K 14.585687198342914 10.27524380973287 17.011530064787795
K 15.256012274749807 24.523991503465055 17.939831647240688
K 18.165355169599327 21.168712743406665 17.747258902967413
K 22.595476720731718 22.02192793355223 17.330721161603062
K 15.92790040238247 14.076808745460971 18.75555878850564
K 11.590307020921232 12.932628104974853 19.54153977323488
K 18.95984503232065 10.593675797025636 18.880779100284148
K 23.818235890381725 17.90247815624495 18.75696251058999
K 12.10358913898249 21.908622266715565 20.00715887464574
K 19.46101807370917 16.98984556997419 19.363413498539746
K 15.09435867773842 18.54843489144477 19.84530586957822
K 22.50980048323479 13.604490885381644 19.228234377285737
K 10.769737515115866 17.564162014377096 20.62845502453017
K 19.595838197361036 24.82256084437429 19.52488024647657
K 15.180222086507634 10.644040561013886 21.607059374222825
K 20.912829324700372 20.711902256548974 21.291248207988104
K 16.61782095378904 22.277408358549422 21.74774138523504
K 14.281635898814697 15.121527768229551 22.736557647309425
K 18.618978495230426 13.55086236378902 22.35218890792439
K 22.04084450716766 10.810560111537454 22.41341244409059
K 22.156228322257853 16.204231226749016 22.785663927354015
K 17.845725514793745 18.098946909811676 23.31585020627359
K 13.521808398739338 19.55925067054384 23.740702335323846
