50
Energy = -41.84405135 eV
K 2.449366558052125 19.30824951226694 22.296965823936368
K 1.4728665719306098 17.444788240602804 18.5142019663388
K -0.7922827421230975 14.138728488376222 16.237131322633786
K 22.984151515240878 18.884320666569796 15.182988184291638
K -0.03752222530427401 13.990033643137307 20.769630649551456
K 23.13917611551214 21.15334687719512 19.747314502005054
K 20.795731231393503 10.992126127141502 13.814264526909186
K 23.812606212883747 21.216492878858915 0.6833423630794688
K 23.48893819264491 23.476326537396503 15.342929607090204
K 1.3623837835579315 24.17085071885582 21.93894968643008
K 20.454775384495548 15.645195906917738 12.906426515797783
K 21.91071574173863 10.412417546692563 18.21414378485865
K 22.307592901022723 17.41692779274604 23.043634153502158
K 21.01172777256107 17.226097750645987 18.714536438111402
K 22.67192114240556 3.8055792485493907 15.12631536332054
K 22.279850509033846 1.5288933319723255 19.066858243836812
K 20.05077076353078 20.431963725518372 12.2978142874832
K 21.178170849362775 24.174774975827948 23.146627149346333
K 18.862913773954773 13.718419383787193 16.73477546633153
K 19.337147918617518 6.938361773165438 16.283966220779867
K 19.726531091616245 13.556348843959388 21.20582971676089
K 19.697244649855637 22.082134581066136 17.026475163176016
K 19.696981982814336 20.06416726006692 1.9184738859766681
K 20.414051911779225 0.7186960509830147 12.447776360399311
K 18.968021705073056 20.30546275642245 21.590468429982465
K 18.583106547747207 2.381777144717077 16.27809082121401
K 17.78685617441808 17.439004684575103 9.409872147731313
K 17.743279020427472 16.431625690614478 0.01158291687351182
K 17.394885942686546 21.904430120887618 9.04409495983492
K 17.434391638150743 9.97267217654461 19.273712274582206
K 17.80932262903607 18.24270813054557 15.545964238040266
K 16.33804685838051 10.250628062050536 14.790007189918242
K 15.686628155194901 19.26182529188948 3.7181974725426468
K 16.566013652167992 23.043569866290305 13.87888058597907
K 17.765029070294705 0.40755125637834155 20.399729383455075
K 15.201432953321595 12.925437195840834 22.322465693308036
K 16.695053241012456 23.058118180055725 0.3702840055198746
K 15.598228832227356 20.909176412015633 18.574507366250163
K 16.574403031387426 16.66879034362604 19.801687808750412
K 14.840646588216297 19.27518373253509 12.223769373350628
K 13.271646488201995 15.89598873350876 1.1316739361421913
K 15.920665125524444 14.731721533012628 13.26066039507293
K 14.454876616115754 19.49624074624351 23.072179340443927
K 12.159320861229734 15.914315572673837 20.85999620581584
K 13.32562166556562 17.36260867980237 16.404311661464238
K 14.434139276122705 13.173139960777544 17.76458585554897
K 14.427233005348139 1.0041716522353725 17.42445177092919
K 13.366859482666401 23.738039821064234 21.566902681942523
K 12.482784489581192 21.594502317175444 15.468287884549747
K 11.345404076958337 20.078070578483214 19.66051052373382
