51
Energy = -42.913472 eV
K 16.056435909365238 17.8321289849793 9.096513036674475
K 17.165636103172307 21.73883910876924 10.786631552532956
K 20.471322257710877 19.28009180367351 8.911915113223241
K 11.603947163131066 16.63948670459575 9.707887883269843
K 12.636885305905633 20.861015936680538 11.465626585978125
K 15.072845335539956 13.663383890965445 10.489903912042276
K 22.271466827283398 13.017969762928526 13.471953648385846
K 18.761681025116825 18.17202649689411 12.771444834127225
K 21.819168497478373 21.327872748573906 12.703367737493702
K 19.666940716933368 14.918180922352322 9.912063676950751
K 23.173325033524222 17.19913428168938 12.06322522285675
K 9.797689122487967 17.946301755134975 13.715282911229567
K 15.506811746042448 21.132991919044294 14.981544633326848
K 11.30865453811487 13.593331090240067 13.025701242985344
K 19.446109727526846 10.056377356048541 15.55878235728521
K 25.625343691184252 15.4032107612783 15.587277642686526
K 14.255362342227642 17.096269537098312 13.141568619966328
K 17.943002302944485 13.85881850282359 13.848431858018044
K 15.155336628114192 10.431147986139049 13.743899067434246
K 11.036313642243604 22.02487077672325 15.634729310269014
K 14.151719626840986 13.900624687389541 16.414699280295167
K 17.04845509998878 17.290056807125758 16.633478788904917
K 11.352171771685965 10.604719052474598 16.34829084382139
K 21.424231318309825 16.452715078167262 16.14690196470124
K 24.30483045148748 19.835077535595698 16.333839209163656
K 19.871840512549973 20.73871733546112 16.765862767039295
K 12.63388393115328 18.211374327901652 17.274720424903872
K 9.711584891012071 14.791923784619163 17.064089643381386
K 14.271335076407011 24.12058869560867 18.184105017841002
K 8.393591232941372 19.06206026141651 17.91920852828605
K 22.995533138362642 12.576362144049892 17.939609116775046
K 15.739792288593621 9.881163551720936 18.230933760610508
K 18.673507004094706 13.516472948150327 18.337108815342248
K 16.075444194621863 20.405040452173115 19.56711713352741
K 18.839321451114852 23.738696815605195 20.014681145589197
K 11.51891476833214 21.418979790892845 20.238479061514184
K 24.222443467458106 16.71729503348112 19.74345054252831
K 19.780577287718714 17.629470592976002 20.22632002558551
K 20.178720600680627 9.86474251578471 20.122995065841362
K 15.318717361453908 15.985280374834415 20.45180619843443
K 22.615845825223158 21.076942326522932 20.43032707159792
K 12.379821151406766 12.615072132942132 20.316415645677825
K 10.89118990164362 16.896807469915593 21.13519007098842
K 15.152378896836142 23.50920244703487 22.470941777710433
K 21.4064845442606 13.814472974120811 21.964693688969685
K 16.92433664742305 12.230318592424503 22.254007491954717
K 18.941219092840797 20.825619426556855 23.277919271640442
K 14.32711587651282 19.139403622864684 23.455765851609115
K 22.38512285883027 17.89798844898624 23.742083348777538
K 18.03141984101115 16.31760712978312 24.08321030784661
K 13.601030721100873 14.678612064730336 24.230856040348385
