51
Energy = -42.70887607 eV
K 20.626469520551606 23.834076634486472 12.607477042684247
K 19.57312082443698 20.633316086921997 8.043666082477053
K 16.886215021444777 0.9922459174336281 15.207273161324174
K 0.533889663821052 22.842700257314075 14.998839208898099
K 13.108047114607162 3.006294884427585 17.26452873372984
K 23.67606245275054 21.735872905421385 10.477842288362982
K 17.23272775804426 20.9662180546359 12.781862151564212
K 13.146272359052483 22.87980290447938 14.613232499286406
K 21.009781490473006 1.4881540639318926 16.89216764147251
K 17.2531801704335 16.917924942303948 9.928996330605264
K 20.893362975012842 20.40888140647688 15.72656503494136
K 13.679227780709114 18.174441816824025 12.783104716423717
K -0.37264253511374773 23.542993219656974 23.66257859697271
K 16.948595910364233 3.3610854373070254 19.18904798769876
K 21.021401637250758 18.395266128775454 11.736980704900606
K 22.561788167034024 22.143584502512184 19.494968193970323
K 1.116531747943844 18.446184176503607 13.266298567645972
K 15.562683190144668 13.87314356410139 13.159010330544932
K 13.46952753334068 22.89755732069032 19.19304578152018
K 15.223204486355833 19.500668432369057 16.88924621714266
K 18.034962352112576 16.923069179829948 15.022007443566368
K 10.610189030162696 19.545947370414524 16.143673147365583
K 20.23076608032259 13.921283312655369 12.222445903505905
K 18.038858410261145 22.486525236540043 18.76887435382596
K 20.249179583980997 1.4745222056796965 21.445718022756918
K 22.400502269844495 15.727675419748854 15.835029863433183
K 16.14865338510654 23.6460022283109 22.865663944536344
K 1.1078321549204997 18.97851261890429 17.6740561238045
K 12.599614122074085 15.360679795589656 16.171482759695117
K 18.781622646452348 12.750993274176757 16.48711041669818
K 16.14481085034121 19.26695955427552 21.24295445074587
K 19.961412700570865 20.6564509956386 23.173303210802597
K 20.29342373921632 17.784109060090884 19.540477552042184
K 0.7192824571618114 19.314984208422224 22.175043647163527
K 12.417227881409516 20.667988568599323 23.28022903986056
K 22.892660669764766 20.269246935113202 2.646450213372725
K 14.652306042357827 11.22693859480535 17.257975376009366
K 12.023991938940698 17.768601661666047 19.91157307646685
K 16.12743936559967 15.309039968219905 19.14466884483817
K 22.877425245495573 11.280564939625508 17.63690389759401
K 16.158606646202124 19.52716521741523 1.7119586697184777
K 22.129096434089156 16.48772845992881 0.018468989121647992
K 0.22144656907612204 15.081114834572796 19.961258662505337
K 17.9557030122077 15.785904617227105 -0.3964785183906041
K 11.964798679703604 13.144373320526654 20.275632321380023
K 13.566007827177385 15.837396836147969 23.61665887676294
K 18.412588580206755 8.805183579557573 18.78963493763469
K 19.525413562913748 17.949313645151715 4.237559777276885
K 20.205791218968574 13.15974740158099 20.679860254772642
K 14.277067579932627 7.142979217706586 19.512432717756283
K 15.874357979869956 11.622714582071207 21.753376866479602
