51
Energy = -41.37481708 eV
K 13.324710901488968 22.689855445520436 23.152506762922044
K 17.883950649000905 21.607872864016056 0.10776920355255527
K 16.247496517920847 0.9483117472659608 21.36714341517074
K 14.403015009980441 18.919847077351285 0.3731322819435956
K 11.275456607153481 19.758215305970847 20.797088365094332
K 22.33497723324308 20.993311350253634 0.31866638147082127
K 20.597896936296554 23.8118076201747 21.301528029179675
K 18.25078032578648 17.990413961779314 2.3899859549152023
K 18.439852724102145 2.4909507063452283 18.155432790499844
K 14.986908283322375 23.671295954145 17.135685109865747
K 15.980012854269189 20.56857301178447 20.047645352120792
K 15.30156870566636 14.853881986406092 1.3346442377980043
K 11.82284390957798 15.754770608379088 22.557664348438536
K 12.430558680085156 20.312582212914613 16.638619446262613
K 22.614698428330545 1.1292767221362663 17.641073292863993
K 20.564347611703354 19.43704531008864 20.579031816465292
K 0.39498878635737894 21.627079027631652 19.908334637837
K 19.160307601805012 22.074607690552476 17.255558468838913
K 21.570231958221783 16.53315799788647 0.2477734586180288
K 15.285938390485226 13.18045836872772 21.25159050279342
K 17.52321936443508 16.822298194651136 21.824243419133953
K 20.69266889857885 4.346649982553802 15.110297980024457
K 14.144702684360778 16.94099326193118 19.060286718736425
K 18.93081286831834 13.003653666843649 23.887424129577386
K 17.733369921598243 1.025610087406395 14.085097415829335
K 21.997485194878617 0.7784447954368394 13.263032209871984
K 11.536460474978684 13.395516367924504 19.031066122700118
K 12.986700599656677 15.069296811844145 15.381368886699288
K 23.130674363025005 12.440923213207855 22.69653825417226
K 0.9735929199608608 17.77463741441981 21.7673110610452
K 17.44078050832833 14.67881130240183 17.39785437608697
K 11.971637398346944 18.527359250812868 12.863909669747837
K 18.860118329287296 11.194414480976018 19.892245390275587
K 21.240115229116746 15.161422558171862 19.78702522856088
K 16.150163384501994 18.180853794753602 14.997484961982506
K 15.115665655864925 21.651519006859743 12.796305678504343
K 20.164059382862725 17.922596876804377 16.481826030149318
K 0.5869244430318499 17.79757774890857 17.43474398496379
K 19.607890999890554 21.058695852510905 13.02292041764619
K 15.052453279475536 10.984699630290857 17.56949552176466
K 23.28539543839317 21.251295586448308 15.405686522768756
K 16.033074859683367 12.148203156675137 13.632288911450928
K 14.733243369558187 15.48943968695727 11.38383211337942
K 1.7635307125777329 14.160979221956683 19.318661914885013
K 22.925500307544926 10.827842723113244 18.358329967146307
K 13.671350862617215 19.1009488768114 9.000270811445665
K 19.715408575574244 11.22025757954816 15.380743125592906
K 19.11374898588842 15.158722210715743 13.040142523990768
K 17.650847006325645 18.462807032889284 10.547384668701246
K 22.868499771804007 14.299565910392294 15.529886227850014
K 22.70891088570683 17.67771892981405 12.943133208764866
