51
Energy = -42.92284998 eV
K 14.579534616353842 16.259532942864457 7.941678035205022
K 18.755987499202245 17.055738781609875 9.344315963887857
K 15.45717228370356 20.220986081958387 10.004986081581706
K 17.318782471378395 12.849175068785422 9.755146074419024
K 23.03746578464979 17.572924501667373 10.970312569712995
K 11.539835333634304 18.150112237189976 10.940614873342797
K 19.843322283973702 20.8989424853199 11.454960585607871
K 21.34152655148141 13.337408947497314 11.632681023829223
K 16.497714437548094 24.06151881590134 12.239172297987698
K 15.275632828762802 16.14417598232238 12.201858090056666
K 19.37886750340788 9.34380407198059 12.190985342154518
K 12.352751019452072 22.35353782007688 13.003171900876307
K 19.685589386882146 16.93123728633402 13.703141425547683
K 8.715136210336142 19.548393031528295 14.090085996230599
K 16.570867455246614 20.244801046133592 14.293495689743796
K 11.086250401726438 14.898884640267346 14.653292394677754
K 17.702522724000964 12.699139011005883 14.317992900699112
K 23.779743693084857 15.25228799841917 14.912648404048609
K 12.675842560969254 18.681589807682 15.27480236153058
K 19.585553353289736 23.247252711346835 15.558039736538092
K 13.627698185309054 11.377135854168012 16.821559221792704
K 21.80324851028249 11.070841714251836 15.640195720481968
K 15.029869948243364 23.80502132764503 16.515288386225816
K 19.49419555336258 19.220542250402755 17.682142866707473
K 17.93399482864421 8.901498126347498 16.587203419773676
K 16.23289977446863 16.180334614272798 16.424145870807006
K 22.605135774033617 22.13999996004067 18.943962984749927
K 20.427291640290733 14.757702523970897 17.66364929712783
K 9.61417060137299 12.75135844110479 18.321456129512782
K 16.961352993315405 12.57242081070914 19.009936570546543
K 18.11725655319674 22.94229068922446 19.905860279584296
K 22.859807360529626 19.915936125933165 15.001628257457574
K 20.564832604189693 10.52705468672459 20.217594562851186
K 9.158551447807364 17.469629303283284 18.035796704614423
K 24.167395926014617 13.020205021168188 19.00754742709016
K 10.863430396073445 21.82869344256202 17.515077109735337
K 12.971480718409556 15.555295565449752 19.074943258118157
K 16.235350972023816 8.766182082623162 20.705002244000273
K 15.032268573763133 19.88961398527079 18.750424556012145
K 23.54255264593126 17.57760863040442 19.047220806954783
K 13.07320397154169 11.865528434095436 21.434644851917476
K 17.340678104296774 16.535854943205116 20.807689919967927
K 20.598219148339446 19.348756489914294 22.09698434576236
K 9.807856205232092 15.211206660790742 22.122240079292602
K 17.365336910770647 12.45094117836432 23.255081918771562
K 11.612762253438252 19.270925190476365 21.455878140275093
K 13.610382283314452 23.36617083152474 20.91232640541441
K 21.27713210492216 14.741288313492609 22.036654473556283
K 14.00998775435561 15.803221606450919 23.58626777502789
K 15.863676915673008 20.041271236174314 23.16771862690893
K 18.286829628203883 16.61297537649553 25.039444727717125
