51
Energy = -42.88004902 eV
K 14.124028791354949 19.615603282056444 9.849066738481554
K 12.026697895717053 13.812149685786336 10.394318180220672
K 18.92715815869745 20.6225782486257 10.661968989302673
K 21.95070189799027 16.450992246944274 11.241417585278668
K 14.844864621763042 9.929304553693024 10.568460410371957
K 9.710220443562045 17.91791040244932 10.383931103502189
K 15.621353299925886 23.761757213773784 11.856766390225046
K 23.09296257657599 20.772737817494388 13.036511347601003
K 11.666009312363705 10.859698466626527 13.83080047177822
K 17.19716630521936 16.445937794942818 11.337704779821035
K 20.047979562121206 14.1440977472991 14.650500387002984
K 23.585404567841444 12.357926961027662 13.311692050647222
K 19.250953960586685 10.926644802908205 11.874628635657958
K 8.838884180181745 14.628351358903018 13.65921805654868
K 19.112869124481424 22.92911443479363 14.917667237935035
K 15.431474580668498 12.981027585150377 13.420421633518883
K 19.928465788445326 18.524002408981367 14.517789219709128
K 24.01816137226579 16.808976094946 15.096307121237063
K 16.2110582517558 8.991123239633339 14.800845874247495
K 11.718239020779734 21.590643806639388 13.345401870715447
K 8.509124993725054 18.916276651887713 14.591370894696555
K 14.691497766670087 23.40870880810038 16.327251743949944
K 15.859442696990314 20.090155990429007 13.80033261864461
K 12.69866618495306 17.002630941179163 13.192101030000615
K 16.381563103022835 16.37585751829911 15.824497195534681
K 12.51892601540197 14.307478411720114 16.696988650636666
K 20.72774090682564 10.097303062598552 16.15425125656745
K 12.892139888402356 18.961469881905124 17.1511918257257
K 8.8923894133544 12.039654750231616 17.330997633060097
K 22.18489140270136 20.72436183581898 17.51157765169748
K 8.952176599199522 16.565688655049524 18.13187735829284
K 17.01909064095102 12.537808625644631 17.62851629653614
K 23.73276003658176 13.297288743139848 17.82991864054531
K 24.801484353033942 17.650624331180893 19.239060531004984
K 9.772541191808784 21.469487765672277 18.14921405806852
K 17.42800590198411 19.830094837236782 18.15662693704716
K 13.21651104490609 10.23966480516265 18.09887819576009
K 20.276441516763434 16.1828496551197 18.63377659743348
K 13.812534239637401 21.9910016000231 20.316338863018853
K 17.44460187808713 8.525741694180276 19.140074132633107
K 15.191421352232586 16.093216424109556 19.965318446627037
K 11.367445107009218 13.847103566271109 20.936919622340117
K 18.418039655974177 23.172443631748973 20.21623861373067
K 20.29303140204375 11.885500251926999 20.43889426267301
K 11.401464063434396 18.332843742046386 21.385795743476194
K 21.052027382328102 19.323000333696914 21.61256209590348
K 22.94124508975288 15.100913499086664 22.133597125849757
K 15.664749892795367 12.035687080624978 21.782099918852246
K 16.58955526702452 19.50294910185855 22.629576321721782
K 18.59380065388359 15.387173163627235 22.873619498769965
K 14.158957837314455 15.823363678839568 24.154039346489792
