51
Energy = -42.90182778 eV
K 13.929939047956132 15.44106090271892 9.245019904070292
K 18.3952980930809 17.098889535479294 9.043637188644755
K 14.761406267079394 19.879467645630726 9.713811654956139
K 10.416342397346668 18.07224093028524 10.112575878028016
K 19.23533962081353 21.487700452060363 9.590529225155478
K 10.438000670292164 14.04211013754483 12.233545771698127
K 21.35758178041882 14.078049778313487 11.191057975218428
K 17.06003072953157 14.383375854672874 12.497318594107433
K 16.106359553351602 23.242011910680503 12.441408644919633
K 22.142876856320886 18.49598325259652 11.458328303405708
K 13.454086784361799 17.261653301748794 13.14947426604272
K 11.743855477213364 21.591591902807764 12.712846074802629
K 17.878914666999417 18.994140625830426 12.920360731784244
K 9.304609900683797 17.852089752829983 14.46695695084941
K 13.97516608855358 11.170118343580649 11.862596428839577
K 23.536865298724074 19.134092011599844 15.861856497303444
K 24.742236432313195 15.221574728012992 13.786721913732633
K 10.834007060447435 10.037745170602383 14.73516727762212
K 20.797831641038993 22.18826358407474 13.738930000224677
K 20.67619357431873 15.87306422034663 15.079072784479251
K 22.426468810385362 11.645972804304057 15.509200942299838
K 15.096374456269562 8.932006792978681 16.1506459890271
K 16.513093288013696 16.41959916998091 16.330404506718825
K 14.814359016620108 20.56115288998228 15.861558183643673
K 13.25853496210778 24.642848361227937 15.719995187261516
K 13.589105746337985 13.261826133336186 15.586928584340733
K 18.13548905894283 12.167130443533582 16.487964560623915
K 19.685374644803566 8.13048604214639 17.185029650072874
K 17.699890039069647 23.809349783728457 16.738303142280902
K 19.367242722859306 19.727066815478498 17.20314707208973
K 9.41612262594635 13.861642070268086 16.788682581469995
K 10.653572373862504 21.2305938000278 17.327137617868857
K 23.80499669767819 14.96702535967566 18.272943748655592
K 12.313024537017094 17.12957209174981 17.710758390648756
K 12.13579981407162 10.663096776777461 19.079475964567795
K 19.50688851519002 15.39316998992287 19.53317812468511
K 21.245946096722538 11.213524059714997 19.931406917877
K 15.287713184466824 13.828689225442334 19.77534846581578
K 16.892686476976454 9.632652884580391 20.262354640308462
K 14.339254414457042 22.605123541861982 19.800514765023106
K 22.26529826058499 18.642031940146996 20.410707952522117
K 16.05365094785314 18.413600419234875 20.14642488597515
K 18.851046602935327 21.83655950982426 20.967506246049687
K 11.208948796992814 14.554488492541534 21.156575572189055
K 11.804776396124259 19.169422589571845 21.52294775648389
K 22.542227340133543 14.653774904906166 22.600470325324135
K 18.29694948797704 12.939392691090442 23.057789674988975
K 13.897619669390995 11.454718431626905 23.177593076998313
K 19.00502020655089 17.50961078967637 23.520248034195834
K 14.776453086131758 16.000960118951255 23.686346586560983
K 15.494712037198022 20.62326928881075 23.82277704206528
