51
Energy = -42.92238664 eV
K 15.083761226642427 17.771888721055983 8.626332995229044
K 19.53716248152941 18.156169806682996 9.542304313001436
K 16.691395441889306 13.635705363510125 10.394891422184836
K 12.772250554223659 20.1614278841268 11.91667902714772
K 23.901400262139436 18.17057167138133 12.78938291180158
K 21.040697707929557 14.601403967627078 11.40254804004505
K 17.060861172450462 21.47306184762909 10.946306757129673
K 20.005428584003475 10.342452161347582 12.93939134340991
K 12.058884029434862 15.429515310747009 11.614271272587393
K 21.46065878278965 21.684582442989637 11.558124112908251
K 12.536603368432784 17.612195085148272 15.511071055852176
K 16.04730612516173 17.086423824269446 12.681945138081566
K 15.464304286624067 9.796820148902537 12.432144722599482
K 14.54725706906359 24.368868581116118 13.61145628336675
K 19.965497613674998 18.229258286510134 14.263711011228246
K 18.23732810502832 13.644722531362518 14.705577231948082
K 11.7042668538984 21.965392601655584 16.26802305664076
K 10.618012733292714 11.092662043651039 12.971129617309646
K 22.792905970547064 22.184714585123665 15.734657471080245
K 15.899113762032247 20.657003194558143 15.179373991233266
K 9.370351657429879 14.677275200691964 15.465105233406469
K 13.866997276597267 13.018781150777638 15.057930379760652
K 8.839493345311796 19.011636074767964 14.188794117365836
K 16.969130095342322 9.031270900332009 16.458188750936863
K 18.91773050405289 23.92394414247091 14.463159164426868
K 22.864027542422516 14.289471696361637 15.291515976731993
K 16.58861167954594 12.789813728567887 18.836557619247724
K 9.881636836980238 10.852167978683243 17.681565963640757
K 20.692801326859303 11.23791130594766 17.847640791200998
K 12.737858660246328 8.19792650909825 15.56256347300353
K 20.072311710924026 24.61522743886308 18.715134552799196
K 19.170116228501048 20.258866253259118 18.15269063843205
K 23.462032700704068 18.218125026433018 17.53591175543148
K 12.557459818169084 14.618626822044504 19.05516395615612
K 8.181404341653566 14.558072274612844 19.862295291534803
K 13.568280219825843 9.471341594666969 19.66821108630303
K 15.856066214173763 23.718143888487322 18.15353832077199
K 16.226243713442226 16.777480852485862 17.103556353724816
K 9.715530758985807 18.496514018267145 18.735835342690876
K 19.9954097578647 15.690360924578952 18.31743305029617
K 23.555838546995947 14.337707909388156 20.042634876126986
K 22.702458784253842 21.673899284473407 20.407661966002088
K 17.787048015783178 9.295600697095248 20.999627269756385
K 10.717272248162132 11.919594773423468 22.148440055029976
K 17.960213999516583 21.559550981470366 21.929459057798628
K 20.997620511353844 17.889188662292145 21.915135305927887
K 11.631973850198923 16.577980676363946 22.60109477761588
K 14.915926597628022 12.665769375054635 22.812327886085313
K 13.966618135923516 19.802148131049496 19.631938067007972
K 16.61591674144762 16.825385363166703 21.546758576133676
K 19.592387695849766 13.337241952363314 22.12467421680055
