51
Energy = -42.90199058 eV
K 16.600592011699895 17.664774063063813 9.087190410365256
K 17.708904599516494 22.02144634369421 9.740078863501878
K 16.910327795151847 10.543103208244098 11.621818487349769
K 20.748574385985787 18.52849760132018 10.337400994198127
K 19.209807294456162 13.911040159068918 9.722304837746073
K 12.980276838214056 17.809400627094824 14.358006375140706
K 12.506342720110942 11.692452323188103 12.286042560614106
K 23.49930193731482 14.931811921393113 11.20977842400057
K 20.625162006557364 22.250652630626174 13.286265504616027
K 13.523057410715632 21.009692182334938 11.119275406105887
K 17.72914487324661 12.177513372282007 15.758159991241712
K 17.232007918792164 19.2834945741909 13.104750953410388
K 15.808215515921557 14.709049690344953 12.35127525699268
K 9.356580102771918 14.975329438766117 14.347506066003156
K 21.214347326366898 11.409271652202778 13.091324906414755
K 14.31869935394953 9.195498473515077 15.48232648281224
K 20.101512322073773 15.65384193215784 13.800988707216337
K 16.165183912469693 23.56328984860036 13.793312413154773
K 9.38645704013618 19.328810512444555 12.544321866571357
K 13.242901569744589 13.524956296248085 16.211994642559482
K 9.902498784004724 10.73136522431546 15.849817269736564
K 23.859238046078712 14.101054489003166 15.784963668076156
K 23.53244099608465 18.614117095058955 14.00342482127859
K 18.77056762009301 8.03635932481598 15.060204059792756
K 15.572544211905422 20.60266694674334 17.218887713257075
K 16.659431118578965 16.38662870994169 16.432745309903037
K 19.978286823424348 19.35851584923032 16.707509148479836
K 23.293407086550406 22.18984972574371 17.040645806940784
K 9.494852013450416 18.680160282751547 17.06137177348306
K 11.861603919321515 22.076265490142223 15.258087519640533
K 18.966462350193087 23.652976447061477 17.46471217497625
K 14.55623520761586 24.76519392753664 17.922442609579594
K 21.553167821713327 10.716059642575468 17.671355102611457
K 23.755156489944156 17.903242181497912 18.371400963754727
K 20.427089777411197 14.885282557205644 18.38857939941142
K 9.697240434246549 14.24901810677989 18.81914398063367
K 13.181674924532933 17.197272751510372 19.035776789241893
K 12.0692257425356 21.42690983650328 19.84831598444769
K 17.07823158402269 9.267953473547875 19.162299382085376
K 12.568270656755294 10.6272601966737 19.617337396156778
K 15.963731316937997 13.601248883742029 19.84311996678101
K 17.627635501934495 17.912001685465878 20.507106984975085
K 20.86809826351767 21.161520674385606 20.75853082451816
K 16.44088820384866 22.185077359175448 21.287588412118012
K 9.765840892192154 17.889581819036845 21.615668846139947
K 19.576561207607273 11.935846893713203 21.645324881800224
K 12.468169840425855 14.310246656655556 22.511888821905906
K 14.065358305826035 18.78474139833028 23.10323433976267
K 15.44395010713193 10.872378451328402 23.20869306947748
K 16.666413612652583 15.140064459364977 24.06103280621413
K 18.405564179021624 19.49244658413713 24.421900997559536
