52
Energy = -42.94134589 eV
K 10.943003074564471 17.394756584848537 12.420141444652284
K 14.577175181748819 18.499086585265243 15.85164299225744
K 20.119746230805756 23.43815634969687 14.359175942820187
K 20.095256991244288 11.839770521925153 15.245556479780536
K 9.8533352738344 15.031083186735048 21.239310917062095
K 12.691597857690317 13.286819404649524 10.363687380752854
K 17.052501650606942 14.948875320167685 17.46697762073344
K 24.602985893772555 17.637224591725992 18.234436493003162
K 16.95394876095688 14.644677447914514 8.496493945260864
K 14.098638798429686 21.35253820467799 23.15251494784178
K 22.820707456944 14.479169704758233 21.53333119446411
K 18.212320486274173 22.451614520571738 21.592887736483807
K 9.965941033903777 16.425211639060667 16.74921221101335
K 14.456559996140248 22.593709796892508 18.797038812481667
K 11.636054307220165 19.16577218549991 19.85668014943104
K 12.883876319947293 17.28785663344377 8.206968269483246
K 10.969319199521202 11.978991316119084 17.809041900179228
K 15.360191423034712 12.135077827028999 21.88623737705135
K 19.788940088590834 11.992814513349808 24.16803152290705
K 18.203838321291297 15.254311559607276 21.862789014347882
K 13.456826638293464 15.184893120345015 19.266040409217922
K 12.603866615448116 10.127810102860929 13.691319280124098
K 15.274730635940948 16.725851856453342 11.68108491240562
K 17.548453342552694 19.022023974219366 24.613124970686453
K 21.95911137084188 19.209432320784472 14.734991805422494
K 13.421171981944779 14.250432665720284 14.824505533982437
K 15.524322727948018 10.962964614637109 17.18913998117704
K 18.84867650291317 15.862475128967962 13.803624041570629
K 16.498499016957165 12.159774401813097 12.470075689891535
K 20.508880105767123 17.354890684126165 10.235293912985462
K 20.997955704373815 15.7467550629406 17.65208861051063
K 21.194508315797165 16.50951425149066 25.070973241142124
K 20.696372215717574 18.607220726361035 20.903065683015647
K 16.044580589186843 18.664471717548405 20.243135529512983
K 9.314504980490932 13.278760204472984 13.554601330787907
K 17.917384786884032 20.054336936258892 12.6902129115655
K 21.563845173931167 21.205688893920353 24.202755198466786
K 16.851100436835253 14.685956950559596 25.946202066485743
K 18.440886246141453 20.311692996619716 17.108428698442246
K 23.265465115504714 15.08317059796418 13.81620486057019
K 17.058237037138642 23.622019404502208 10.433413494971683
K 23.88681121123291 12.526432911764719 17.573155512094594
K 20.587452145340606 12.848467940815873 10.890592634029508
K 13.55774429543322 20.829019146660997 11.284959681952534
K 15.554210950494259 23.21866015366322 14.667163846112187
K 16.82717183978142 19.403394301585266 8.358746372967529
K 11.26925617495837 21.040301084385245 15.529683474703033
K 19.657598094174368 11.680519132456311 19.636531016640525
K 22.02688603018231 22.151453763092192 18.891484859725388
K 13.709308213612529 16.59960451335833 23.437298230218893
K 18.29514313744989 24.998390506346595 18.026411350142197
K 24.679238208338205 18.56224022749442 22.607672694601522
