52
Energy = -43.7104165 eV
K 20.356749308167945 16.660606911828772 7.827019560405189
K 17.248681225348204 20.200524133472562 9.290329196000494
K 17.038369135634387 15.909926695105591 10.359234686774792
K 17.624782575318786 11.691901092400569 11.511364985026475
K 21.216027105040727 19.20530626304835 11.102010123623625
K 13.39702507403186 18.29863949208745 11.479804305292408
K 21.186193615869914 14.622547387884733 11.93044218849716
K 13.62500752925497 13.75668067575388 12.686661604836768
K 24.813577097495262 17.28293054287419 12.883519963186554
K 19.322671406015704 22.99102951464808 12.519457924483019
K 14.795964355085545 22.652177316635328 12.756046980671613
K 9.918245673244337 16.246846589116473 13.84955492120004
K 17.340309738622093 19.146498968495642 13.595497067088088
K 17.618452620367595 14.708468685103425 14.69697438716962
K 23.339499715342953 21.417584432363274 14.407556748551334
K 11.102333106134488 20.527979132191565 15.05376961183475
K 20.172652769514073 11.154703718853925 15.363349610049267
K 15.451503989366545 10.763408178880521 15.642867862702321
K 21.248092875650443 17.61131107734328 15.392863887799793
K 13.720866733820067 17.044997880261107 15.815175310630183
K 23.741802587428943 14.03533273550415 15.979357284580038
K 21.463608716315413 25.48083643318048 15.418269420039932
K 16.94737615158197 25.162637950650407 15.887310988765966
K 11.542257995030075 13.211458526735523 16.88109358078293
K 12.450440567958093 24.66302197492508 16.283999783068325
K 19.59218169109759 21.763487911994307 16.924385625918454
K 25.201774967891165 18.282058390483254 17.38795241211059
K 9.903922446496221 17.135170777267138 18.34226835007506
K 11.294693221769185 21.52993449026892 19.59259266625594
K 20.07119237695391 14.344073786008883 18.53905002778096
K 15.02419425036717 21.263420653424138 17.079039963898147
K 15.478817424634006 14.002362391640322 18.863442402931078
K 21.443787415604003 18.65785751983479 19.86303298952471
K 13.807477289674488 17.982884171928212 20.35389213924238
K 17.58283091946774 17.882745957470124 17.879001123379798
K 22.58436956563522 10.912933568114848 19.246811886774324
K 18.078618173941077 10.473001795232227 19.514182489745213
K 13.412802633185166 10.268737668011195 19.7555676501596
K 23.947238643093915 15.05362125041335 20.56398134226068
K 11.680258831544993 14.210831793155407 21.440869814147337
K 25.266851174542676 18.977013204968046 21.924483078379033
K 17.73172349803244 16.440786603450665 22.102510806332955
K 10.194967187698783 18.277732802861486 22.814440504668607
K 17.527685844331604 20.914199044772158 21.171856240248278
K 13.791414775546317 21.053430195697953 23.559254685406795
K 14.80558082092318 24.347923847761724 20.110815458369466
K 20.272848655476242 12.851700928305746 22.71470204554218
K 15.641701047894166 12.619165287400907 23.11435204237429
K 21.574189993966023 17.255934597411695 24.09666055776817
K 13.927327369305033 16.569092071466937 24.76325606048933
K 17.469911782661743 19.421106638886247 25.43900885781228
K 17.998659993494112 15.050950005293151 26.218570458211616
