52
Energy = -43.83754651 eV
K 6.207625707314871 18.385953341030685 21.335652692288676
K 2.076925894984275 20.95032810243078 22.097938844447032
K 1.8722932251420823 16.865180220110062 23.944798735841886
K 3.3900938085210415 19.459161623190035 17.952835079387263
K 3.1671506528579827 15.42765194771394 19.86004428474798
K 21.718650151286834 22.80382515044356 21.92610523977611
K 21.730325455012842 14.722811506274345 1.893973242853176
K 21.705793369966432 18.741408907806193 23.942501289810135
K 0.33530909619787597 22.829891891804866 18.154853550154748
K 23.229156389766107 18.321629783007346 19.847992136075042
K 23.206133112970697 13.910657519142946 21.71856558836724
K 17.24500409781622 0.955286420015838 21.602517557605925
K 17.666912935998614 20.412352928487177 21.96224459494882
K -0.39033668295634333 19.277670254912955 15.360417622636367
K 17.64022563708531 13.077291398025153 3.3282498817859514
K 17.668229856911154 16.87168078254187 1.1257071350184429
K 20.449386401170013 1.682883745519235 18.354256908089607
K 23.55904343460912 14.681233224654617 17.0981207036556
K 19.31137388339324 11.993146949051946 23.248680401117344
K 19.877484461779748 20.99244813241732 18.236875485635746
K 19.079910636984778 16.032649333331634 20.900558107469784
K 22.426636982455904 15.746036303636801 12.747602167188886
K 21.345005124786535 23.241316173895143 14.56932978698497
K 20.211472136452336 11.99559058872556 18.75104228192017
K 16.81595833849763 4.825494290188972 18.421866772478968
K 19.71185532204862 16.948294448173762 16.465953119862323
K 20.24384016784725 19.44387954844108 11.982583035496836
K 16.116096879842193 10.493997487724206 20.263237459487307
K 17.231636189569194 21.048820274405575 14.524761653566134
K 19.42246685861903 12.803760427390136 14.431864862429341
K 16.031852005095182 23.69425761230067 17.61710927884681
K 14.975707377154619 13.44737200971076 23.60986651322588
K 17.880958164370647 2.461149708994799 14.543720252513014
K 17.22602625870771 8.82276493834544 16.114437894558943
K 13.106622350103528 2.07560051162957 20.012432762666442
K 16.239916002336155 14.037665482781364 17.496629014009592
K 15.255052138747882 18.589054219778735 17.619188022298196
K 14.615131757168495 17.24489092979942 21.668478131694926
K 18.597907219939334 23.661335926772058 10.923182440112273
K 12.357032641378847 13.945559779598968 19.73114429501503
K 13.511980662894143 3.376309223511627 15.710839785061582
K 13.165304794625554 21.39776271271362 20.59997698897461
K 15.718026141149906 20.236870965725068 10.47463781595244
K 14.241405199185344 -0.011851742044271177 12.75994114146083
K 16.515727920102723 16.471255548250042 13.154792471819926
K 13.101218800595777 10.514592867160152 16.820934835831206
K 11.668800401884482 22.92418463125215 16.57532272023094
K 12.738826751969984 19.506966967716 13.885446225987897
K 15.049000162236817 12.086866292320966 13.158281840394539
K 10.29574455145395 16.85973510424 22.47350313507254
K 10.501705310727285 18.374767916943725 18.207866409592143
K 12.400973998975077 15.137176000939238 15.234610091196338
