52
Energy = -43.59705895 eV
K 11.910987691925488 18.42501824704864 21.4702058788389
K 18.412343482037496 16.107553553300033 19.290365409829334
K 9.419882439465065 21.67964932585919 14.05621461489311
K 18.3561665896361 23.527701511240767 11.420963038257995
K 16.856945357819452 17.94109345870633 15.704370894314234
K 12.732427075814597 12.289862990998106 14.486434624451311
K 16.718501599276724 9.588703457793107 14.74993261509703
K 19.114618542680276 20.453770566228282 22.24334041546419
K 23.642769595360175 20.152133720173417 15.921338991435377
K 16.03338846357989 19.795872341103024 11.904738354692197
K 21.20122455346185 15.98728538919974 15.928837502929841
K 20.379547845711517 12.33001385952707 12.953787168828667
K 15.4744523330709 19.761994372715776 19.399450246672348
K 22.811114938043513 22.247135583831035 11.473549051028568
K 19.66451229151412 11.490329869157023 17.66741326054288
K 19.655190483524756 19.480867785502358 9.055112410269183
K 11.817108756376165 19.372310210468523 10.632783079070457
K 13.397837688686039 23.34681764815109 12.44077495665454
K 16.50260338739506 22.488297418699446 15.541247726983721
K 13.75836736916751 11.21909288228084 22.9227976530728
K 9.660321630809818 19.05117705234488 17.782477874889693
K 15.351956572808463 21.469921605557715 8.297362298854576
K 12.234785713093654 15.05255904370755 24.865162120255157
K 17.493367927274274 9.307228297737426 24.573567791565843
K 14.980910919927325 15.384971164312727 21.60502230699837
K 22.021953733618254 13.815993902998 20.775203122736414
K 20.863995924512487 12.401465866462901 25.142527687855456
K 20.004466523570507 19.99757468574869 13.560403779668876
K 16.88604039760076 13.808281186342333 15.338357078640563
K 12.969242790922397 19.651084400830275 15.020337018699728
K 21.015855853356964 9.386830333369563 21.81018130099599
K 20.94941112625976 23.905099134911573 15.3565436163748
K 19.667382044595108 20.24892624594502 17.85980290591733
K 22.726222695606044 17.184920290430863 11.738838057852155
K 14.705335813684211 11.910933679676488 18.565265202984904
K 16.204057383846873 12.340516261200401 11.081325286680341
K 15.783623282553638 16.88638310692934 8.46354845558248
K 14.001760430701156 15.9134584117948 12.59189327520406
K 17.66597543996851 23.757157314745378 19.57452544709002
K 22.36785041058048 22.799190837117706 19.79870163405686
K 12.491026840959016 22.74748426716991 17.89828045367126
K 15.667336817134943 18.316976668878347 24.68441346155227
K 10.91341366034279 13.882439096601274 20.39604567222039
K 16.46365362434506 13.902049143127389 25.70045506842049
K 9.998041501958872 16.376969751901356 14.24542885233279
K 16.893262150110054 8.503814722500554 20.093765655933908
K 18.492966562537564 16.1596774557331 12.069154570463745
K 17.986577243293194 12.461569254640397 21.769660226183017
K 22.59664368827392 18.259676847670953 20.210987632276392
K 19.82076269393815 14.700709451224878 8.450136790449944
K 19.660069675976754 16.42694853867077 23.774407363633603
K 13.298834237110862 15.999603583552794 17.339655892451596
