52
Energy = -43.5232171 eV
K 16.682326472380073 18.669108786026282 8.298124069445175
K 15.019209128924851 14.622999968064272 9.449361405390606
K 19.4472281451819 15.354914558054137 9.855607954744405
K 12.695438167705692 18.87560816218699 10.629063270862142
K 20.12994182507526 19.894017941721565 11.157368617509023
K 13.177244193252564 10.784434412417792 11.01598124334638
K 15.923333955724571 21.901120201647753 11.61116303393783
K 17.685401980532777 11.302766147438328 11.268311496489147
K 22.162121299896477 12.12522100182741 11.764628760432354
K 11.087156421763288 14.877898959429608 11.836750610271153
K 16.543084646498787 17.615135621640096 12.588813820007063
K 22.81401580477558 16.575731024203286 12.714957314677608
K 8.975217887198475 18.935479114738254 13.083675437808129
K 12.033416961899292 22.08046377922636 13.907926633668316
K 23.422789282849962 20.92293801598288 14.081677921495471
K 14.903033038649147 13.713919201829492 13.860789483508666
K 19.46468029581145 23.08852378091681 14.456834471347102
K 19.2617299940728 14.339272109294129 14.235204550238176
K 15.320539980193713 25.14664452636096 14.966913985715394
K 12.746505625233688 17.739283003618944 15.009064116401705
K 15.50337399370612 9.155444381061525 14.672432699248349
K 19.884221570270704 9.883386309135972 15.062653269727083
K 19.73574704860009 18.751644453705904 15.432295275691931
K 11.657007972287822 11.21017032846198 15.203408489152237
K 15.868921242929822 20.871304453910724 15.91750575658732
K 23.01672657804561 13.012318088526253 16.185252703462403
K 23.65914492244122 17.659460375193877 17.272936216278353
K 16.922773984367453 12.336327658659954 17.58440452046767
K 9.925850966992858 20.435987443932852 17.464053094386166
K 21.704236550327963 21.924464278249328 18.215728007455006
K 13.05844066353242 14.51828107625377 18.130495006521826
K 13.161515994626262 23.49425974425976 18.56525566815007
K 17.648582505458208 23.99382308133151 18.758221361097682
K 19.938267933712407 15.478047251056234 18.61949562221538
K 17.548944619938514 8.090402363486177 18.584865273154836
K 13.474891254208451 10.103062192926972 19.22778198079619
K 13.769799260846987 19.076059116150933 19.359404778764034
K 18.176373829326945 19.58970648559502 19.635893567350795
K 20.71784759060295 11.17223156740326 19.647970491794645
K 23.824365251063455 14.315376337522567 20.520198103877664
K 16.211966042536833 15.722183245859432 21.023866836153505
K 10.422039068710681 16.977809686471502 21.03837447465249
K 21.895924974148937 18.334789399172166 21.673764937860323
K 10.950258329973522 21.35376097243233 21.90279680180021
K 16.798092845998507 11.341700246832024 21.97988265139899
K 19.979640193771214 22.45061114604756 22.448753304561734
K 15.428851810365618 22.02578532718906 22.31328740345902
K 12.788856827870223 13.32394962853142 22.502155510561938
K 20.03849204017431 14.389084213399043 22.960275223751314
K 13.587248849716882 18.111372029806482 23.877882987235044
K 18.007939084279016 18.641388792697196 24.069999338245186
K 16.15530985511712 14.646396771681728 25.312559210413298
