52
Energy = -42.3474916 eV
K 16.703542321804747 13.60472525510342 0.7748864152907157
K 8.871277196782112 19.437070490511996 17.321804307042186
K 16.590493730461418 17.78768158223288 1.1392290274875994
K 15.437952509044164 15.468863988410003 21.337690752784624
K 11.938652957896048 17.1730647600834 19.268997162331235
K 11.441119119294402 21.821957514467677 19.81488890319619
K 18.190864867846123 19.71565701088097 21.742786378754637
K 16.042651371983737 22.049857483886587 1.2892886185946906
K 18.268183965809413 11.926116870841978 21.392545501449582
K 12.135605268929263 13.201709883065346 16.71512074115673
K 20.681313259686863 12.01321266991605 0.5736072843051913
K 11.248748229667768 16.975380703330416 14.748920645502738
K 14.764360487565268 23.55215209534058 21.84831125752389
K 20.61501809385852 16.191783117214886 2.684059427630759
K 13.724785404094444 19.328503848377785 22.691111930857573
K 14.716437106402756 18.69908577728426 12.714463999807492
K 19.77069505806911 15.88856551127622 22.932894585539096
K 23.267249316829556 18.478448024215897 23.648929549930145
K 15.416984330568404 20.113222141672335 18.552426162113065
K 16.455450962366807 22.224671896999517 14.60418302753301
K 20.1164193784973 20.592450151248055 1.1133923884283792
K 15.341379910280205 16.393838815143386 16.661599306109654
K 22.384092902557693 13.28519713222556 20.65539324811183
K 18.945083999526695 24.220885978618526 23.089348888324142
K 24.07278264720201 14.397840249489805 0.3959902691651696
K 16.12623402406079 12.172011080516128 17.728508880697706
K 12.329135156531807 21.282823664192083 15.455335095331893
K 19.0003478572022 15.454028301454885 18.7125117603442
K 16.946367915872226 2.51237021861684 20.110202763137515
K 1.2156178825272999 16.00655324908542 21.12098655459647
K 22.11753831703788 22.00446942842452 21.530932050958405
K 20.383619020442445 11.39998591654607 17.334311004984052
K 22.101253424329816 18.263655663788406 19.169415462512767
K 19.00945785416374 22.38715013402297 18.34552867738017
K 14.380962365806939 14.228899490656609 12.991605531777372
K 1.3815687299862456 20.30101166744796 20.2337125841248
K 21.205016960837813 1.6279839052248692 19.696358441493903
K 14.405795477949884 0.004376262535224381 17.544677624042926
K 19.045107679743843 18.660683860219965 15.616414938128052
K 18.617602792198326 14.131789764468241 14.339802802593606
K 22.522701269316098 15.100908139600598 16.02155555550456
K 1.7774608894749744 16.999105057759703 17.11095159541766
K 18.16545468780941 1.7065330477061214 16.032156046073098
K 23.479515624117706 23.30109335752919 17.50724709366948
K 20.61425271020675 23.1153753202865 14.03600609890393
K 23.26111391342258 19.371034151296094 14.8962512665519
K 17.311987870389473 15.870123052590618 10.269819601623983
K 2.7168427806042774 21.08834403535117 16.19944968766701
K 21.23686935754427 16.746143519526175 12.019152606353773
K 18.415982802940402 20.149303900241502 11.36718664922212
K 0.4008945689424469 23.13154901785368 13.352966349450854
K 22.548352569326884 20.67463891623384 10.694477266982162
