52
Energy = -44.01737625 eV
K 11.337948369102826 19.56641453433815 10.617663788480849
K 17.460127218376908 17.348099455558927 11.318321293553394
K 14.124387961775327 11.525784595877836 10.364808807012697
K 21.94396095406582 16.321750955662875 10.657931102229428
K 15.56813930828486 21.206719019912697 9.4959051386925
K 18.178031169551915 9.140090233620207 11.003028121206079
K 20.102925621913844 20.828477408251683 10.935844693019607
K 13.254183873775663 15.583483007612736 12.439014871013876
K 14.403602034561484 20.132072463569898 13.720784933310687
K 16.385119897711764 16.514657754990797 15.598378174025946
K 17.0398195230951 23.814687171206835 13.188264930097
K 14.775874258574149 9.079521852722653 14.036082845160228
K 20.753243628701192 15.742669024314523 14.807542507113524
K 24.986821013507004 14.811138503447854 13.964598466013816
K 17.44665002799383 12.889107828361926 13.185292282367575
K 12.545082888343574 23.784585038485545 11.782496527388334
K 23.396690029358634 19.303592365737412 14.034937338926992
K 21.876190184293495 11.76981314609944 12.506884300618019
K 18.934112316305722 20.086274683986158 15.131299691407715
K 10.607704490631424 12.100238797459658 13.280747557132626
K 9.067659491296249 16.634985439551482 13.617999046343863
K 19.324308955837793 9.220678585256795 15.478239048222106
K 13.960266439523641 12.926018746551799 16.301976838948335
K 21.524045977684246 23.675950605931856 14.384074972014838
K 9.994883730964066 21.1525262271462 14.782070109417063
K 13.614882678437375 23.828828384557312 16.2985249546321
K 12.143022855234124 17.402460055785223 16.726166145424205
K 22.956305955500603 12.124756031661173 17.050031459545107
K 9.545912016453547 13.793925183504983 17.42315547756413
K 11.361059482803794 9.477054276847852 17.05925906008316
K 7.946636586686969 18.179687575675683 17.803349772416897
K 18.176025247017865 23.859553549336724 17.742416989966205
K 18.52306987683036 13.035798920902415 17.77649126770728
K 23.819399191341862 16.679073751542248 18.029647894460094
K 15.511067006420653 20.117631146854244 18.331751903663065
K 22.009516881570857 21.146005955896968 18.19914325389145
K 15.854744835362252 9.41024753782686 18.543601421063652
K 19.356594811904998 17.44863747519439 18.927957361345634
K 11.136724140998966 21.153371050536073 19.327965516552272
K 15.17799534997343 15.657253381146907 19.917644953492548
K 14.735516357671152 23.75915141443983 20.801255157085343
K 20.405597823305833 9.608338617644613 20.053380947581257
K 12.52342195604891 12.122345486542178 20.736244886310764
K 10.96741423769253 16.635747974035308 21.134984086485446
K 21.548116790481863 13.984435779504386 21.198683439081773
K 18.57108477516918 21.213851282185903 21.531870660287105
K 22.339830670181595 18.518467463253092 21.978670001007043
K 17.060049009443205 12.088722981449822 21.973142408060255
K 14.342855580883182 19.37288504060895 22.67606321685426
K 18.197766956257432 16.98569476364438 23.41248163999968
K 14.361423796754941 14.806289204104466 24.24928575045289
K 19.634272960784756 13.242535466104709 25.274730187711956
