53
Energy = -44.32662507 eV
K 20.45211081944372 9.821796716179442 19.306219194595663
K 16.504612805702216 10.369084826951733 17.42564288597214
K 16.67046513997616 9.66358387926225 21.902778850672856
K 20.104717648878754 13.407336253357474 16.28315517613897
K 23.055640543116105 13.168659034960228 19.863357102392687
K 20.15918381424775 12.093486915701652 23.417895439858185
K 23.233702463872415 15.641935980653876 23.40905262820223
K 17.903837381173204 13.970413852140831 20.01281342077527
K 25.57901582507057 17.100951683271393 19.329210452161586
K 22.287777718926208 14.121791239406553 12.282132288434958
K 24.813733148658574 14.112620552287702 15.96552771520917
K 15.243750060574706 14.121278426749152 15.615679616281387
K 13.529110510416135 12.96763959530569 19.826251230636647
K 0.7450346479643486 18.202997381459202 23.779649225593676
K 21.870388350634606 18.452562686928633 10.803686938124972
K 21.988409707847925 17.783758207893616 15.287212764950693
K 24.891218922376332 21.15042080838462 17.148057282043965
K 15.640799716473529 13.432318773989172 24.05098534785811
K 2.040806132007995 20.811474406769673 20.441199507184166
K 20.9688299202188 17.23699193045792 19.553589084124262
K 18.955293868800357 16.834119208219242 23.780344349189786
K 18.276059432056208 16.008044474250433 12.960991245024907
K 22.655603455760467 19.31517724756526 25.846780333617716
K 23.19260933743848 20.609316397441425 21.52005901838131
K 14.292481212985173 18.16810383624327 13.393671608731882
K 12.328170191453685 16.81859823717367 17.482043317695673
K 14.886795011196059 17.44112969474083 -0.020458725642828482
K 17.109097577528633 18.177456952253884 17.10476114724487
K 0.202356861220808 22.60174740376862 24.47754850971262
K 18.525353405640434 20.43928515886655 13.017766350555881
K 20.382527712309454 21.563965284742206 17.403207726659026
K 14.939223978361044 17.147653156245656 21.37693463015605
K 18.222316647356898 20.77572961992209 0.00274588555051578
K 21.703551107429668 23.613559963468134 24.87022210545794
K 25.47110687286791 24.516549298776578 20.2565470497233
K 18.227306293130113 20.73183864567101 21.365598933633397
K 22.651683879987253 22.24597923838102 13.363273083505085
K 10.93989281969746 20.45701679458021 15.26430607467264
K 20.870056114421207 24.817445042299997 20.58792687510207
K 14.183233344310205 21.202091980663067 23.741942393306026
K 15.110435008182906 22.28648712502199 15.043756986320602
K 13.756309504150158 20.968298010147453 19.11800047330536
K 23.014057501392116 25.591261830581242 16.533027594108333
K 16.90390938691162 24.360350055439977 18.58624293582351
K 24.80150833632468 0.8031493425878319 24.0743852025665
K 17.313111161122148 24.611623077547495 23.73693533479649
K 18.951466584736433 24.890749233410194 14.50196242988492
K 13.40264827112023 25.041496606260154 21.327694972272784
K 19.357229723278813 2.23275211522246 17.51111026583346
K 20.436875141741243 2.0620734305599715 23.780163108127486
K 23.22293840863992 2.604362467433907 20.058037505049757
K 16.68312778218097 2.2178297552787796 21.160988475752962
K 19.33173691750376 5.793620465785939 21.137238835011996
