53
Energy = -44.8012986 eV
K 17.440839555004214 13.620852841778655 8.821440226573403
K 15.50508883508295 17.610890276859486 8.539058920360748
K 17.843663945012192 20.589153905556348 10.499605759973255
K 13.206683175185416 14.035328352721665 10.179097402048063
K 20.49369007055623 16.915534530938586 9.120088257639672
K 20.439749384415798 12.344993529235918 11.843795812137632
K 13.668703579366724 21.878268328363166 10.8969202622858
K 17.479196754028248 24.07696348476987 13.393770295932775
K 11.204588550715496 18.132197443578296 9.759508036441467
K 21.550984341776136 19.848265084742206 12.645065903344507
K 18.15522878056735 16.316309670967193 12.555366123875755
K 10.158312862939354 15.377916444436137 13.276065094973667
K 24.758657232006477 18.973474733825785 15.903248171771995
K 11.750433067052569 10.96141951158204 13.367745163263919
K 23.07571833139111 15.727776730319299 12.962610168846181
K 16.153086549017118 10.979930255341815 12.152662177916977
K 19.3741934472061 9.230114142438964 14.928521473325231
K 14.168133306628613 18.239177270370387 12.942669129468111
K 17.66707196281466 20.338164084263163 15.04126027633483
K 20.901170167626006 17.268758660734882 16.340553636185554
K 14.216406604468798 14.13561587875968 14.597000112632232
K 18.280198922620094 13.267096010859069 15.767021305516732
K 13.593535110744027 22.2059127538873 15.640981054989856
K 21.391712773955796 22.209949014329474 16.597243572421558
K 10.134015018658292 20.087891671656593 13.680373407737873
K 16.523814860502913 17.00348090368865 17.09903799402889
K 12.025855249308183 17.400474341704914 16.726039439717418
K 11.154489101855692 12.978937285354792 17.55725701945161
K 15.348812352203764 13.709182644541311 19.230887395280952
K 17.285934331395527 23.71842054848725 18.125430449744062
K 22.298001226952763 12.601412937113887 16.58335087362089
K 14.915133830898954 10.169827857597465 16.65565961292336
K 10.414272698927066 20.75739859948325 18.961977320528565
K 14.667801986542436 20.10946010746553 19.26979715491839
K 20.88997921974718 23.542127096647008 21.00034084841586
K 19.807308828331166 15.169102604747021 20.07689408658137
K 24.201698410865774 15.681119311673008 19.145354702773062
K 19.18093681523143 19.80834992715987 19.545951714151077
K 13.24752448329258 23.921427145762976 20.48535878302419
K 23.486230575083354 19.898403331222788 20.214115597850597
K 18.872439930213723 10.690649194711716 19.316897197936445
K 16.519748812429317 17.31362966407187 22.08248718421726
K 12.145176447214213 16.338047313391147 20.94652647116642
K 12.763580211911988 11.829560002652286 21.851098309419438
K 16.808888495171736 22.292438496034283 22.725317532489935
K 12.943288372869583 20.014485644943132 23.35320759172875
K 21.98100996212498 12.460345517808351 22.407642243777765
K 23.224815465003044 16.631916936763506 23.25957250297798
K 17.241247844657277 12.575289120481902 23.039276364676905
K 20.47931267122846 19.994514613737874 23.91367756072551
K 16.542725545277055 19.129225360621493 26.016103526502
K 14.197263642458266 15.356834634865843 24.936964913760793
K 19.358454934604328 15.668792880092857 25.158912496756013
