53
Energy = -44.75084314 eV
K 14.872562709323695 16.102140823104424 8.623609924694222
K 16.641591417426287 12.587407477694775 11.096885948891163
K 19.485960085256014 15.964241849725722 9.745448281552415
K 13.062507900999579 19.19588449026069 11.19067994721679
K 17.21403838268674 20.01119175609474 9.856482720802866
K 14.160818368727131 10.877589085060219 14.665352337479375
K 18.378263535089758 9.125263275763896 13.799433701373491
K 16.31030462166206 16.60391469593154 12.760921544863171
K 7.741597144009154 14.240427002310513 12.286276291266914
K 21.138083018213482 12.478596242400663 12.328380442779778
K 9.229538432838048 17.802067031417 10.338191708251056
K 23.82363193918034 15.840053268858462 11.053249065593631
K 21.548318223807374 19.849161720931964 11.01618775601449
K 10.491225577305524 21.59491400075386 13.881032400660763
K 14.862939794618303 22.968480499420824 12.73014036862915
K 19.135850135884212 23.800820534231118 11.420934634427088
K 12.23835093708505 14.4394838413724 11.896673326707615
K 18.03436033887754 13.157179499857394 15.368963485131706
K 20.847822974756525 16.642790818054777 14.091647493386976
K 14.02633236814107 19.496253839716594 15.522670654548277
K 18.37971995020209 20.548260473530867 14.15502118812817
K 13.782530234011999 15.02731201332797 16.194642089489545
K 21.42441705308486 10.58238071794763 16.85989429522237
K 10.010406783076995 17.229226669283268 14.7822775225452
K 24.173343482811738 14.053937521710383 15.46193025063272
K 21.343799892757165 19.59800104251182 17.763169219363434
K 13.464559494511523 23.640972917068638 17.084472631243123
K 17.6241877622638 17.24118052586754 16.9702013565072
K 24.767683182444134 16.863109536894665 19.28399898136363
K 17.72976292087724 24.714530320977993 15.714810058557962
K 10.56603128125848 15.551883666235353 19.22596480665468
K 21.04468346581367 14.779435043671388 18.483000999792754
K 17.082170717050094 21.28002094006243 18.500841510925664
K 10.021623171083274 12.662686518729133 15.65204656278702
K 24.456980935633307 12.394773440573816 19.83227838300949
K 16.502673504397578 25.263577096484404 20.087615674916286
K 17.14997841630522 9.684966766349987 18.16133029733801
K 10.838313517574854 20.178592796241094 18.424904128559167
K 22.719643202910813 19.618590557300365 22.146729500781113
K 16.7378031467647 13.826854012903883 19.767929528261657
K 14.421636098389461 17.829423335214216 19.90521215127829
K 18.897005392898592 17.604917288234617 21.241136667061895
K 12.93461284798519 11.529452506870301 19.111325291315488
K 20.262111243254758 11.36850820228371 21.263509621201713
K 18.431560640340113 21.699024592080953 22.678244135172196
K 22.40520872519567 15.07703182019274 22.92932856134092
K 13.880569923757186 21.934594716541284 21.497453826963927
K 15.919623984760559 10.567627276409175 22.49662351501429
K 11.261495569141106 18.42691422110147 22.8089538136172
K 13.529073088980967 14.468210485409221 22.799070091966577
K 18.034215392344766 14.299965965249982 24.106326197262533
K 20.062371880377725 18.13013975022768 25.427897581069267
K 15.613948232168624 18.2638785498668 24.226540566702287
