53
Energy = -44.67867922 eV
K 17.481073479373425 17.730385838770648 11.283029171994697
K 20.55099392516335 20.65894178145367 11.133310522830936
K 12.854003045393512 18.37804584072505 12.013681016414212
K 19.727013722817055 14.422558546328524 8.939464439286164
K 14.758909872079071 14.175666961708085 10.278762397652756
K 17.59709604706722 10.392386342212525 10.083038738399319
K 19.418978021015313 24.157925686850913 13.65183463028016
K 15.794740480103874 22.13311701997527 11.450233740915712
K 22.0476420928913 16.468712565286626 12.574937673426291
K 10.935413744318398 14.272983272345183 13.790910803684053
K 19.16532291404829 16.87424891493011 15.958880512301011
K 22.016933677015672 11.317641494979469 11.78633407546127
K 15.063286355293243 15.78952616277074 14.596134748445753
K 14.424182279957883 10.967337027169824 13.622614567317855
K 21.647957580962707 20.48621507897979 15.510542797458863
K 12.157269114871285 21.78086090784388 14.98636136002013
K 18.42656537576348 13.543413838793715 12.923213384894105
K 18.93158741392269 27.48345119133521 16.828100320531465
K 18.868518363049546 9.135242638378374 14.555940459037423
K 16.49157547721836 20.138751973599472 15.183200830480297
K 23.126285525147516 9.189631989498215 16.2975316560709
K 22.71220094442871 24.801928089342308 16.89718220727673
K 15.263419991497308 24.848303699301034 15.56264962731069
K 10.468428168551332 10.378225079049258 16.238815258014775
K 21.859305884746025 13.240385256188356 15.904032123578006
K 13.214464675021533 13.356096728727806 17.698517848478264
K 18.757632328293276 23.070528227699626 18.014119916870666
K 17.33384653617614 12.620019354350466 16.926671097525603
K 14.929978088493021 8.987656233901621 17.883487854083132
K 11.750810931202862 17.785262505409715 16.79759436130799
K 11.64832612341843 24.380230067856456 18.64104128956526
K 11.437424183253723 10.7940635019665 20.69180658726042
K 23.206859752673033 17.145116514289782 18.130256140305136
K 9.125154427197222 14.431185247193232 18.589235392128852
K 19.694950515445612 14.600964063420008 19.757927432328444
K 19.761958567246793 9.818350815562976 19.27506757987021
K 15.834127666739485 26.14736058424616 19.972680127202462
K 14.809218390866256 21.366192380587858 19.07972921671829
K 22.464147863654084 21.60857431112655 20.48149467530081
K 20.6746440799598 26.023702198312627 20.776566409748174
K 19.062523413435674 19.050329114621448 20.100647669843255
K 11.146987841233823 19.6231917115482 20.808859952457684
K 15.586757049621726 16.7608045204414 19.11969173211535
K 23.662232149252578 12.510913330483621 19.94434671082122
K 15.968673686658558 12.110619952207928 21.284214976774805
K 12.493433553815501 15.321777249291445 21.89091370176095
K 13.191372473500799 23.501960475841443 22.804898632192156
K 22.417238830163207 16.610450286698907 22.55265277720309
K 20.471654645064888 12.318577830993013 23.361883963688946
K 17.83668710953657 23.03379363728724 22.58753685590248
K 15.064008894361182 19.390937930768256 23.263862641546638
K 19.659886999028288 19.607338245837163 24.57540296655238
K 17.51129023905435 15.763110292577075 23.443148938428966
