53
Energy = -44.97651723 eV
K 15.656119470389726 12.863386577006391 8.744230971498588
K 18.96683879335366 16.367767181831407 9.306539826330338
K 21.92716192708256 19.896901854099834 10.071451732726254
K 17.333269751902183 20.819860868126856 10.201029237288642
K 12.644384881047422 21.57653242163455 10.452969192604536
K 19.55349728651977 12.108782732427624 11.188037750241286
K 11.932826382965581 13.428112233283587 11.567576934822208
K 22.877598954670155 15.665881845177545 11.905219595337686
K 10.417181284031734 17.885168229196832 12.624639738909666
K 16.189669000693492 14.90266513990661 12.66643188122283
K 15.282606847318002 10.40197687647934 12.65417053971552
K 20.155076000431475 22.73313758383571 13.356130538207747
K 15.439464059964564 23.64515880789372 13.401898412475857
K 19.34823307256703 18.240224011760763 13.401808000622381
K 14.728326032019181 19.041351018997084 13.486018566625217
K 23.403993316465453 11.550190076191495 13.808695195045217
K 23.644850685480524 19.700802839172727 14.372004708092643
K 8.488476519689636 14.159398545255046 14.536245822970134
K 11.17898952222479 21.896969934790583 14.851959205521696
K 20.02802976234842 14.179251222927865 15.242872533439373
K 19.230353735605828 9.69749966799114 15.237252019006768
K 12.637692856132198 15.434921430616505 15.650087427058793
K 11.582966505258858 10.923775969105794 15.640158762696212
K 24.37413087230845 15.388196214066047 16.364788857946703
K 18.253310288027983 25.51017974147461 16.53911967188405
K 17.491485036120498 21.001877958631034 16.547435428187335
K 15.881562991003005 12.525166934553052 16.578483791703988
K 15.039620234059877 8.03335455196815 16.727516610526056
K 9.017469224556708 18.07426771230028 17.09019455480758
K 20.82396902617575 18.088896568082685 17.647771742464403
K 21.777823597155194 22.65991232294422 17.71810554292776
K 13.398209732395777 19.3264819885473 17.868777047480457
K 14.132103448767339 23.819902337559295 17.875441713357063
K 22.24297744983621 11.667137554473157 18.302168878203155
K 24.952608111348827 19.357486210713482 18.813846132780103
K 9.840898981402962 13.805752435844765 18.9717374367016
K 10.046775576898774 21.96101611119756 19.345232564087752
K 18.68994197122952 14.503053973899801 19.573369592942033
K 17.909896531738266 10.011707745840186 19.7325890789149
K 14.14275474600785 15.261511649388758 19.913388938986657
K 13.34633957400476 10.786892393978292 20.06701062497674
K 17.120054242834325 18.63394985148139 20.464591396135035
K 18.019572118595754 23.10577410920122 20.496583830395306
K 23.028211344868993 15.639029879555764 20.837332789100007
K 10.772294724658884 17.88198260593006 21.46202517576546
K 21.386863485391125 20.07797273602005 21.637511660512917
K 13.80027131432539 21.41358637172677 21.963259727748866
K 20.822929655011173 12.016714202682754 22.72309640210962
K 16.213945444408555 12.787091794268022 23.100761737917757
K 11.570607184238701 13.752047325658314 23.29927866510063
K 19.334298212940453 16.361745880833578 23.786659407678542
K 14.620264600591646 17.158389604103245 24.089673361197768
K 17.705376644931306 20.673377179364394 24.498992058997764
