53
Energy = -44.4821199 eV
K 20.89291933424256 14.588190633720078 9.926742841859712
K 18.694649870977432 21.52616815852504 10.076359741246781
K 22.40961145145313 18.841742269793023 9.930989936170446
K 17.958585496868892 17.54318855171141 8.33536981048241
K 16.45252616294895 14.557708953863322 11.622723696919964
K 14.920570131168892 19.313953107950983 11.975340421085242
K 23.08188784241497 16.345359080728876 13.817648799340677
K 20.119812159967278 12.657984900078498 13.913466574256237
K 1.7087136526880256 19.81359842826372 14.93675098100235
K 19.070577976739163 17.913860689647997 12.894177204781199
K 21.653090264407826 21.61332645468518 13.667492413876069
K 17.100058487730156 23.126208706659227 13.834090501744138
K 12.402419618505332 13.857821992569274 13.78442777188446
K 11.238001631354425 17.928993931132222 14.928228920432323
K 19.46226377960949 10.853301842847825 18.646599753271644
K 15.603773617777565 16.87730406668762 15.73928287789802
K 23.367157953788134 12.903641524987579 17.20294313499929
K -0.3330496911854243 17.299945674089663 18.38877096413607
K 13.98686386267812 21.274962429217968 16.47612601289712
K 3.5922308218538213 19.41370271297293 19.062349476068437
K 16.04704400442625 12.34468981772223 16.124683558708938
K 19.974759750805738 0.9323159102636187 16.829139133739375
K 19.743299395278516 15.683000684338321 17.09672794269534
K 18.572368099673128 20.191804481193003 16.905642850682273
K 22.786466646459363 21.5533246129944 18.126944639053338
K 15.42044190477402 1.7274133243546594 17.539028189956728
K 15.697780635603747 7.998875565740117 19.068290055097325
K 21.621534471611636 14.242812051235944 21.374009525323093
K 12.20342369583592 10.417245250433094 16.805471761794408
K 6.521156984500908 18.698757556177807 22.23886692447061
K 12.463990092241515 15.166807296855891 18.316663616353676
K 16.83615925697612 14.660123675970267 20.155862556627483
K 0.185304834481484 20.548667029174478 22.235365990990758
K 17.60170727316865 22.873484670902904 20.468154344896725
K 19.800014626606448 18.60570668498077 20.93473263345796
K 1.8714348992179128 16.432949184820504 22.25408308982799
K 12.834741120630303 23.13552152355019 20.539379372716677
K 10.245360768087 19.425480576620895 19.257047842924404
K 21.973935268218103 0.9843019862331898 20.96393681495859
K 14.74056271450522 3.3488298454256005 21.63638948636521
K 18.284453360555364 14.893598524525341 0.46805407513523906
K 14.940890450466872 18.852716040554437 20.15777863222079
K 18.679485549909135 4.475880406909881 19.484436566420058
K 20.14188243819706 22.022622226923726 0.3179836257993365
K 17.209219964529662 10.828168345201162 22.625508955748742
K 13.221556099571263 11.68579454429422 20.897488350387587
K 9.73756320187184 15.677269143551822 21.691835429936333
K 18.682560893868278 2.431004730253092 -0.3541990078274242
K 21.711151773266828 17.572809511509575 0.9133256241724556
K 15.31311237656145 23.327580764651824 0.3759126775132211
K 13.858546980519566 15.406048811771884 23.47654335551282
K 16.70352475020261 19.046480369374958 0.3857432003506176
K 11.95518672167807 19.672379999252882 23.511313917953988
