53
Energy = -44.91957674 eV
K 13.744463694615789 17.72508002592068 8.936167305866652
K 17.41120504455204 14.802072794211133 10.353621889956536
K 17.80936463563002 19.588986052600344 10.101915128494987
K 12.807363898451008 14.021007230325802 11.464362011446164
K 21.102999036670784 11.748884989099281 11.368081575925872
K 13.805545737429354 21.502080238859858 11.436036858526828
K 10.731761328820383 18.181245243591285 12.267384474189138
K 21.86776739640758 16.259011383249376 11.404835386435147
K 16.86722376043136 10.703948799453137 12.838246020957904
K 22.06584433077383 20.903816591650923 11.441677668090465
K 15.201260445137008 17.44135253780335 13.001488872785051
K 12.405715557258112 10.24096476698197 14.104717481446201
K 18.174412527136514 23.21204977849778 12.73524825471269
K 10.06752560607935 14.214133808017447 15.026078712478212
K 19.12402936305782 14.264699949562736 14.277660877944145
K 10.963010935130404 21.838035380043337 15.07359585513591
K 14.228733497570635 25.000767683509856 14.253550372497779
K 19.490193130100515 18.891935376192382 14.205685743023396
K 8.140665225147663 18.30941732312497 15.978696065529642
K 14.674293882493918 13.576654902261957 15.531144113415834
K 23.625116554849935 13.455103560171223 14.703824803306587
K 20.5561742458349 10.124368242143733 15.563009555065374
K 15.527793777159228 21.076244877902425 15.617613881634833
K 24.06283811937156 18.281714272914254 14.747921701639092
K 12.415925264147583 17.713205944249673 16.47572892323076
K 15.966143375986746 9.293424507441458 16.99775400803287
K 25.649477250519737 15.59217563684653 18.131424862647425
K 10.239623024819158 20.450845490825056 19.42712455733263
K 21.377393624290157 16.156022956363625 17.61988048835286
K 19.142484031131346 20.410877569747687 18.633178053538295
K 23.596080902550174 19.570982298380272 19.040297969212634
K 17.731430962440424 24.497629161644642 17.072184508588848
K 21.72249477802385 22.384399806002357 15.701967967422737
K 12.046535320780887 11.554606112180261 18.410357750248338
K 18.285403992124607 12.814257567848355 18.449999049722795
K 22.839911898113098 12.066430642447134 19.08671930789717
K 13.273033028929698 23.73075315861453 18.570115739563928
K 14.715541783527003 19.623538494150978 19.871195824961994
K 16.92277084902383 23.086293003401504 21.438276650721004
K 9.83845942849698 15.6667438121248 19.295686137456144
K 16.899858933580667 16.962431105050996 17.075855856450726
K 18.557020631452335 16.533657466406382 21.139830259693923
K 19.572054282965023 8.898082822866042 19.81423100370661
K 22.99808609612132 15.749452550654413 21.86983197597972
K 20.791549438644182 19.938247182540042 22.763746394820014
K 12.716492234310005 22.166116041404084 22.79923441201349
K 15.727184900617905 10.82066094384418 21.27991896527821
K 19.95745881455503 12.489736097520526 22.673984843632784
K 12.104577686102372 17.69301344584882 22.818517536554637
K 16.36656287935432 19.194988094735624 23.97472962759317
K 14.280877899227518 14.982636060920601 20.00042759663076
K 15.985696044905502 14.547417450362156 24.09326201199466
K 20.022415120572745 16.24564497491174 25.239819313640723
