53
Energy = -43.16693492 eV
K 0.13387278461571586 17.804938331998184 13.394274775590981
K 0.24139631880600906 15.32036368726474 17.164598408111353
K 1.7336229702258608 15.000949513337295 21.623252374054868
K 1.817043820409005 19.748819819823797 16.73411260058235
K 23.908820227996806 18.745091840874125 20.323031088952053
K 22.820608150533676 12.755869050548457 23.877655495155494
K 21.000247148392827 14.902836163053513 14.030749112543
K 23.978540150885102 11.425351704964351 19.82376314551656
K 1.0857195205614125 22.988791441764555 19.935009428298788
K 21.310225730145206 21.167320668756844 12.275566174278357
K 21.09438524171992 17.278751357811846 10.311214943088393
K 21.152639721187217 18.770289377886282 16.556382656899128
K 21.59617142819068 2.1097404525028502 17.469970528136194
K 20.58183735640473 11.837280206050536 17.191482898236856
K 22.61281728951735 17.19654002848736 0.08503231062792713
K 21.23069706860702 15.011107100806315 20.221830267442083
K 23.247069240677995 22.889520377305203 15.480123707197093
K 20.886891344136 22.150780055813915 19.18401389679076
K 22.37254941008813 21.475831254954823 23.467576778646436
K 17.712567694398246 14.786182489398168 11.126002458580588
K 19.530884198193192 11.1674048830864 21.582673078181333
K 17.584496437883292 16.945711530221296 7.502288624802198
K 17.865953878872915 15.79700298458746 16.883906843988242
K 18.31955071976803 20.764017147525074 9.292511814086788
K 17.851208949134563 18.7020006646474 13.531424979074147
K 21.695864482709347 1.3562831414128644 22.00302631070118
K 17.28487477986189 12.208054242543174 14.417013048220516
K 19.01497329494659 14.835336177011872 0.07191911290150053
K 19.692898109387606 4.651350463137651 20.236106402591403
K 15.827110551462376 22.474980315614516 12.265194364476207
K 18.824483681437172 22.842344790342285 15.388987833223434
K 16.745689929724055 2.6517240185846265 22.72645197227038
K 18.701708857725087 19.18053154587045 1.124337996235618
K 16.472540303770018 11.811774488745266 18.628576882588963
K 14.671416303699312 18.518667894498012 10.477866090139532
K 18.237442239988745 22.7856021265289 22.823915545070832
K 19.373634736895646 18.65845560307773 20.8976927040383
K 17.581089946599224 1.0868585385937295 18.74264667119411
K 16.47310789718758 19.965913768542347 17.782489211132287
K 16.264820714390876 15.682549598297818 20.72042796871844
K 15.615487830999786 12.096019862977002 23.187664665757783
K 14.412954198617474 15.712524831155635 13.65461287759614
K 12.891269259949581 19.84920711157571 14.463789320628715
K 13.009519100694177 12.333073031476726 15.815284556242917
K 14.025959997200404 23.892102844300585 20.73870574217619
K 15.05390017506271 16.449203246528413 0.7926943628698696
K 14.414405260474128 23.661588879872365 16.163049217604208
K 12.45743201357011 13.005272893588664 20.01445963709099
K 15.249140349015654 19.833433574678565 22.05990760782059
K 13.387518978883868 16.61480496740848 17.55376004192765
K 12.082887755169406 20.678997442090978 18.68760259034727
K 11.936532351551207 17.143910281300837 21.590803210710945
K 11.600670251657984 13.568788100789941 0.18813130119108604
