53
Energy = -44.28558729 eV
K 2.3853771190082624 16.5922483027817 16.142312195183106
K 21.266095895559072 14.782211982019797 9.980498021074853
K 2.2386229360916774 13.184865856350658 19.13983025090652
K 1.3850953431732869 13.031133512732232 13.766753047470818
K 0.33445474313419776 20.43956395291217 16.840077805714863
K 17.68552301407381 15.884288035459349 7.371666734471369
K 22.10230390021362 11.219311007894888 21.642353563528623
K 2.369282683507996 17.698257542152888 20.479487836933554
K 0.353877036623911 14.841064566120384 0.35640605220802607
K 1.8172953093971642 22.046000204700842 20.9373732954475
K 20.79774485853808 14.9658357299166 14.742439833349835
K 23.108205748730114 18.040054132853463 12.561130550807771
K 21.725698033092197 11.21337444598533 16.99097566124328
K 0.013092064285780776 19.161581628470007 1.07252249393328
K 19.435221848018283 18.92689039205027 15.863571175182207
K 19.152399327076417 12.828446743101544 1.753943763569763
K 21.69540661257535 15.623093049850132 18.95292399643133
K 20.64108234642164 10.989932581206883 12.495717039958777
K 19.95705537412308 19.17568117352195 9.428253684120131
K 20.729688739314213 20.047759227885223 20.33729113110094
K 16.865575337870084 12.668729253729767 10.623910995105787
K 18.237226866254414 12.139790002813568 19.91799809214057
K 19.265125720896897 16.347818233116765 22.531313493790744
K 20.801712757411803 16.63944040706858 4.133989422315557
K 21.271565248234626 22.046761066317742 12.997181653676684
K 21.884694461293414 0.20916388871800146 0.6122293797243525
K 17.047712874418266 15.888854655534482 18.08811449193599
K 16.32233471585439 16.613661666685385 2.8663604685747255
K 17.940018111896542 0.3585381218460403 21.642532945549995
K 18.62872010675103 20.330997104363995 1.742864461662993
K 15.182698663362842 14.102467509135218 22.4162627463256
K 17.185149338167985 12.423163539142555 15.162389464497553
K 18.59009294880386 23.112419200627 17.00221609387991
K 13.784557340280871 12.059420561326446 18.104468239611307
K 16.055824005669024 19.148089478439836 20.971190940040945
K 17.499476493561268 16.712173567909645 12.464158285053117
K 16.937256145152602 21.02124914001414 12.302656836469096
K 18.415611230956205 2.304280705100456 12.975628622479759
K 14.865913105889927 19.7963351175344 16.610933497347368
K 12.835564916429021 12.037395077440562 13.035367921978517
K 13.749411958779836 15.764133581631532 14.946219090158746
K 14.340042093766767 0.3588466081469834 19.192469322016713
K 12.65553638276312 17.565060136773546 0.6538468989272018
K 14.203731365247092 21.857297864547466 0.6896810251544215
K 12.453326475266088 16.057493329226155 19.404271427293065
K 13.763144274554698 15.939160431287473 10.118883271784947
K 14.528472537255633 0.8617417720555042 14.46513953358719
K 9.856664087251932 13.389539825310358 16.26990067735885
K 12.604490356263563 19.58429863557968 12.653831675448362
K 11.427570106172917 20.267567013017633 20.273835112291508
K 9.756695701246104 17.948330670669545 16.27810447065004
K 10.960452086230877 22.219642978313175 16.238112787514563
K 9.900650684006033 15.683442676015567 12.360715034025471
