54
Energy = -45.75409361 eV
K 11.875784707715452 17.1409181490451 20.836389316483174
K 15.705282773828943 14.721977937429305 20.15261656076934
K 7.345024444086363 18.25683244337617 20.862497463602423
K 17.50438656073086 13.182909519819653 16.42682001973673
K 20.174454934746908 7.093897248174467 19.03588218587636
K 11.941994089245501 17.562103665944353 1.4990630658640351
K 14.158070208180103 13.825444997888741 0.3459461436873176
K 13.82898702373826 16.428762407549858 16.35867429697487
K 12.310862563253604 17.90230846576333 12.283637913958687
K 15.716525545292921 16.401410391270023 3.958412473784768
K 18.259226829501415 10.860875394266984 20.857390617338396
K 9.51650542817144 17.908769385065785 16.781747238899413
K 10.539559842888266 21.55686676241495 19.35053489586537
K 14.995943752978599 19.95706928422555 19.02921843206733
K 18.341449920769076 17.55145318158106 17.52107096293696
K 21.660202743770533 11.919494820044878 17.18043986002824
K 14.140019219149309 21.93236094492082 10.975593900672362
K 12.851161745849996 21.283638062984505 22.997897996905976
K 18.553543988383748 14.162998832063336 0.6477304367276314
K 16.086333607945484 15.324427361987468 12.262619032741323
K 14.975356153473866 20.67057748294301 3.211980167456645
K 22.712653695596803 11.303935171060024 21.656602063123916
K 20.550794284865827 15.2840252108182 13.850237337455683
K 16.109724689358604 17.936532011677706 23.121570360654015
K 12.498859983225456 21.252550040762255 15.332398127696566
K 15.333737279760497 18.644533022032064 8.188428500866017
K 20.29614592840194 14.86064497162876 20.53086012316484
K 14.54973273349478 0.5482091193888542 19.06489850268686
K 19.22137502719334 19.013529950620566 2.178309775041394
K 17.208077493883657 22.37102818761681 22.765962448521872
K 22.447592393586014 16.04302853668654 0.6322293402228923
K 16.491077889675683 19.395468838077615 13.85278444484746
K 1.5105884718527498 15.105170479395362 21.49120632781276
K 19.40188317913114 17.924427676354973 10.22770055391398
K 2.114717901492586 12.332186335032633 18.27510004201676
K 20.479190829460403 19.197059994575145 21.282981332896263
K 23.041111671442682 16.840605622423443 17.772900532453694
K 1.3347040183200396 14.70077793763097 14.564804322325163
K 20.866318110780306 19.753267281778776 14.553492502290903
K 23.723440025381997 17.18413480436734 11.20158311472875
K 18.701976421310242 22.64591494189062 18.3004974752717
K 17.94075532857965 3.499120135393326 16.865467335928095
K 16.24725802226247 -0.05827630621481098 14.678284790395344
K 18.299535204370933 2.806708311458872 21.245648572294417
K 23.34078568971152 20.344764814152462 0.9199352661339485
K 1.5031443923655834 19.404878500052206 20.85437943001009
K 4.096811934065162 16.786687777135768 17.9278028090844
K 18.65471056654674 22.336290380700405 10.856672704482207
K 20.892168751956405 0.40305322171116004 14.560010203709037
K 1.5184834746198659 19.384770378568934 14.899967760061035
K 21.64308453303437 23.52593565673764 21.996843058662577
K 23.110323440790243 21.622409677168157 11.331191618594243
K 23.13944443866289 21.981743501962484 17.91075343850202
K 21.994863144169717 2.610324614452938 18.636179101895628
