54
Energy = -45.07127145 eV
K 1.0508391172915597 24.376218945609065 15.64374503024576
K -0.3157190484191223 22.409013432214916 11.69479787736222
K 16.40654665486337 1.5243046973244576 15.245571466888292
K 22.274699308245363 1.3823911862137448 23.270330571012387
K 16.489070034427257 21.4311971567384 14.366915597822091
K 20.73588796936706 0.20842700744608975 14.670248131262504
K 19.500820624478767 2.549008462277432 18.565603753121138
K 22.96173617816503 23.943168436588987 19.3496965468255
K 2.633953729016705 20.053144446016336 14.190393239472506
K 2.0801025093781713 20.944247532730675 18.619827504570715
K 19.967224281232873 20.608806096184193 11.925843804644543
K 17.887298450207897 1.100309990958586 22.63852484627511
K 22.801331169399628 20.85180113813931 15.722199935379939
K 12.500354595158619 22.35803556375464 16.443182563508383
K 15.467876869500477 18.868163272475176 17.94001711131283
K 12.708137116279147 19.12433501410394 13.233660494665342
K 23.485784348426552 17.686401285563047 12.534509242434535
K 15.404547093339069 24.205553077546046 19.19429788437747
K 16.089429548153216 18.920573845265693 10.038114982012367
K 20.469772067581914 21.72543959725966 22.901022986747172
K 18.973293069658105 22.060909360724132 18.24181654043325
K 11.254939594782414 0.8550384245567403 19.893160134806326
K 22.271452199728056 19.10100062313919 19.73336199894237
K 0.6079461837588618 16.795064052009277 16.82901414626764
K 13.65687576335072 24.14782995029877 23.71243607767082
K 19.338282716844343 15.98663996601758 11.522638688434949
K 19.609956530083767 17.88306323987783 15.989008930008287
K 1.72061889533006 17.203378320919242 21.223620398661517
K 0.4983438057828652 21.55896188896558 22.86413500865106
K 15.784927165506158 16.05276732904141 14.276356656460715
K 21.883243839072428 14.007205877129193 14.997393865947931
K 22.262399556606873 14.518898900980755 19.95784548589307
K 18.605948735197135 18.551852475706166 1.2593134458151092
K 17.3627319406229 22.800664094549145 1.8742913910383112
K 16.310154834132465 20.89774735158931 22.09466942664266
K 18.185827843598798 14.026773814405542 17.88836152424828
K 11.940759460316922 20.952246812047928 20.864671610103162
K 11.577834603144321 14.752494145927352 13.961255596457061
K 18.036099027459006 11.921996000390717 13.772233267324221
K 11.248321713697758 17.84431118178334 17.436683633873294
K 18.483310990331667 17.127841961357873 21.219851333265666
K 22.637084193362316 17.52563029982499 23.925417026003093
K 16.364438288781173 18.83204688859534 5.166969869089229
K 13.674620280801465 14.006339300613137 18.02604296621544
K 13.882249682719998 10.901837304512378 14.660880238129955
K 13.688142458460957 16.911047908804065 21.733189134148354
K 20.6705497662564 9.96278251152309 16.837852972471822
K 19.82072458643911 10.846401110608475 21.1469652349816
K 13.86347643835482 19.810093177518237 1.2114895236618959
K 15.477632597826569 15.562418082291503 1.3615227866998687
K 17.841169201872738 6.155019095960541 16.091589984460022
K 16.327786360705677 9.895111058858902 18.215660063568876
K 19.822121122520702 14.089653514833106 24.30565686908796
K 15.991854727033502 13.044245451383992 21.902038215028636
