54
Energy = -45.31830074 eV
K 10.176050188690715 18.32988840544647 13.512960363946682
K 10.404326368004467 14.391627171623442 15.349520315554749
K 10.95458651120689 22.27355998477093 15.76056403303823
K 13.900459897283215 20.747902518763514 12.781915402719374
K 14.377748251734523 16.153617418894484 13.31567072449166
K 8.960373003880362 18.48524052437587 17.940797533886172
K 11.678011782020734 10.201560489239325 17.192317816119814
K 8.927829541571903 13.927473273353428 19.37633047223676
K 16.073890297531417 13.977424694534568 9.878877367619289
K 13.907178686938918 11.816932549304065 13.541473567135148
K 13.142952785654183 2.2170608457607544 17.92652268739428
K 13.513446046051552 18.295853845675193 17.05026091417786
K 9.66308516597341 9.871705277763008 21.17970310122448
K 13.958721141289347 1.779417509804098 13.607581956308387
K 16.8250286642472 18.95506851049501 9.921819987228305
K 17.88187699099616 -0.3870530709876164 12.44107008058603
K 12.23075962091436 21.57377216320397 20.05704014538501
K 13.533583935615233 13.894050270461133 18.610729967678115
K 16.456491517343913 10.653084342097031 17.131887526032305
K 17.943336417209746 18.63556075819423 14.253920554414295
K 11.814068951291832 17.332110050577995 21.213461254865862
K 16.076722784359454 22.107335943265383 16.774824334602105
K 18.270697301368212 13.3722454380207 13.722390071120554
K 20.09969741978444 16.04170756515629 10.543831188605974
K 14.26203739459023 10.051907603554799 21.122640446715373
K 11.833670320121136 13.234065602280362 -0.36478956473137614
K 17.5397634013274 2.805085868278003 16.450930326068807
K 16.9921465313433 19.435148608957473 20.306397992141594
K 21.0937956017746 12.820736654773143 17.223946849187048
K 20.777845283144806 19.3896041330811 17.51218170892998
K 15.778528637387238 15.455915436064599 -1.1461592400525
K 21.221960626172283 23.217495600302893 15.356011536661411
K 22.28404664873491 16.094985479252216 14.433300988932894
K 17.47289959897763 15.61904013678484 17.549030846086513
K 18.459919562628286 12.057119876454232 20.85169542319485
K 21.539439246313172 20.094812307005608 12.085568918500998
K 19.73030357890736 0.1763636222026117 19.58338098277708
K 15.711342318483023 0.7302591753578548 21.186164035888865
K 14.627170480667338 20.09530280850525 0.5329886350763735
K 0.9158314855397184 16.8099299086339 18.42906845995815
K 1.569724336748495 19.902420145361823 15.228724324850972
K 18.668425660686157 18.026044278693206 1.2531291824225117
K 2.3446751803535997 13.152291430753008 16.470985647479935
K 0.3864134915297666 12.902711400012466 20.82547033449444
K 21.779959498674017 20.131409784869305 21.935401045200962
K 0.9008304485922642 22.462621782085076 18.948789514051047
K 20.453009949999693 16.049291972226833 20.855022433550573
K 5.5323110376108104 16.25033713907336 16.10338754261683
K 22.620895205344674 1.0862661219194338 23.009617285098813
K 18.618135764229343 22.552086182815792 0.7389681952909979
K 1.5563671751722896 17.0368229505727 22.755286105832923
K 4.662714430696322 14.605221883312066 20.396233479159505
K 4.4125420782365286 19.36222675736717 19.372163094391535
K 2.581833193176134 21.53398995099954 23.008616366390957
