54
Energy = -39.28450285 eV
K 15.460075552178553 16.278751043961076 8.24704528608896
K 19.60461697327584 17.856971801250115 9.297488313644715
K 18.918901760259715 13.763152503672211 10.391299926684123
K 17.102751670235794 21.109504060014626 10.801446185177836
K 10.616606597841901 11.252891781442878 10.64024177950065
K 14.736573771307734 12.438749931579025 10.727753781376114
K 22.06354539549611 20.96710430435404 11.235874740642629
K 11.69134334563226 15.686551604325274 11.1000487424672
K 12.531948642285334 20.11564906243651 11.85701361144056
K 15.922370764935382 16.763394463249266 12.330158686412933
K 14.6632667777746 24.215517741168764 12.884610097381497
K 22.392728218122652 11.657974557863803 12.618856539379713
K 22.912002070874472 16.42719639442341 12.51554419296631
K 17.92402830342789 10.25404676130593 13.341273556116136
K 19.551667101091503 18.722543484118937 13.79066051205883
K 19.306216195610308 23.183089676620003 14.321126883150697
K 13.260388601063005 9.432752410855258 14.00342033793157
K 8.449102283325796 17.14253381583144 14.064595495411686
K 15.65747269792289 20.70868613009793 14.959493421701954
K 10.322332157313225 12.989984959291387 14.520811143498605
K 19.53665536691457 14.13086967469787 14.680433973131407
K 12.44477745599613 17.23351066514989 15.373255991651002
K 11.913887920515958 22.551471579322435 16.029655045250536
K 14.9425896722846 13.243782350992195 15.25839994496886
K 23.168204481729422 20.396202136057223 15.657776936203696
K 24.136715997240064 13.951998864627765 16.082275157414596
K 16.794947472501924 16.949399015547925 16.722460384741762
K 21.0562320447908 10.552086056360617 16.86308810352054
K 16.42780750122769 9.751620653880023 17.674880338806933
K 9.254112271337279 19.513900725831114 17.91563640714014
K 19.11994379214768 20.585519340016653 18.033375205711554
K 21.255392606036665 16.850733646161956 17.770549448992096
K 12.072108254595804 11.170278029645337 18.231436087547582
K 9.63621057685 15.163559649503394 18.301807777323354
K 25.23838966458231 17.2191381814252 19.0986899905812
K 13.833581415789789 19.510602199844094 18.857063467188866
K 18.28017067665634 13.514482721804992 18.995379611150586
K 20.527220714176412 24.462620048011885 18.82062964986873
K 23.20675971733059 21.139365206283713 20.01635933891494
K 13.935896779975101 15.007974852504987 19.492246401056775
K 15.828345716680897 23.38171480037752 18.91420460344654
K 22.51116297528119 13.492652928101487 20.371679909779758
K 17.46134490636409 17.60879491384393 21.0204463103702
K 11.355913260649393 22.458139877924122 20.61798341233213
K 19.549195160768452 9.994557392319335 21.12881457204093
K 11.11580600773102 17.92017386873535 21.82330957415095
K 15.293691918140514 11.485115273637401 21.81449287716282
K 21.68680812378961 17.672027271688897 22.204240753294158
K 19.215747749974522 21.762314339147427 22.305997934259587
K 11.122245733392427 13.289613079967905 22.325088839823124
K 14.767403137693705 20.512291017210888 23.03233171208798
K 18.971398596632202 14.070805978029039 23.319556918920835
K 14.652836344369113 15.741807829957477 23.98396651827174
K 18.200505456411822 18.345777694062814 25.21567192039443
