55
Energy = -44.06459552 eV
K 17.040086093147554 15.717330293819058 21.217957047899237
K 23.032300856721857 9.415387588619405 23.86079666862311
K 24.614086671462374 16.64106312856536 18.33321808142265
K 25.745045815077063 7.345402475788518 27.170326081567772
K 21.662842911176718 23.248342110499753 23.796417078883483
K 19.609263403765976 25.059678687234005 27.240698308871
K 25.7466761674731 25.404626572690415 26.10245185428031
K 23.069532245586352 26.481429876153 2.2902905965419613
K 24.587208352074942 12.878834553866815 21.19658569117001
K 18.462651065737234 26.931079046643955 23.460174692196254
K 2.620755795919423 20.110757188917123 22.330143009097817
K 19.67377441504639 25.775461241698604 15.831526445361504
K 21.582577964255208 18.14638776472446 2.281579602714266
K 5.326365871963802 0.34881797233284595 23.06611980818715
K 15.19119988349793 20.056391647815 20.151569956277854
K 23.076054135520682 0.4409075850269707 23.517301638614892
K 24.07314319277825 24.213897950852942 16.826195799459057
K 19.09549887595911 19.855843565131874 22.159934946811937
K 2.2522836195141034 24.576426045620384 23.465437320716646
K 26.117415616405086 16.994548538572566 22.695855187834844
K 23.437846761431842 13.911049859737743 25.688117961397882
K 17.401354979058144 1.379858915710633 19.29640330491681
K 5.578367636975957 19.718419715072063 19.260575053766747
K 22.716525703329552 18.7057250997473 25.208813198368976
K 12.6498056296002 24.196047529260884 19.732714301689345
K 20.8350067081634 2.2970292452836447 26.7666526775232
K 19.24447392787159 15.910291145882939 26.027730123788416
K 21.60145767194603 16.035605078180197 21.95252139576268
K 23.443203642480775 22.049851378033516 0.7703320949985363
K 19.6744812517418 12.241897824939185 23.062517561545796
K 20.086487105848764 22.64774818116682 3.656320778490257
K 25.349640693236402 2.678655378693854 0.3646311287850522
K 23.830250765860047 20.07815994226036 15.735729039447332
K 6.2350547689931135 23.670055067014882 21.214310356896558
K 27.083843435799302 11.030227324722238 24.617738433373
K 1.8215107887245392 16.6818404084528 19.286480282987636
K 17.12075302490048 24.14426725031666 20.037373034564624
K 23.239299017958974 20.477998590161704 20.447321036871287
K 17.7514867487634 2.4352933832731365 14.756571854373355
K 15.164586775728033 26.062299114040453 16.302357629554535
K 18.89729362967924 20.49630770242187 26.88776560249816
K 20.010147581173523 17.186031890301336 18.18155879009294
K 20.36864580955687 18.21006614306934 14.005592875766716
K 21.220857979029816 25.77470621408849 19.94485617384944
K 23.896044793499986 4.933932233144482 23.89923189864202
K 26.099686949400986 21.348171078410086 24.21794556879771
K 25.5541405637567 24.560926050989835 21.179795450581796
K 20.02150969372163 3.789574299734257 22.292229823767183
K 19.74038482001351 21.58512581178682 17.534046119267085
K 18.93753127694586 6.677360421317745 14.429043494275447
K 20.484567422649782 4.294222316080238 17.821439775052056
K 0.07347783882677601 20.827745684882697 18.62530869199624
K 15.492376212043764 18.235220328558416 24.595725894737452
K 16.22560376458328 22.872069359384366 24.173230158064044
K 15.573222430440524 13.666701867087252 24.96542691831123
