55
Energy = -46.67611388 eV
K 5.360255878282824 8.984758176800549 16.85136441619098
K 16.20277758420454 13.284207115591457 9.71227850318092
K 12.826587496335616 7.195782937557765 17.769499807287996
K 9.504574423287828 10.012701126324341 6.873717614937433
K 16.30562542527269 13.857691855031021 14.32011401144618
K 14.419595770310352 14.712954105809796 3.017440048482503
K 8.542566017650124 9.9028160916754 13.132234257317176
K 5.544501896950263 10.079892883984952 9.521702372906175
K 12.301645898460661 14.328477090152157 7.492482678165658
K 12.847290544860494 11.21536847299036 20.480210555150258
K 9.356517430291385 10.406497124849212 17.817823820509936
K 12.4636171993548 14.658594169517661 12.151091972616952
K 8.326740802993623 16.864018118006975 7.486121307714382
K 4.76538373863014 15.003764964029896 10.224491366778718
K 12.595754827742214 14.29286117575879 16.98107698735002
K 8.41781605385351 17.590644120383768 12.165973996798074
K 13.759646828807972 10.74412661923304 5.418850805327797
K 20.706607809090947 11.46885066193676 8.418851324677172
K 16.950652257575385 8.972422113643928 8.047923439618994
K 12.55175923124689 10.306810791315305 10.179911597481354
K 20.610039000832575 12.592889670347008 12.618563468571148
K 16.476550288541286 9.702614257126228 12.557162831129897
K 12.633168041606094 10.472237479061695 14.747383079633481
K 6.274359192574626 13.114702912567406 6.1629687078474635
K 16.196411514677465 10.487215017660962 17.575172745161428
K 11.8089520866692 17.919557908115156 4.733723068145596
K 5.628884902355111 13.39694064983022 17.958429524175372
K 15.820554568068777 17.160153183269937 7.024311899489105
K 12.099379182473085 18.48509094806248 9.582900171173234
K 9.442957292212794 14.339925721767372 20.312237816522046
K 16.024436359437107 17.705248907212727 11.688423112870792
K 12.32612621990335 18.284801106203684 14.647471958023718
K 12.536396725337312 14.699111075976116 23.86977045970095
K 8.953615353458451 6.653146272440809 10.310509825470046
K 20.26471187424687 7.940969828295703 11.402682063245067
K 19.55506610021848 13.87691026167056 17.232919004349768
K 8.895302613066765 6.24718599204527 15.417166480805864
K 20.07453242780731 9.471909623453827 15.683775833316533
K 15.89600912917343 14.511234477635526 20.125823127422084
K 10.071484900813651 13.644544361208903 3.616057100332874
K 19.73667140371264 15.925806931743535 9.300940752459914
K 4.776786602011088 16.35322618481053 14.60659682799692
K 8.775694111542501 13.232962375120069 10.119420313434942
K 5.036660728480237 7.140802315766423 12.85998416068856
K 8.498041734142797 17.528644572633482 17.146249286217945
K 8.676126777825282 13.911698455590491 14.743871146610296
K 4.298192496263995 11.896912956114441 13.598898237508259
K 12.552369377901679 17.741324959939767 19.635836188387923
K 16.48320019974773 5.403557358043021 10.794381284365564
K 12.925861709399227 6.535587920835037 7.975396466950362
K 16.346288586613944 17.53134914796803 16.722679285915
K 16.65805772756595 6.385115115424309 15.347253748308884
K 12.680556549921805 6.27521170782784 12.924188513212979
K 19.924744180298898 16.862383411271356 13.794304949346495
K 17.760009059398122 13.153903351870044 5.567501810772076
