55
Energy = -46.70057273 eV
K 6.556353059416454 10.295310666275496 17.75355061952412
K 16.807746070577924 13.974393029166583 10.686210162882876
K 15.056156398114215 7.26219278714278 16.721769791199858
K 10.213523557157975 11.04923397939815 7.617986801216733
K 16.836143943228798 14.440555563701011 15.409338287390337
K 15.09965874222459 15.582233889205446 4.267919928203488
K 9.50281986987034 10.669577716165929 13.689236817985396
K 6.091872845080247 11.018026321272549 10.328626965930775
K 12.968998162480396 15.201531761269104 8.608344460611058
K 14.064570762160697 10.380705929430414 20.166554435614387
K 9.96085575544481 12.180329899169127 19.741058778097543
K 12.955331696181284 15.37611281109705 13.201265042499267
K 8.810689616372324 17.8701648134731 8.37262975330454
K 5.3170253842724415 15.862837231616753 10.981306862648742
K 12.916107531759438 15.303099784502656 17.890689674025513
K 9.081673775567118 18.264454821846638 12.92361830542475
K 14.439269008078988 11.469768432191263 6.335012337208593
K 21.375629652841358 11.840057725122746 9.146648071953386
K 17.457111229297457 9.539988342742838 9.112156156864025
K 13.2657396707015 11.013361369442674 11.08631241941713
K 20.828338225427583 13.283991876396696 13.247459477945254
K 17.189890120596097 10.257306432861737 13.68414725013903
K 13.308778266646602 11.379357038130786 15.841374520817245
K 6.799110294985622 14.064190057991727 6.955980449412217
K 18.14122620394425 10.632739478446195 18.17184901336691
K 12.544784525546596 18.975023919350974 6.0801442693637675
K 6.06674852591969 14.772829473031754 18.920835619820984
K 16.601748467839364 17.885635166466514 8.012731383214435
K 12.827531853645926 19.346330255459915 10.601244293043353
K 9.505915928452115 16.36171731151258 21.260798434268853
K 16.68161871984889 18.221843746901534 12.564322396232214
K 13.040650217528713 19.28343962311127 15.393562903856823
K 13.207754926877472 14.421810536147929 22.478203892721215
K 9.122348726931332 7.6342314576169885 10.254173578802638
K 20.859274872703335 8.369733079151594 11.905283981779759
K 20.721801142585242 14.426647501837463 17.81073843622317
K 10.569325896750629 8.088544029468515 17.465991376873465
K 22.085520818216253 10.277635623119279 15.980782023060613
K 16.78049067956852 14.48392612312598 20.104029240459766
K 10.661958243594698 14.826782904087155 4.915668437917771
K 20.47260542477696 16.377927910570026 9.912006754069253
K 5.325430049627298 17.15112301635647 15.224353467191795
K 9.288774250815527 14.071484595853157 10.910120710787371
K 6.802589908438491 7.595664800942679 14.085076646539939
K 9.128232813008745 18.60577664958705 17.497011042594963
K 9.100752408067834 14.485188322417924 15.675884733353152
K 5.0057701147366265 12.615362813634254 14.396513235972069
K 13.308807842442095 18.887030935007928 20.10848730812099
K 16.38637305140503 6.164774966355511 12.178204791125651
K 13.34704552258048 7.336988471455705 8.756080656037726
K 17.07097878521665 18.257570290472913 17.438492217433783
K 19.370934415694062 6.813414370641243 15.888951733195821
K 12.148991352018022 6.869537910710221 13.332219958895088
K 20.49884652757261 17.504200249385107 14.460819970154965
K 18.449895324457717 13.704423367455794 6.474341302500865
