55
Energy = -46.74306303 eV
K 5.630236375612426 10.559360115550763 9.076350022423714
K 21.453794791782727 14.340575201748658 12.887110081808624
K 15.987470578702467 9.593461270481919 15.737924437100578
K 10.19452432786909 5.101278920637586 12.10952188000778
K 17.29812047231595 14.325603093346587 15.289911946427651
K 10.695441022409742 9.864690877270167 19.826522977765844
K 13.597598049181798 12.847417572054809 8.687633940065027
K 12.814189990437963 17.370126341650323 19.64253208668047
K 17.346096898797743 7.568843587175472 11.72295419022523
K 9.392395812785372 11.715786440244248 11.234512144593229
K 9.495627475230428 11.773670014361736 6.734731214941252
K 11.309089371295517 9.501571475250856 15.155533700135257
K 5.476007358496368 15.083768161568488 16.88592878625831
K 5.27125961362603 12.810266492709015 12.982716639171704
K 7.183730061098208 10.610531364026109 16.969588218772497
K 12.84783366217818 19.614994578918964 9.087767150407915
K 8.329821539261543 19.193503985480785 9.072058705392031
K 19.57923058778112 16.157684889578206 9.1379961134281
K 10.521217263479288 20.05345067565546 13.14161657091619
K 13.96727915753001 5.674832127946168 14.090768376793593
K 15.522964318995339 16.388395912572236 11.280899233991844
K 13.565522544866681 6.777853570259878 18.42845350760279
K 9.4120362104552 6.057671844089644 16.616827958191465
K 13.168169731078015 16.96302553503571 15.120757000484208
K 20.27471191286617 10.127847965828778 14.296345268644723
K 17.72121606500805 12.097634129721508 10.969141324042258
K 9.059788229456672 18.155040232384234 16.979795033815186
K 13.214828082524138 13.058580863472217 17.70276365961391
K 13.631067424396127 12.755934756880498 13.186250766587637
K 15.452255854134803 10.309974591264433 20.39462475658134
K 9.087395330875783 14.282319513365891 19.607262951481108
K 9.462876600578108 14.036902347388358 15.057945699607565
K 23.247247740256007 12.494444917139155 16.585263672454975
K 19.162316853603848 18.193236002683907 13.36990419607845
K 17.36502669100545 20.028359913364053 9.417200019429975
K 16.68672189342675 15.059842493326293 19.96824056503604
K 16.743603510910727 18.828226797135684 17.317085287876225
K 15.128912069784596 20.72593706553575 13.219168616825971
K 10.946201963225397 16.12428193474946 6.46279081887059
K 12.92413479584027 8.971814682748652 10.919550325581138
K 12.764167614385654 21.098038708290897 17.004210034862137
K 12.409833513859072 8.36970684088433 6.0472339809648705
K 7.145973519307558 8.341736813132291 13.067187060449829
K 19.2675773310701 11.703836682165166 18.487943405197107
K 16.279705159558453 9.06039442576988 7.602943580242563
K 15.480009736018964 16.590957605747803 6.749927338980309
K 12.819258033455142 13.562945138426352 22.192529058924606
K 13.91039936128305 12.480357573761756 4.481015692262894
K 10.887082079300095 15.953703254211588 11.01326355035828
K 20.670213948155894 16.186293965835944 17.352442392599954
K 18.04733821387535 12.899530166443748 6.434934479474999
K 6.788434618841221 17.19095029429209 12.875965215866282
K 9.05649404230596 7.57986883607613 8.722929195092561
K 13.937009123654088 5.25808040902599 9.241027602013286
K 6.79816558408033 14.954481143645152 8.78212167890901
