55
Energy = -47.02447019 eV
K 15.534458643449254 6.267443487174776 5.798670087513961
K 17.515402188095493 13.863247004147286 15.179099003954239
K 9.27772094789281 10.354215495576678 15.372536217523141
K 5.035369393749842 13.36208511288342 15.838306083982172
K 8.5509759480098 7.944742533858578 19.490215883992402
K 16.901108304491228 10.482930440284754 4.329874433845246
K 18.030079470396764 9.561852212738815 13.27594137661608
K 11.889032818953938 11.158697715641836 19.21985320166192
K 11.214534979663881 16.018829470693138 19.31707647885996
K 9.189723332037412 8.98908143604852 6.625803327801248
K 13.710658694234667 16.903163758449463 7.916504241727102
K 10.065306652552847 19.164177905950307 15.51882519181247
K 11.17208623292582 17.07784949748698 3.9787278672548707
K 10.145654899954915 0.5372040794774535 11.032980496326639
K 5.455487354464817 7.627980756100135 8.587070713714011
K 16.06232005206803 9.957042527818171 17.31366893054928
K 6.865900926310046 14.793843329978467 11.710397559568744
K 9.110010089951464 7.843832516930768 11.594838506711211
K 12.838672158259556 12.257836938800315 7.219915080632445
K 11.161850279463348 5.218200923892494 5.074526159971844
K 17.164658400302812 14.108254299009976 7.258164402848632
K 5.416835793688425 5.615330289114956 12.530085362635056
K 15.177867394664837 14.08958408222593 19.40256562475537
K 14.095624815730805 17.125221275643817 15.774336867709671
K 8.496471192193557 19.08901416578019 11.180571569486927
K 5.356184878641139 8.660012191757746 16.415540601436962
K 12.680624142169895 7.788327650429499 8.793525112549224
K 13.28259499557351 2.8298416902411767 8.346477473448939
K 9.373775665719181 15.763999987653516 7.935897974022011
K 6.511784470787119 12.159097210353691 7.944746339215139
K 9.438429977266916 12.876520022413228 4.268246897189484
K 13.444689057579176 8.959364043037567 13.061445656828544
K 7.637166047426849 12.441618537819227 19.451711557559587
K 8.908608323519584 4.484484517223919 8.972428895977199
K 5.747828290672826 17.898889951806524 14.659265164200287
K 8.633050392628366 5.446327743266588 15.504425060548053
K 13.151295326328336 12.820871934664954 15.322956710612978
K 16.263186296186593 5.706662364004604 10.542772020682179
K 19.448089632692326 13.304508378172628 11.107493429484753
K 12.330986948927848 7.199608411632279 17.075304972698177
K 14.871321079451658 12.705937677154353 11.200610265535303
K 16.066797176940682 5.7935482321433485 15.087030239309117
K 11.723586358322347 15.933707935477878 11.957576439987246
K 10.832719286230606 20.460233902871686 7.55947670771338
K 13.042110755750931 20.159485911928677 11.660968549246592
K 6.874641136637256 16.918702490637568 18.78250707823055
K 9.237914621920895 14.774228109530847 15.538522211692992
K 12.209392904015061 4.554715076290626 12.604160804674235
K 16.95785207851634 9.74504706348036 8.725956281709045
K 11.520142822982535 13.375158999585263 0.05099312680068766
K 5.582823232522901 10.452226007474032 12.24885624242971
K 14.420130678967313 14.079395469218044 3.427624567631256
K 12.600794361540823 9.482378480019007 3.6038119158671615
K 10.227977568847601 11.89847725154239 10.843301304288019
K 16.408097716576307 16.777368691311402 11.628218915826203
