55
Energy = -46.71262069 eV
K 4.624179251120462 8.96359414822073 14.857905144572518
K 16.284262924083002 13.224039741268886 9.699490161682634
K 12.426529184653177 6.743648900728954 17.22419740862475
K 8.445948047984736 9.310504944234234 7.529358546210233
K 16.317800778881463 13.61716165760147 14.219298618504828
K 12.630594376345318 13.121314331225433 2.0446632538271756
K 8.334935887601906 9.34872894274569 12.381901819847352
K 4.5723274692914755 8.823996246444832 10.00388339321238
K 12.303475701207034 13.80468374008051 7.533021805151187
K 12.320737277504598 10.79731170345199 19.61158537541921
K 8.500043798496485 9.745672047461253 17.218636909873197
K 12.323829166690524 14.239712196307426 12.039016253562464
K 8.209203958816333 16.810068471680385 7.307406125773034
K 4.594910855566245 16.352146234340193 9.988463272463774
K 12.412661804149346 14.173693511464224 16.626711344547022
K 8.58257703381627 17.351363617298897 12.051456442466941
K 12.444852627940625 9.951084097139201 5.317118666115594
K 19.979997251593367 11.652312586991842 7.601151921057278
K 16.218404045611766 9.002494807395426 7.7328923326424395
K 12.245330649792603 10.039490654693703 10.021739941185883
K 20.52127633650704 12.352803784224076 12.085666865045635
K 16.154614073186263 9.560768578628528 12.319234380717047
K 12.217457532955013 10.263748223214932 14.581237509813997
K 4.876778645426973 12.628216427313383 7.40097756704413
K 16.061977289792946 10.04266571020541 17.060715154399723
K 11.952891255955901 16.87091193959292 4.578804473180089
K 4.845288713798802 12.895932942125077 17.15902996796613
K 15.943368452723622 16.96956787666233 7.013682958720796
K 12.181729087311034 17.953639642723854 9.351663210099256
K 8.777310040153585 13.865073416067874 19.379662627274776
K 16.267250433358182 17.48443222924358 11.596479927712041
K 12.615442229646279 18.12364771069294 14.24113845958263
K 12.291068396950205 14.544264267940344 22.28209337221355
K 8.407986963891585 5.5032105342805755 10.122247523860763
K 19.9117419346949 8.003834347555909 10.529783288435171
K 19.789688127715774 13.234574947017455 16.814150112698318
K 8.43436914441669 5.765339201313712 15.063442590213945
K 19.915272246814045 8.987175940529463 14.929574442790083
K 15.948179728529254 13.964663005047386 19.433985558780538
K 8.785609846790658 13.037278188356304 4.814864271571925
K 19.87834210440188 15.945268907024978 9.15258365343802
K 4.8000420535401505 16.55547407979492 14.545809665182627
K 8.36437906737739 13.206230991979936 9.924632016840789
K 4.74095873842429 5.1814465594587125 12.579074626597002
K 8.723382379059029 17.410266036557946 16.65456176266383
K 8.35753047133892 13.412643587837177 14.523261607325425
K 3.964741748446064 12.628839511676787 12.32565139455086
K 12.730008488622083 17.70401996243986 18.978012199680414
K 16.169360552491362 5.347843270591052 10.348366189835328
K 12.309607349317954 6.119502772768426 7.925672387781053
K 16.650860349450483 17.40318091740747 16.41870815157974
K 16.414056206016074 5.9912646350539935 14.902706362845768
K 12.299891287140046 5.997244545865272 12.596116951149144
K 20.167175734147527 16.535820363408398 13.681125837672784
K 16.18134573591466 12.859767202075911 5.098969031450014
