6
Energy = -3.61059154 eV
K 15.2183077431235 12.595655193360928 16.03680673397347
K 14.758508976984492 14.012665933124586 11.84134769311787
K 13.80026623962541 9.717524837502722 13.136275755007837
K 11.431940722551706 11.822090490532634 9.953251595893775
K 11.003835477440822 12.908539528870731 14.404556258365968
K 10.654828690474124 15.870787593831418 11.153505723949896
