6
Energy = -3.36714095 eV
K 11.941080916878075 17.050642789918136 0.6582040885963988
K 16.244558477326446 12.612185876133028 9.664557876197236
K 12.148637585160573 14.793491992061014 15.421236150032982
K 15.87231284831814 16.067544849602225 17.61031280246868
K 13.122232106345905 11.676988960999244 12.512883389148707
K 16.183708862983462 14.85533427017379 13.282753659711064
