6
Energy = -3.42926651 eV
K 8.63514905747279 13.62688245254754 15.135322197650453
K 16.146246412807592 14.191185433729856 12.776731774324793
K 11.747164211451528 13.495997522930715 12.050180536934654
K 17.124103430697385 16.01686568183865 16.615114518289797
K 12.731199323673799 15.528521977609259 15.780558396341553
K 1.1553659210406846 13.959054172735852 14.480339004164426
