6
Energy = -3.64587742 eV
K 14.87618957288715 12.130375258065465 15.644051821358113
K 16.35254945737616 9.458299461281289 12.57289941150006
K 12.352780293470126 16.70127695606269 10.136955411309346
K 14.512728731742282 13.127815977358301 11.223189042158703
K 12.765448512010575 16.064950113150427 14.34811191768707
K 12.540007683796551 14.549823215542505 0.9363884405521113
