6
Energy = -3.59822831 eV
K 11.10097001244426 15.699089876355455 10.703699782911636
K 15.01746056393953 13.582476749960207 11.582806681799987
K 10.850153316933532 12.207403654111499 13.388338133487748
K 14.49217977225252 12.04305306170668 15.916994146875547
K 12.98902183072278 16.072980171294205 14.61440868686342
K 14.276023266253135 9.340204661404849 12.59730866884214
