6
Energy = -3.56307527 eV
K 12.232987981147977 11.284541359156249 9.795831336462896
K 15.353203625223628 12.857512976132961 12.761041410474514
K 12.253765087075074 15.538953124647705 11.488373897926495
K 11.993197678547093 9.400580028404818 13.652825919063703
K 8.873535812071296 12.060185068552316 12.371743427983933
K 11.98442644481622 13.653685812206875 15.342415049582804
