6
Energy = -3.57285488 eV
K 12.699264743959858 16.388965106318135 11.411225458210408
K 15.729819613169525 13.738379945925894 9.394106541384373
K 13.125888930821082 12.267898974147442 12.392271874810358
K 10.393049268092037 10.242794468307055 14.965498328678432
K 13.754467557201632 8.116125904449984 12.985760726347799
K 9.661959051000817 14.610284765096306 14.215586234813163
