6
Energy = -3.3552009 eV
K 14.937034445544818 13.112629329197757 0.0018596858963723889
K 15.81472578501251 15.689787612016792 14.129344085204545
K 11.985192855021634 14.977117748384872 12.315898193426348
K 8.738429027553138 12.234491109851458 11.339901083497772
K 12.668542303587293 11.391411649635753 9.632992765526977
K 14.506055374680336 11.35171211564221 13.530183294840377
