6
Energy = -3.4929768 eV
K 16.29908584421362 14.478584971707923 14.131376744029586
K 14.380198907696247 12.2362666312494 10.840820188663027
K 13.34775316448047 10.789215308471228 14.94106073290747
K 13.712726250736111 14.283163097813391 17.661775927329042
K 11.758794964814625 14.814816722932953 13.731845665400336
K 11.052060220799133 14.510482602482918 9.480748378788123
