7
Energy = -4.28568173 eV
K 15.236514663065998 15.733004370866675 9.606312376265166
K 15.607359376561167 12.399306243293868 12.332063311499049
K 11.953918667069498 15.407202813352615 12.22328870359423
K 11.556894996958617 10.756470540104361 12.588562712201892
K 17.135861259810294 12.735087451293396 16.386884531103792
K 12.990141959956889 13.3560036590065 16.171134850765604
K 8.808451486842921 13.452195783041 14.560730526449698
