7
Energy = -4.67916731 eV
K 9.453939172409623 11.674672802770244 8.35728264916985
K 8.80355718995619 7.924624676313283 6.0785794368605774
K 5.734990220704809 9.08785917994111 9.05255502641301
K 7.7501064029136035 10.960757736573123 12.470200327611513
K 12.837011279447223 8.688734533975232 7.9126797688043595
K 12.126339600177102 10.610345072233216 11.768840478969073
K 9.473417324821138 7.232367188623604 10.539223502601146
