7
Energy = -4.41042556 eV
K 14.025258442408736 8.72594856760923 11.443125249010345
K 15.89589391572792 12.127685052294462 13.25818282950085
K 16.600016254271605 15.715845687810965 15.542598725494535
K 13.837316204642168 16.060559751323648 12.1556322505626
K 12.699234252565546 13.618230214360768 16.159461773829594
K 11.45256258924753 12.159309011460115 11.970131592752749
K 9.62695555346039 15.67713638155714 13.653816966662358
