7
Energy = -4.497678 eV
K 0.6214922751663332 13.837992407351953 13.243694406525146
K 14.312702713021688 13.825642428612088 9.968545068152599
K 14.601451462213717 10.46763226093377 14.341402849506954
K 11.501549370748814 10.592122490550645 11.179751069177039
K 13.015991125999744 14.643716918708213 14.173976302618314
K 10.38437497669554 11.320642681482019 15.301287070967131
K 10.075390533780451 14.704054335894861 10.896366478751975
