7
Energy = -4.49521316 eV
K 14.596453806060044 9.29445083830713 10.074765991612155
K 15.456741611377797 13.131687908161108 11.990014200049538
K 12.377128108532062 16.328224952057592 11.79351543420194
K 13.760659061655709 14.025823066797436 15.964796739198244
K 13.227650468020693 10.00266188117904 14.21427440758875
K 11.706939280640668 12.620359348850494 9.578725590637848
K 10.109138593640951 13.139440239597539 13.72635639403964
