7
Energy = -3.9555879 eV
K 16.566675794994122 12.59777439099071 12.960808438237196
K 17.82303402254662 16.589101094577536 13.1817664711268
K 14.995385366257173 8.787714140088605 12.52189229304441
K 10.164770107430401 16.92273644891488 16.016893345328565
K 13.764065237623717 17.931683527990746 14.13987775244363
K 12.494196669568618 13.823758893667073 14.088980291241713
K 10.931848226811118 9.974787329377845 13.718604979298
