7
Energy = -4.48644375 eV
K 9.43463367281411 10.297612181851951 10.439114798428529
K 8.747057496510415 6.10760449490294 11.427080049293393
K 8.0597182996075 5.301186647764614 6.766930363654267
K 8.82179912203136 9.411785005312295 5.528313467981557
K 6.634998204255851 12.451410117926592 7.743082968168151
K 5.765594087923029 8.411674377974958 9.176981796424947
K 11.668930952991031 7.151458174266774 8.051227556049394
