7
Energy = -4.45072136 eV
K 4.702351393880046 7.8042027634926106 7.218723512031638
K 7.986051447173832 10.265816881050512 5.800532814012238
K 7.413262651209563 4.621232393701342 8.346549025369441
K 10.84739957449852 6.889843963088661 6.9735668766694054
K 6.703889920340214 10.608631378583123 9.895272176479104
K 11.061885539708245 10.870368157592953 8.985848979967368
K 9.584795286771813 7.239540276073035 11.079144488306001
