7
Energy = -4.62901171 eV
K 11.553354498718928 10.462121252794846 10.659114186290337
K 15.339991603272994 10.098459455636268 13.00058650204863
K 14.096659389740651 14.086939681388163 11.238520468979305
K 11.782672382779037 11.95280315421371 14.931869278499825
K 15.89181035413242 13.836860562324283 15.305831316150465
K 12.302102145239669 16.383824372761136 14.759677480398835
K 9.652992433959046 14.336149003915319 11.78854184466554
