7
Energy = -4.50508133 eV
K 10.517040997443006 14.373414362982501 8.644695612438122
K 9.863434287937205 10.31360114746822 9.963558925203088
K 13.976302087374162 12.019559927787935 9.753520549122968
K 11.136173532125738 13.473999154513645 12.897257775053003
K 12.812682739309132 9.318713838223207 13.17143958486891
K 15.34181524315243 12.745487258268287 13.793658515953384
K 8.658601642544928 10.061274840642549 14.081919567246745
