8
Energy = -5.45190831 eV
K 12.81602805301276 11.15082855274244 14.978010328471424
K 16.25916941950389 13.2005089228199 16.62008351231171
K 16.583002400396037 12.437807795934123 12.278683038722042
K 12.618213556828229 11.289283221046755 10.418115253526205
K 16.964535670148248 16.519805497069463 13.802705103778553
K 12.171139496568685 15.03088058556174 16.907374231921786
K 12.844278591098442 15.061966194660746 12.441849545666582
K 13.196032907666034 -0.11490968141275414 14.553395857878343
