8
Energy = -5.15230425 eV
K 13.65816972228244 10.352322554813643 13.233231663472367
K 9.192594564189333 9.512648541631789 13.250615876603176
K 15.30625921334459 13.579065931614783 10.48201167843331
K 11.01456696206564 12.531906500561375 10.479300643982493
K 12.56435828202188 15.812987977458505 13.029477149762164
K 11.014365411085649 12.6113078929027 15.829681834320395
K 17.056060573984325 16.66719945966341 13.061489689791541
K 15.305119199933817 13.642758815273229 15.780159858797036
