8
Energy = -5.13125548 eV
K 16.17711279295399 17.114391764588255 14.826081042330973
K 15.29685809785356 12.118343992267118 15.803667826574983
K 12.608974519891644 15.164348053399197 16.13519771879207
K 11.642482477921611 10.432880192554137 14.314259297227329
K 18.236487678684014 13.96620698092225 13.165047492585458
K 13.170214560274765 15.89144976459641 11.961813506575291
K 14.569113059945558 12.105996481150598 11.600521145315154
K 9.550547116904756 13.845836848265504 13.361715241691977
