8
Energy = -5.24203934 eV
K 10.710785280192434 5.929407833173039 7.203553990657877
K 11.101072134192256 10.505904010224164 8.141134322927018
K 7.0677186638736496 13.085573576405183 8.105899879796006
K 9.982942965823892 15.926888732481638 9.788326706701577
K 8.85009811358703 11.240268395508386 11.685986966077296
K 9.621341051927 6.674938875329514 11.283988666185504
K 9.6169831449201 2.052894529821869 9.595832396799713
K 7.032200232693159 8.567265634265624 8.178418658064423
