8
Energy = -5.41856092 eV
K 15.821426253674941 15.552786080648879 14.8171596838336
K 16.505858854441414 11.951182397991074 12.58544952286612
K 12.707470283245534 12.144780645719273 15.197900298088564
K 11.893081476107787 16.009667985321467 16.812725942815934
K 13.765074400546018 8.47752907989255 13.272681662512136
K 14.543162405808193 15.349660448134303 10.526663457790368
K 12.047719489991257 11.671669702078043 10.644747853754122
K 10.623454969652977 15.249357450105567 12.570648609842626
