8
Energy = -5.58750244 eV
K 6.876078601801792 9.155521845136924 12.528809636320199
K 10.450671354718589 10.818934858495487 6.817463444739636
K 8.611375496050519 12.878457980396197 10.136745713874316
K 8.250542313141514 6.051818674879332 9.781366763340557
K 8.24697122920981 7.1479094027777235 5.440464016560392
K 6.143692781214549 9.74318609742344 8.193624785167193
K 11.162986787182785 9.361713684112711 11.171383018392168
K 12.199453032540553 6.7842298609183205 7.871914621605533
