8
Energy = -4.7134066 eV
K 16.495776176834745 13.870137137856148 10.776694694380192
K 10.513287498619185 17.056677040886854 14.658494106661214
K 9.998049830354725 12.851149561948061 13.293484457054973
K 14.11691411930642 14.776538619732955 14.469165212400432
K 10.009310028567995 9.258928444595483 10.736859067688352
K 13.72252644764069 0.3738139148990274 17.416707620921233
K 13.737180144414278 10.724369681805072 12.2351522237288
K 17.032218543339447 11.52558289288296 15.067473894032963
