8
Energy = -4.9766788 eV
K 16.79782494338785 14.341664472580911 15.795271780547608
K 14.547854031642055 10.846051335506825 14.693474465865865
K 15.75281341991561 0.7196922366491103 14.167233354632192
K 10.01040596075385 11.417352282027242 14.684262881793607
K 11.787985276525445 8.206846117693186 12.215636315276102
K 13.596230391264658 16.73662593198522 10.671218257626775
K 12.564704782494722 15.101024266458603 14.696395227109058
K 12.60963963542103 12.516788536506644 10.946318084008588
