8
Energy = -5.10807256 eV
K 9.908687923725124 9.995433649002525 14.500523079483166
K 17.808615167885304 12.680032157351306 10.30958840269428
K 13.84924265981307 11.112333767352155 12.27400285543217
K 12.597762014290131 13.017340291488885 16.216825254155243
K 16.492475409535146 14.408858868169185 14.106994383248155
K 10.314247903516424 13.948311566295272 12.718742973085782
K 14.185691001920912 15.249519362706016 10.641541351385982
K 12.97073544972617 17.121187205673603 14.51415250582086
