9
Energy = -6.21091459 eV
K 13.589405350015967 14.994983509576981 7.9302593324703325
K 11.60706070109681 11.983603575416144 10.507921935491934
K 15.46591011686001 13.719895557558416 11.954790765316158
K 11.968008865156499 16.425151809788986 11.963102148099725
K 13.519528670919122 10.08862099271237 13.898429431981631
K 10.337640239325431 13.130708787560781 14.63652961877365
K 13.888354454074985 15.724869920152134 15.744088323485038
K 16.917867783108875 12.355582074775114 15.75818779362814
K 13.106910542128713 11.977270495145634 18.0073773734398
