9
Energy = -5.74001558 eV
K 0.7698097889727966 15.195348122066033 14.515230680894991
K 16.757778173688788 11.799444465620116 12.929068064786891
K 14.84125078917007 13.623026133483092 16.33795269111952
K 15.133053684430697 16.23867219897252 12.59639585982184
K 13.644946132969787 9.503500947500253 15.186423120861244
K 11.42940591859928 -0.13022392241804398 11.06089923518759
K 11.087355075786576 15.251004048032843 14.508273779351821
K 12.57733555041459 12.568000827962965 11.581016846581829
K 9.557878798901037 11.010756730862377 14.472926613673378
