9
Energy = -5.46494385 eV
K 0.6642543600221581 13.771668406491909 14.908952679681244
K 16.481697518954498 12.24414967524212 18.18428165131664
K 15.312452457162035 16.023620719502272 13.411189663243045
K 15.388315052216592 11.364026615477368 13.805700484886676
K 12.659301604951432 9.307189891028445 11.086531163371683
K 12.906304332516195 14.13511607804813 16.407354267297503
K 11.809979578069214 13.416495341796253 12.09386883976573
K 11.842142032552383 17.86452052818512 11.177984160466812
K 9.291083472088289 16.106427144180767 14.481356404519378
