9
Energy = -6.16944766 eV
K 11.03879432191522 13.271754212367536 7.966068229499219
K 14.424945339228731 15.034816872343624 11.006174275941286
K 13.688060669041086 10.631434374391645 10.183067484007793
K 9.450870645377368 9.876301588649564 10.966174403230466
K 16.662188881501233 11.809501668512633 13.083130141085755
K 10.169758693397922 14.367120689850644 12.067644050931289
K 8.453430908539906 11.424058750235195 14.814736612875006
K 12.70723856929097 9.458304085214884 14.222741912887184
K 12.903852213406315 13.625848000132645 15.18940313124077
