9
Energy = -5.16930709 eV
K 17.569426119516194 13.743803037550045 15.599616042221305
K 13.593059351477947 12.193695255229146 14.463067102425923
K 16.31949365957875 13.299746688872553 11.39889495218875
K 0.38459559030521534 15.39256136334089 12.357456276101003
K 11.076256512244749 15.205096376812797 16.695329774819545
K 9.596222967224788 14.009616202264596 12.892919936814982
K 13.586976900574358 16.222922218900703 12.892357410216729
K 14.49174394386614 13.66522714090929 18.338094789832358
K 15.38470579247597 17.30286891673618 16.32155568586378
