9
Energy = -6.07728089 eV
K 14.94605217429877 14.729852409668876 14.659907925012574
K 14.644607829592628 13.514640424962343 10.332268571748434
K -0.10607053536021954 11.210909086430236 12.995358187892682
K 13.526410749482624 10.415607847359324 14.984272962508907
K 10.846480936393755 0.05729369353650686 15.361440646975671
K 13.021727488398232 9.418936592077301 10.810195379479653
K 10.824953495195677 13.061531749720302 12.491867205211078
K 12.67253163193666 -0.1919059171525176 11.522040725286445
K 11.212686179059585 13.402742108259673 16.99195744161915
