9
Energy = -5.88025079 eV
K 16.44871290509422 9.822454731029271 12.383226249499142
K 14.621685837434184 14.165427762280395 13.105251001042904
K 15.977505081873238 11.164164063345044 16.71105378013636
K 13.095191525259953 11.673081129206599 9.860256945549173
K 12.361475903949406 13.865122350802244 16.782222449883776
K 12.5636045713474 10.013366143551696 14.237094439188608
K 11.710558418217595 16.020404914369774 9.64879383035902
K 11.225571358178309 17.412405580038023 14.044828050565814
K 10.00758369255335 13.49738815962733 12.771409253370152
