46
Energy = -99.92605000 eV
Ag 15.378472220852341 12.224403921776757 13.165125803418716
Ag 15.216504407737592 9.428818113568 12.225944516430253
Ag 16.292380786077526 14.291075477316015 11.5812200823916
Ag 14.613138873883601 10.110909123078812 14.898647489841283
Ag 16.502753317956294 11.565083043963376 10.64082948190436
Ag 14.49893004270337 14.927539514844444 13.669679613581645
Ag 13.330657937948166 12.594614208301806 15.130647970832339
Ag 15.114398561614967 14.867638865643682 9.145810964187143
Ag 14.800496369411952 16.63052570957274 11.452882057759762
Ag 13.091226155573116 7.893279878917726 11.181804743542866
Ag 13.141653465752716 7.899935261288036 13.931965381461891
Ag 12.902274582965436 10.948626807544104 12.744658053512547
Ag 14.642117470470838 9.75905254501958 9.510011936579668
Ag 12.260034591944203 16.56598769125633 12.88231096841057
Ag 11.801356615489377 10.091579315574029 15.265728648284453
Ag 12.121492445330919 13.759326349915225 12.837088691793246
Ag 12.072427855214665 15.092833927146255 15.35029343078196
Ag 12.621852967427733 15.354025375996075 10.355034876450981
Ag 15.274017363472034 12.176011430916981 8.162503926942495
Ag 12.533698797259936 8.09265549225519 8.483692442467369
Ag 10.593838870014428 12.62599852456809 15.787966400620162
Ag 13.881625415157835 12.617239967595328 10.657864005966704
Ag 10.179202515249706 11.708369519766114 13.056504054831978
Ag 9.044212018678254 9.780875598504743 14.908322880580595
Ag 12.836629212574707 10.780545578588445 7.582264911498656
Ag 12.796884819984305 13.511814252877377 8.18387015989757
Ag 11.113253389595737 6.266467881274321 12.46120272148
Ag 10.969492035143407 12.903752261425852 10.474389539500095
Ag 11.871662142974392 10.266016323040613 10.202128283988023
Ag 10.381347501566644 14.931832559228091 8.584127724970193
Ag 10.479510557570638 7.426894907639194 14.947867686635153
Ag 10.828211971057877 9.055766324971474 12.67321578074967
Ag 9.624596460739792 14.635553639222644 14.059412654885103
Ag 9.970480548814235 15.342263311165638 11.402124221262289
Ag 7.985949899352434 12.395780742806298 14.69391398624843
Ag 10.30073731102272 12.16983861927952 7.806963512121656
Ag 10.145564694371977 9.427671503706268 7.982761193813933
Ag 7.522652752405267 10.351282281304284 12.697858008066943
Ag 8.138292365523686 13.188384327603579 11.958527133030014
Ag 9.139237947291422 10.742593039846291 10.401872196928965
Ag 10.113020939300045 7.827715739750342 10.303482585490658
Ag 8.159773143475617 13.352826300382963 9.20188616110905
Ag 8.477759390075263 7.629399039339892 12.828548269607671
Ag 7.74522270232551 10.858790349832043 7.911743140695962
Ag 6.407690438608517 11.436498131009989 10.347912468169799
Ag 7.268229766512913 8.676870859848847 10.45235287574932
