9
Energy = -15.69075015 eV
Ag 7.582831341354855 11.371728361438478 10.607978302874336
Ag 8.577543497709152 8.822379023236218 11.131052755629396
Ag 9.86852626934843 9.222345722003864 7.7278885328831715
Ag 8.626378979207676 7.023948939784196 8.975011501866218
Ag 10.292577227013174 10.819101376128845 10.060607361827214
Ag 7.20034518574719 9.331157992947897 8.731095855203112
Ag 11.085923894922642 8.210789369683054 10.061700686644539
Ag 8.598442371551387 11.625219264997448 7.978749606709438
Ag 11.103769476766484 6.721569844253349 7.724774624220082
