22
Energy = -44.14946180 eV
Ag 14.333870660697617 12.76831661076265 11.447181294339508
Ag 13.224460620924091 12.409188986257464 8.821230748814047
Ag 12.669416628319368 14.793592784697 10.549532336483392
Ag 11.954570348907911 13.183292852240221 12.980040852194
Ag 13.764527129498726 10.229713899738016 10.446368588710834
Ag 10.33664899449472 14.98930658800811 8.82861112937479
Ag 13.542960502859916 10.917230458675554 13.374903501702258
Ag 10.101721511745412 14.98335976032022 11.639410157200972
Ag 9.618556135594272 12.289887253626343 7.9212912753684055
Ag 10.920993600923518 12.692547173267085 10.289572536038554
Ag 8.188072388067926 13.464912579858796 10.10724696017984
Ag 11.328891937776705 10.197745914652725 9.017420351460736
Ag 11.227681202250281 10.467596850017847 11.936179046601788
Ag 13.151912945132722 8.324267944150925 12.319383364484313
Ag 9.16361992545177 12.511239390469393 12.639854752415497
Ag 10.780847461913481 8.254440232026138 13.655300286986778
Ag 8.823712918939933 10.735633141333413 10.250383878153553
Ag 10.707247228150196 11.127518875678609 14.568307199552763
Ag 9.990020610630959 8.244914020372754 10.776753753072184
Ag 12.465228783518056 7.725755722397508 9.623558997232749
Ag 8.591922809484535 9.802893746119633 12.89867247259765
Ag 11.510922771729685 6.155017339113509 11.900404918473813
