8
Energy = -13.47435200 eV
Ag 9.8151334738995 9.397053157801619 11.506271852020532
Ag 10.336494770559943 8.057171693635484 9.23699828643999
Ag 8.047208674110786 7.4890744017899635 10.54223075827419
Ag 11.41189550132648 10.088023802160148 7.792464485984087
Ag 9.759638444139862 8.149499049044504 6.572973402044638
Ag 9.431959684344685 11.092606090525308 9.303878993639595
Ag 7.773730570474947 9.040546447797617 8.155567526890206
Ag 7.142600076127565 10.252469034546179 10.472499136746633
