15
Energy = -27.53930319 eV
Ag 11.492516967063082 12.072577903088856 12.11783103457158
Ag 9.775286881914282 12.203568001591856 14.398287438298881
Ag 13.472250416106192 11.389195263860064 10.307047265962451
Ag 10.41059211279258 7.297458069239859 12.133174188077035
Ag 12.334627673794207 9.34827629722575 8.632116816176207
Ag 9.948334777119296 9.476163770954926 10.385362998581197
Ag 14.716025375870434 8.995685399895754 10.085912251879858
Ag 8.762473529871219 11.759437574325979 11.875005259275124
Ag 9.854037940237188 9.945897289839936 7.5707400155908005
Ag 10.319929969792645 9.808525576276569 13.223159605638815
Ag 12.511276484231857 13.930981313718627 10.115537736359423
Ag 6.546329559109752 12.879901831771104 10.8677283970076
Ag 8.105946311960723 11.370642481689753 9.200399291270648
Ag 12.440649316354001 9.148852052675423 11.582240035617621
Ag 10.878400055641364 11.85151341722131 9.347357784404952
