42
Energy = -90.07828211 eV
Ag 8.774428247627288 16.499500875422527 11.63158162266696
Ag 9.2532078057574 14.02586088684262 15.015171473905555
Ag 7.3775411890848845 14.413574890284398 12.862496421488894
Ag 10.7067483306751 11.676707816944784 15.487391197380314
Ag 12.545957769128197 10.325880678174608 17.28716665458877
Ag 8.422396680791985 11.810432159077088 13.602126712260928
Ag 6.489992620992872 12.162951726319251 11.537226818469644
Ag 9.61316004551664 9.329745980952724 14.08363085161296
Ag 10.360308769354702 16.336637276697306 13.973775356051435
Ag 10.197848639380622 16.181238765345945 9.237988819133946
Ag 13.166980956498708 16.713786354599048 13.861747481077154
Ag 13.52912115917207 12.483138663858623 15.886515750184293
Ag 7.573475723425876 9.62658030195929 12.074784886289237
Ag 11.947405946455897 14.004514046555622 14.167042528314733
Ag 10.048933518510669 14.004355833844462 12.107497266073599
Ag 8.05301157259309 14.233775797845242 10.10147580086891
Ag 12.343196103207195 9.589192330431617 14.636749758727934
Ag 11.220518387786937 11.495721221369953 12.6652440436944
Ag 9.063057465390969 11.584033923369331 10.622526365753574
Ag 10.212051098642789 9.068746718665663 11.343394866259136
Ag 14.6821992534419 14.393659388541089 14.075214057170498
Ag 14.029110388443586 11.635344811299259 13.240305631394666
Ag 11.773902964845835 16.24483388018737 11.535331025995507
Ag 10.788502144010303 13.517774499462547 9.356725021540338
Ag 11.604965875414024 7.375929540340476 13.176733437241927
Ag 14.46002645742774 8.043031751797693 13.62523956919754
Ag 14.618144064689423 15.74857898137446 11.609758682643472
Ag 12.914107369946546 13.455676924018677 11.334384309311847
Ag 14.88907110564865 10.008305545436432 15.66486633955825
Ag 11.718872834764998 10.96592955168936 9.858262916699024
Ag 16.330981794101955 12.279749151797972 14.83375197263844
Ag 12.975497757559639 15.420744681524166 9.198005931337306
Ag 12.969998961551761 9.352293771486206 11.744959735848342
Ag 16.52707013242576 9.874430827623375 13.315043701265095
Ag 15.396720278670495 14.019457600732917 9.609292460029017
Ag 13.325362440594906 12.711854241797406 8.3142300345794
Ag 16.27474947390242 13.260010816398845 12.097894780844907
Ag 14.52323333841995 11.245011855722428 10.400522560835512
Ag 18.48815093406815 11.781031179456267 13.05801394293801
Ag 15.623962786119508 8.633506334034857 11.028824489921334
Ag 16.14824721893676 11.749255048269443 8.251156610909923
Ag 17.252022243262818 10.924701549112086 10.730420000123114
