11
Energy = -19.65238727 eV
Ag 11.170645999357205 6.985208981628441 10.109902751291473
Ag 7.592860492685152 10.959402061131165 9.670437622697772
Ag 10.246509886750479 11.136128708419227 10.512173843802014
Ag 7.2740094060728735 8.67121838486636 8.1302901677377
Ag 9.055464795587081 8.62196167353453 10.28151895741486
Ag 11.843868846927057 9.389280589448354 8.927648056922855
Ag 9.87916988539299 7.6985179562473265 7.678752241884771
Ag 9.545607464342718 10.463840854037237 7.787077623385834
Ag 8.11988258798404 10.359954189711859 12.328763779196795
Ag 11.527361821960891 9.348290271531427 6.194707942953528
Ag 6.2605498582231585 8.860507753463956 10.879619196239801
