45
Energy = -96.96762937 eV
Ag 12.23341588751767 9.309831023737368 9.49982988828823
Ag 15.664613757721579 8.291035569782087 12.800587097830126
Ag 10.903596428938346 6.895673125109946 9.854850774619516
Ag 10.796147472926123 8.696050647018401 11.96186602763651
Ag 14.722565512165819 9.762868429208146 10.668250390428561
Ag 17.141974870059702 10.604332087672585 11.8298715749622
Ag 13.080083865144694 8.9640720531522 13.695472450867905
Ag 16.738766091128703 13.238806553309171 13.111054113546272
Ag 10.89564828680326 11.764566438092132 9.519840547148616
Ag 18.439470044278774 12.84456023788927 10.864863615417141
Ag 12.442282623673284 11.184173470838227 12.02033345960787
Ag 14.889134786873345 12.59721809228845 11.037956686257818
Ag 7.366374548971134 9.697414986524928 11.608545291469277
Ag 15.03576775302073 10.969600941208153 13.574139444773753
Ag 12.70989845472821 11.55436032275656 15.050685791042664
Ag 10.578300456262705 9.872648826114837 14.47629779304152
Ag 8.53291664574218 8.154042273113975 13.630562380985161
Ag 9.616072327571835 14.177034974488702 8.911050459163473
Ag 15.277773183183935 13.08386546649489 15.544797404950119
Ag 9.595201862973388 11.435770136603873 12.100066410797297
Ag 13.309580941305603 7.421430224491507 11.331238035492124
Ag 8.414172146899082 7.146460457704709 11.050900998959243
Ag 13.855678418273968 15.525149896454508 15.489089374818604
Ag 16.520714206961575 11.460554626245699 9.169334739772781
Ag 13.775801210791473 13.584201570564453 13.318047953873394
Ag 11.346326047124613 13.767077072340765 11.869408254042057
Ag 16.699273892088986 14.964430212305855 10.858891434130047
Ag 9.364199958375861 9.39273512727693 9.62582058187742
Ag 9.334333276805534 14.944516201386953 16.28249090362852
Ag 8.048362688810004 11.934813074571945 9.771315962486032
Ag 9.941878087188211 12.078778689464436 16.039751995984226
Ag 11.4451643764971 14.081698216433459 14.793452770302439
Ag 15.471047387288126 15.851890049176768 13.245403237692361
Ag 15.179478883518218 14.04191245112637 8.639631913311757
Ag 7.928276837422487 10.746800103621064 14.346094573254605
Ag 13.619587446694627 11.598263470756288 8.741677741762167
Ag 11.358325467372987 16.810193008984516 15.561946202490994
Ag 8.639365711481966 13.482080028131533 14.02338610067287
Ag 6.747399482401532 12.31379163061222 12.318542251086146
Ag 12.371349456826541 14.097113952010613 8.978932577247912
Ag 8.566376680335354 14.293720097469143 11.390718522253023
Ag 13.907077875453007 15.365796051718588 10.863748690379884
Ag 11.063295340539389 16.13053524038402 10.576805579397803
Ag 12.584197320609182 16.30463138994152 13.088938021576222
Ag 9.834503266922523 15.930581296157769 13.295761318057766
