29
Energy = -57.04940126 eV
Ag 12.165293487617578 10.756962705704838 12.433482707417276
Ag 11.185368886330517 13.488406938155116 15.973526252269187
Ag 9.591752782403196 9.813920847908491 11.113594878060935
Ag 15.001602961738543 11.335522650391917 12.924359203642357
Ag 7.946925634194156 12.083138472921222 11.941558978574399
Ag 12.579305099614627 13.557899513050067 11.5967440948888
Ag 16.802320481832112 10.588425397874769 10.953101090444944
Ag 10.190473447803694 15.080112371306631 11.586248466329483
Ag 14.284704957442667 9.315431552979314 11.120106193505336
Ag 14.460152435157164 14.733483536066831 9.646563237898288
Ag 7.546661212539483 14.710808958975027 11.9410737067727
Ag 14.704157457820331 11.115987086200448 18.928643430290897
Ag 10.344659410789296 12.920954057034724 13.371719036221695
Ag 9.072333875987711 10.355268139659946 13.825106950767077
Ag 13.450224177897011 11.931256732838538 16.78336528184233
Ag 7.009385081517053 9.54989837121909 12.184637116893274
Ag 10.108712380250466 11.383835250570788 8.055168952529932
Ag 11.751800984515434 8.05685167479669 11.108129238397193
Ag 12.621285301596421 16.25824351856299 11.093551856093464
Ag 15.084083586094795 12.960810750648582 7.7255199518745625
Ag 15.307745221079543 16.693399528785367 11.325927749530287
Ag 10.289263697228067 12.499567595019625 10.513358136131837
Ag 14.54974641066101 11.956715548952829 10.244905320422625
Ag 12.404773682723373 12.96895914449777 8.625947005239384
Ag 11.454302539887685 10.849376739747253 15.170104102137554
Ag 13.227649347678884 12.922935078105727 14.21389494736585
Ag 12.087645977408618 10.39364642371156 9.678494213644951
Ag 15.23268234937475 14.04648571193352 12.3434494944389
Ag 11.085560105715649 8.509933546654075 13.732733471368343
