13
Energy = -36.29811768 eV
Al 7.975100559586437 11.546780228952924 9.685863024950105
Al 7.975093668860544 6.237354656381229 9.68586417340442
Al 7.578569900491782 8.892070313802801 10.065138111505492
Al 10.284480782192881 7.4923913886666735 8.653741825299141
Al 10.284484227555827 10.291734309032828 8.653734934573247
Al 6.804283329008021 7.571829165586124 7.879061047698552
Al 6.804289071279598 10.212306868202218 7.879067938424445
Al 9.594462385247645 7.609909730860156 11.252515728423184
Al 9.594466979064782 10.17419299775316 11.252509986151606
Al 9.022005106143382 8.892071462257118 6.655008781315333
Al 8.918054880122611 11.521151049199528 6.849299433805817
Al 8.918051434759537 6.2629872814971925 6.849292543079923
Al 11.84348302723322 8.892046196262303 10.23572826827786
