13
Energy = -37.61461107 eV
Al 9.649471827747368 7.986863457094214 6.1451726877639
Al 8.342632463042053 5.711351935711775 6.9869494264563095
Al 6.840711678679232 7.6241481217172025 5.7072401279533915
Al 7.872696156390357 10.064756919135197 6.465391145687199
Al 10.205673868472402 6.792553400394713 8.69495924430797
Al 5.5138318588776745 9.256711631696712 7.640502199932913
Al 7.86444718855522 8.033943208525658 8.173408181202197
Al 10.047611557323258 9.52515547953616 8.39331912037336
Al 5.691082018821761 6.530894004091282 7.961853968522258
Al 7.369552709772348 10.360313471826379 9.348292658153738
Al 6.076866976355023 8.08449564720507 10.19745600716632
Al 7.8607829223484025 6.013928439243068 9.891256077228531
Al 8.885515441347732 8.453766126669095 10.638631146745853
