13
Energy = -37.61465375 eV
Al 10.089255293253538 11.782593686882294 8.212831767767666
Al 8.638726377120305 9.811557245975955 12.089462261405314
Al 12.149391107246977 10.240925614653559 9.179792361322155
Al 9.046664757185441 7.347541772915057 10.928574093430068
Al 8.534608240049776 7.6600991385959345 8.02955595322432
Al 6.978344402446656 8.873089489504872 9.944391258857914
Al 10.483634835994039 9.327732193226176 7.036762017517708
Al 11.281908384386929 8.834191085976956 11.517618352492539
Al 11.295562267669556 7.62927472765821 9.043070156060622
Al 7.855234479270576 10.294201578629798 7.605996033879042
Al 10.597463974073694 11.465141435251255 11.094996745657099
Al 7.813625301262096 11.494298587761302 10.076397809738852
Al 9.561048080040155 9.564820988681666 9.566018597221737
