13
Energy = -35.98274797 eV
Al 12.59324553339499 11.741668511409221 11.366037677087643
Al 7.961556466605009 8.813133488590777 11.366037677087643
Al 10.277401 10.277401 11.742628473787205
Al 8.031712507783151 11.450212228737284 11.365128745545187
Al 10.286296021745736 12.95733957129247 11.002917537813852
Al 10.268505978254264 7.597462428707529 11.002917537813852
Al 12.523089492216847 9.104589771262717 11.365128745545187
Al 11.368847876683077 10.98664705948004 9.12539236389326
Al 9.185954123316922 9.568154940519959 9.12539236389326
Al 6.673303569375713 10.525505953062728 9.218741991889852
Al 8.878215494321028 12.173588624807444 8.853573934009905
Al 11.67658650567897 8.381213375192555 8.853573934009905
Al 13.881498430624285 10.02929604693727 9.218741991889852
