28
Energy = -85.97882628 eV
Al 9.972406618164433 10.166796535406304 6.119693882759567
Al 12.075843070283181 10.016111777909808 7.796390882120225
Al 10.636622029479277 12.58180569822338 7.397290101200435
Al 12.953513290029917 12.359372754690988 8.830382463770988
Al 14.584682532925815 10.291621494279026 9.317101355314826
Al 10.183929746750104 8.088262569730588 8.176336287825258
Al 7.807110749257396 11.792621637467148 6.561478547898999
Al 12.767707156039936 7.804971734122272 9.261864511699462
Al 7.837970825303414 9.15283937751355 7.4607361508624415
Al 14.692483933025887 10.022420781399061 12.02192970804905
Al 9.54318580040479 10.624508330896669 9.012532639328677
Al 8.415529468743333 13.153799640665852 8.795959741072322
Al 10.707345175823441 12.672853266529584 10.259761917923305
Al 12.149106378007124 10.161914062066726 10.535398035740524
Al 13.190245914111221 12.409669351049393 11.50085611665536
Al 12.976819625042047 7.962180865363359 12.019537782724349
Al 6.731468356881887 10.988470918608826 9.137421513460781
Al 8.248970365515142 12.515692594113027 11.310679575439796
Al 12.509056687778362 10.574391796080468 13.455529010115642
Al 10.517734437003382 7.920281253667329 10.892373379084686
Al 9.881441722779751 10.34407711117187 11.829714156035655
Al 10.690167641669529 12.621639817045255 12.988030039739495
Al 8.060811754227265 8.597162050507265 10.046921921928378
Al 10.862688781533144 8.158376911551777 13.59177168983993
Al 6.515300479270325 10.232956895927094 11.738490613272697
Al 10.29546605821839 10.426158051215214 14.87575975962595
Al 8.139350372770574 11.224732667867729 13.590191503836843
Al 8.35766654311958 8.380052196363003 12.711013761650836
