28
Energy = -86.43276872 eV
Al 10.406051750396314 13.259616506066777 13.893976004048294
Al 8.848128879563063 11.124604110267947 13.99261393448296
Al 9.264987644259064 12.171917379118764 11.556170047298394
Al 11.439181917953778 10.982310210572267 12.964934061864152
Al 11.433899256141373 13.78505685458205 11.504884065449207
Al 7.359535581398666 8.937721149854424 14.178823353235147
Al 7.3531823669161245 10.279738377335427 11.740652568395904
Al 8.019967288976133 11.26024335597471 9.350600471889965
Al 10.132399787556837 12.954405662892581 9.190989140823618
Al 12.161502609469224 11.324754780172439 10.420327815908067
Al 12.720985579986689 13.775875226072985 9.129804791768793
Al 10.012405847269726 8.759730036356228 13.138534785109371
Al 9.973321434654226 9.686391589242044 10.592847933096161
Al 7.890833071284115 7.593893870156455 11.992369374312238
Al 7.336453182046162 8.677472559320723 9.576248723032347
Al 8.940516139424068 12.131792752174215 6.8907484507253125
Al 12.503727140215984 8.810592068635566 11.981637077214668
Al 11.54219108582928 12.907496122376331 6.872789542425646
Al 14.829807402058595 12.415958040710512 9.950019390659943
Al 8.42351087900249 6.169975873561252 9.853184203583277
Al 8.390216132502367 9.582183788270216 7.194262503638578
Al 10.804899734587517 10.455371960189657 7.997935548209446
Al 10.777328871833756 7.073125746884832 10.970802581801246
Al 13.46727734381407 11.076958842216222 8.078135120401779
Al 14.508301289502757 9.824479668010191 10.521452512904714
Al 7.596995864549973 7.033357569575615 7.475725749987171
Al 10.059311616385383 7.858518481637044 8.406217861726875
Al 12.426173613359117 8.709550728710395 9.206405696943863
