28
Energy = -86.43621228 eV
Al 12.107156361376841 14.519570420105472 13.03191079625473
Al 13.490398546493507 12.490482933283221 14.152217775127136
Al 14.395058137167727 13.708640254810463 11.775123182076983
Al 9.72044870995897 14.325046846834201 11.96135410897109
Al 10.878231657786857 12.17402807967408 13.238846608086655
Al 11.981163012039637 13.406565037963967 10.573008383907881
Al 7.360645509982436 13.916318452268895 11.04363162014948
Al 12.364002285480131 10.067053078095464 13.979818329147106
Al 8.310897496733027 11.823433375401502 12.409163023495436
Al 13.448881279284858 11.226860110805342 11.709661290500344
Al 14.308276326776463 12.55108126861925 9.330109646280695
Al 9.582452749615905 13.114775507977143 9.5136661634041
Al 9.565948909099019 9.784865332690757 13.432911843586425
Al 10.831994004230971 10.866740919360073 10.858822272906943
Al 7.288667654278999 11.715138485159118 9.67949624541366
Al 11.222019515453148 7.747408728312389 14.036149158184008
Al 9.571281114005657 10.716558091742495 8.375275626986438
Al 12.599087177779648 8.729780016566329 11.647656671040119
Al 11.122341139238438 8.581460694819228 9.408399297450636
Al 13.363403275875685 10.031627441941975 9.300165652387262
Al 11.824124298926257 12.18114974302675 8.22034324554821
Al 8.473660849556698 9.59998671359378 10.924121999832654
Al 7.178520420172388 9.371775985819417 8.453817646787643
Al 10.147546584046264 7.547633692919263 11.690206603504677
Al 11.847521482994708 9.746665519788465 7.008312688384479
Al 9.521625133947861 8.251309221970812 7.263793577310995
Al 8.399662408333922 7.301051228845282 9.611662285957149
Al 10.579244826072532 5.9872536843138775 8.854615124025477
