15
Energy = -144.57358878 eV
Re 10.502141479860011 8.938592493140275 6.607316196096494
Re 8.337852472107778 8.203802016316214 5.117805382428412
Re 10.397538083431634 6.879923084411669 5.3813976705207685
Re 8.1063599277762 9.262318484854273 7.470063854212718
Re 8.253977867378824 5.928290314507032 6.126242066505963
Re 10.408697430143508 6.389780275819344 7.729234518784152
Re 6.4576768167287 7.605073896657356 6.656742624359387
Re 5.754380771062785 9.671636805295778 8.447259682451586
Re 5.690424920083924 7.486958628426155 9.41386258185079
Re 8.01775507117049 6.957382349093975 8.47678609959967
Re 9.9344856749475 8.494162087639484 9.01526324431245
Re 7.855469906478134 10.769766764000188 9.527760603805014
Re 7.763867213901657 7.437838548535867 10.985564372139125
Re 6.260498955614823 9.379971720239114 10.796137291760088
Re 9.090516702207056 9.426145823956606 11.080207104066702
