11
Energy = -102.16947481 eV
Re 6.9542052368244685 11.562583632066946 8.775941339711615
Re 8.921446428593695 10.309451240771931 7.990637108696967
Re 9.052051894665572 12.601974871266433 9.300528766326929
Re 10.715313378720582 10.898403836063874 9.63925228419991
Re 6.659573152315829 9.229694605688364 8.783545163749013
Re 11.021323619493991 8.686087406963468 8.5316138602443
Re 8.41936900172183 10.295776160635796 10.468131519123675
Re 8.749088710553472 8.057373169554687 9.31644894540457
Re 10.41352236422599 8.697946927618695 10.987621210064411
Re 10.586835748159844 6.36664653487703 10.394877524013566
Re 12.467909984983956 7.311698627937206 9.767919855770833
