12
Energy = -114.49437008 eV
Re 9.31708993768321 10.504061351206397 11.17084726078078
Re 11.368131342793545 9.595638796198795 10.095902344080512
Re 10.075116987975601 8.255505444349156 11.629216001184563
Re 9.594400434252538 10.946811091026483 8.49968470627357
Re 7.570666885187274 8.748082168694859 11.6026876648561
Re 7.662161507705326 9.609225888697608 9.345057169818112
Re 8.733027554470189 7.368253257541621 9.83592096068121
Re 7.4682168797279065 10.932322536210458 7.212673367867056
Re 11.244109751131155 7.126103605415258 9.662244463666184
Re 10.109952815605512 8.54105598977234 8.06267591535765
Re 7.7753110165854125 8.556144748228085 7.031073280609519
Re 9.456040114853783 10.07743477974444 6.185578317685598
