13
Energy = -125.54732082 eV
Re 10.457091384387592 11.472126996012713 8.468092172329643
Re 11.388258945353332 9.216276314773204 7.833550769474581
Re 9.509592670101645 13.405869837915306 9.526390985386305
Re 8.445387587078383 11.082948989638354 9.796047790917573
Re 8.93309911416256 9.367356349785107 8.17303884885519
Re 11.806435363561366 10.017043723876633 10.122613634814051
Re 10.72255609106051 12.144586933596427 11.172894035997883
Re 10.135764021954499 8.081734937638252 9.79784942923079
Re 12.957483177265187 11.213874317289614 12.166736734056645
Re 7.833828898748341 8.752936609529435 10.442186193045497
Re 11.988638420497665 9.093988301429606 12.379482197609267
Re 9.685467862410606 9.83779957189009 11.629061961327885
Re 11.026257021794617 11.263842308057406 13.41351112535457
