13
Energy = -124.47072052 eV
Re 7.62330989298083 11.623614992825804 7.823477377531156
Re 7.479796544949472 10.552507763258639 9.937887495215744
Re 6.284463927918785 9.226787530751173 11.521139067784526
Re 9.915126290809331 11.159032608385457 8.169466867907028
Re 9.681295849245677 9.503639830540877 10.071302510053483
Re 11.500717452528733 10.021218642732087 6.799460934338608
Re 8.27146144984289 9.191768090317575 7.7762409118875855
Re 7.749020460180572 7.810901448443852 9.75790359201959
Re 8.347689160194694 8.553197537581214 12.01918529686403
Re 9.019256524850558 6.315029451422113 8.172818042121248
Re 9.974139237376406 8.06912119611536 6.7150636653541635
Re 10.189510588996528 6.860858098993374 10.023367181799198
Re 11.448340379545781 8.612293112488297 8.713910956311615
