14
Energy = -135.35100451 eV
Re 12.371428016803133 10.120010149636318 8.603600649173794
Re 10.987444894298921 8.209313325035806 9.110065774856604
Re 10.302599751574311 6.5559807352821355 10.856592499789029
Re 9.796952369413573 8.845202075469823 11.392734930453164
Re 10.842469398163018 10.159821870271157 6.877278578699958
Re 10.346728478486055 10.70002030278822 9.804831163406547
Re 9.320526123350943 8.316314584663942 7.4260335646653495
Re 9.004149687032461 11.303899808354947 11.76153538980771
Re 8.358375810051513 7.198545688810882 9.606903793173764
Re 8.5699691487205 10.615089458602107 8.093268273373134
Re 7.71313325000415 9.497995109900652 10.304590957901434
Re 7.2778666611651355 6.813994838927949 7.5595367186690545
Re 7.759497941066549 12.006751737752582 9.907194362070019
Re 6.6209343818878885 8.974605087135794 8.090379913579259
