15
Energy = -145.11628288 eV
Re 9.790103780519889 12.432414287820606 9.31302700729726
Re 11.9643495156249 12.049161572289286 10.353709262691579
Re 11.56669490370166 10.568884653517394 8.47040618378013
Re 13.602213086036862 10.252013428344057 10.24426129423863
Re 9.238171966810237 11.141437881631745 11.423663362353428
Re 9.12787003637 10.042326203254147 9.070224879845972
Re 7.308020419956258 11.740159375149128 9.996792350773635
Re 11.296209361286985 9.67597810057493 11.021510958887005
Re 9.565271363313888 8.928004811553299 12.59069782022618
Re 10.362922944862616 8.216145596868609 7.900713267420896
Re 12.471124667196007 8.419914552261046 9.128904546762431
Re 6.623591167519833 9.837281696922636 8.670920161593985
Re 9.678221745678151 7.828061134078455 10.311329483619387
Re 7.853834283893299 7.7532191383965445 8.643905312767604
Re 7.6482329144887675 9.193767640902086 10.986992097603888
