14
Energy = -135.47370033 eV
Re 9.244460835122704 9.264116679533924 8.758578036892883
Re 11.79112952697603 9.373010503598485 9.010203901931288
Re 6.711858703902203 9.84413081634895 8.554316267210123
Re 10.283247036161962 11.57040703672439 9.082994241481266
Re 8.202123527665904 11.22320191653995 10.142773967202467
Re 9.774108585049861 6.748414586094846 9.327777054483155
Re 7.370233641193716 7.533465553526073 9.064400966713844
Re 9.412732750667237 10.466308742647321 12.187933033961812
Re 11.436522164626387 10.835510678713899 11.040778750441765
Re 10.501936594298495 8.391507979370465 10.89274641414495
Re 8.044114882486554 8.780583066310546 11.048630767277725
Re 7.9772040150462455 10.248752394687367 6.668051613930981
Re 10.78679930407283 7.6727882788723 7.436584164383405
Re 8.41556044195109 7.999833760884374 6.7362628168709815
