12
Energy = -112.96161222 eV
Re 9.118410296181763 8.994518747545323 6.181420640602291
Re 7.2105445565491815 8.09393413850012 7.450151189035581
Re 9.539264532284012 10.971723660807026 7.439558179738893
Re 7.1412821643630275 10.630860445445723 7.084272947062911
Re 9.496608413616647 6.770527197809628 7.375585796500665
Re 7.276332664876575 5.706280016544952 7.852608148380376
Re 9.138868965202963 5.3529957846089005 9.382226696198307
Re 7.995647208507632 11.193471188664232 9.300251117649205
Re 9.125412094990118 8.849244762528915 8.89444020858065
Re 6.456609287655459 9.384878278847506 9.40534635316608
Re 10.335297588647478 7.2161897906640995 10.030424544009323
Re 7.454155922910765 7.1238096838191876 9.892147874861788
