11
Energy = -101.83129558 eV
Re 11.372991060693948 10.945244533194025 16.551103399558453
Re 10.43728520591778 11.9391996543953 11.87237794300036
Re 11.943257843341684 10.255246469001063 12.536202521427649
Re 13.711896019264362 12.071710555118058 9.8579151828778
Re 13.659983330208393 11.87021539127483 12.19507236190705
Re 10.9291445770163 12.192007424266743 9.574291108527662
Re 11.082916037820478 13.952366015214677 13.43579274386079
Re 13.299793130784824 13.585630940115971 13.900458589716484
Re 12.108642429637888 13.591101782798598 11.248928508016606
Re 12.271348853782595 10.281707489965074 9.952699299847461
Re 11.707598576412687 11.697995176178768 14.531916857802216
