14
Energy = -134.789721 eV
Re 10.333891151337012 6.500685527482194 8.522975841768474
Re 10.448767898511411 8.694052188072673 7.652142843893198
Re 10.005862494292773 12.496275516572247 9.284160940539559
Re 11.076016093268498 10.27624586425263 9.444901782581205
Re 11.054654765129296 7.926930353718983 10.37672645596336
Re 9.37708198557997 10.959317989293863 7.3906614698856945
Re 12.57017758359287 9.634491726575131 11.508556324411671
Re 10.765968898271142 8.787034435085284 12.67056397492771
Re 8.460012971017798 7.9241263309963035 9.00101750775197
Re 9.536986564536193 13.318768813757618 11.447600603482828
Re 10.660990738281951 11.169106485244113 11.780647423455434
Re 9.06710958705982 9.455465141661643 10.800048443298898
Re 8.027520780143862 11.653907940862789 10.606589797889862
Re 7.563649024122337 10.243407987097896 8.557178153716643
