11
Energy = -102.43357663 eV
Re 11.390264290636374 6.5663955360954525 10.287509164441305
Re 7.652128525254018 7.527671252395521 7.4396375668296955
Re 9.502926412837024 7.317078016824884 9.039677974169567
Re 9.441203190075726 9.11412923319291 6.975044263044756
Re 10.414184752473924 11.233751475585578 7.554711179772436
Re 10.255740959881138 8.251389074547463 11.32345943901698
Re 7.349697099857182 8.378210746137558 9.808745461442504
Re 7.3689524125213515 10.00082649743478 7.888345128725399
Re 9.691554813572665 9.800184367333378 9.42842301919105
Re 8.448877332042828 11.924109304145988 8.548839891579226
Re 8.251204132825078 9.670653650448276 11.477635708577159
