15
Energy = -146.00685147 eV
Re 11.664693648026125 7.55459259385984 9.112145041162975
Re 8.508514253195582 11.51643901064062 8.160427259855227
Re 10.868673103829986 8.833956886450515 7.215514973877755
Re 7.727000364954833 7.76035896372774 10.94503592504207
Re 7.993237506600098 9.334426061189856 7.20165703704425
Re 11.119343172556848 10.969227284701766 8.349160138831216
Re 9.082517997223365 7.958800347775158 8.865757415285303
Re 12.125177172855564 9.627184768791027 10.134909975828112
Re 8.128528318525648 9.73406130786463 12.126984706643977
Re 6.508540863059645 9.169133725607283 9.124528975736714
Re 10.180061156479628 7.372359471499862 11.224873046773975
Re 9.56239277219151 10.024981744078346 10.013357382088774
Re 9.80267028718441 10.754897553193997 6.216537424254425
Re 7.223695842876685 11.100281589745984 10.198709875520255
Re 10.605281035632512 9.389626186066193 12.210728331669571
