13
Energy = -122.02225732 eV
Re 11.385655915673766 9.035738054390835 10.524529508128026
Re 11.217510438247025 9.77498869172237 7.9325695207132085
Re 11.030987828185104 7.486240004849833 8.628196310888526
Re 9.816481770396654 10.985811450220146 9.689205938411122
Re 9.653651009316732 7.312689435098107 10.869296296874673
Re 8.969711122237307 9.501453711526821 11.590018298385932
Re 8.451402677158327 6.7608254345095675 8.534577820736903
Re 7.279085821881167 7.831318580008804 10.441233500875663
Re 7.413569782871335 10.386106888077212 9.805951698078161
Re 9.533574049632815 8.113112246469898 6.758978726265629
Re 8.163299801186552 12.482221483607082 8.77953342331428
Re 8.87209169474268 10.560805226216084 7.432951180443326
Re 7.233783066546623 8.744839382433053 7.938985019470378
