14
Energy = -135.85565726 eV
Re 12.155685227890535 11.203182694207802 10.625910525634504
Re 8.157655005079853 9.588436318983721 12.57314529689513
Re 9.746378651763328 10.916068339241264 11.586703191109901
Re 11.078859953647266 9.085320698068855 10.217888727784052
Re 10.562037711121347 11.374217419716311 8.926956431406234
Re 8.004928998106394 11.630338297205787 9.913157692965797
Re 9.544872991298641 7.7845366264020015 11.84190897277271
Re 8.45060280296379 12.26342152954898 7.720431787039001
Re 11.548381981120464 9.479748727484981 7.778052225852305
Re 8.47225907553259 9.200300809441122 9.994818586313798
Re 8.79784959883052 9.940920544913375 7.670491451396762
Re 8.25700468891924 6.588250433126393 10.371949957066214
Re 9.806343040096577 7.386904516160073 8.798577945198739
Re 10.03645491933956 8.135455135612688 6.5373048941289555
