13
Energy = -122.84194811 eV
Re 11.84723211759477 8.679575480631913 8.670789761258069
Re 13.538176823947035 10.123371045503434 9.425833739375552
Re 9.728903430108783 10.098263157614012 9.125163946230876
Re 9.565075648985022 7.607038925380462 8.149532041101946
Re 9.699642864777207 12.600274007613136 9.447984448845952
Re 11.901676675743943 11.768924296041472 9.027440440437436
Re 7.90141101325902 8.399011615570231 9.690421214227719
Re 10.420542527919297 7.730679063034783 10.39866829122322
Re 11.595696671268794 10.230273785955779 10.927333006087437
Re 10.004743197848644 11.849497556375432 11.764341245793991
Re 8.986144342884636 9.6429756376044 11.586601891249837
Re 6.369766857853339 9.612428765495759 11.08684277931282
Re 7.683729269517025 11.242447908478336 10.219745821745706
