11
Energy = -103.86064434 eV
Re 11.04843165539661 7.866665107097733 7.612635491437438
Re 9.096923547006941 8.909447583693582 6.718757322322879
Re 9.308706856601303 7.811099093592126 9.320212392541933
Re 8.562457191927908 7.578422790744115 11.716166916167932
Re 9.335882444068368 11.221038333254866 7.061896912928562
Re 9.330282550396891 9.801153207681182 10.983227172607554
Re 10.642702228268332 10.041335353325382 8.72718772401536
Re 6.798998599679041 8.474073349406709 10.645815483976595
Re 8.046276983180272 10.07729688438005 8.855119964203787
Re 7.184826777385747 7.881610245922697 8.294796027340638
Re 11.306113629752026 11.041433597254583 10.755229502060297
