14
Energy = -135.47173143 eV
Re 7.3808464003353995 8.415253456866376 6.618840499391237
Re 7.279207746108265 10.772941154051132 6.690041697424734
Re 7.71464168137802 7.882496210637612 8.962497819365835
Re 7.6885102541354104 10.2412586539343 9.000565121318147
Re 8.324021529375562 8.402828301659444 11.409931526796838
Re 8.406643031641353 10.738555911285472 11.384906080633524
Re 9.72110071033749 8.055927165506144 7.1300312434376085
Re 9.601748612725409 10.451111195562346 7.08734663539068
Re 10.149373906599076 8.083380514078177 9.686216904315254
Re 10.175031908767895 10.662251415785788 9.622980364182633
Re 10.500007880166475 8.143040708221816 12.334942616613311
Re 10.625964290451002 10.575093126893002 12.357081381198128
Re 11.97492746902712 9.352968015440032 10.786019283875657
Re 11.656846579843382 9.421766170078074 8.127470826056134
