14
Energy = -134.885618 eV
Re 11.036193003299708 14.382555703573683 9.151094999206967
Re 11.99931487012947 11.907850025281741 11.79643209803796
Re 12.859676782031112 11.109049171795668 8.516237044885495
Re 9.03294258351831 9.645223146139365 13.349688970970826
Re 10.618442469957483 13.974737392816056 11.44742440494377
Re 10.582631542654962 11.970511984344306 9.747214137670602
Re 9.205582137401914 9.739522048971144 10.744297764480672
Re 11.654210485438906 9.711763964400259 10.23855111527455
Re 10.441899094546018 8.191852154990658 12.08628302292772
Re 12.904562720927263 13.148057091818298 9.755392178387172
Re 9.345680787163971 11.91900304579028 11.972156410040474
Re 13.831889108798444 10.699106160612994 10.710120643558923
Re 12.344025303925104 9.500744570445324 12.713402591827156
Re 10.768272264947976 11.059637738461067 13.889356826251346
