15
Energy = -145.87490591 eV
Re 12.620277710364743 10.918307052437232 10.891938768034251
Re 11.169248062984716 9.000140382549633 11.013796178198145
Re 11.161532229791481 10.641075996885974 8.917602068720736
Re 11.943052856937424 6.888554266962616 10.153841894053665
Re 10.58317485846682 10.03752316928585 6.5657146664249435
Re 10.369753206039535 11.627008591641967 11.259315898647458
Re 10.801850633571474 8.28745066007677 8.266359739671271
Re 9.593960875000926 7.10532437920511 10.175268098517128
Re 8.605303545803693 9.508805188861876 10.923629830038301
Re 8.43626904323823 8.739570039864178 8.298032220501872
Re 8.217732058389775 11.078353987950274 12.602642107810858
Re 8.820613833399314 11.293496539715719 9.099077906203195
Re 8.31467511947857 10.58447809959646 6.802239198249259
Re 7.261984703823443 7.556344387594101 10.030476846081513
Re 8.20372417183052 12.73422132164063 11.054043255025395
