14
Energy = -134.5994259 eV
Re 5.085957696550096 7.961720350593514 9.028716054994618
Re 6.887397956503439 6.113110682192189 10.086096694719606
Re 6.325556602430079 6.221423481333476 7.768601074555191
Re 6.868114469224436 8.460315758102823 10.669150068106783
Re 5.92600834585491 8.557292346491437 6.826931696098337
Re 9.00464663497835 6.8132046873224 9.073990027332837
Re 10.764817787986292 10.071485154601636 7.928044618467449
Re 10.343030619784813 8.680585817849858 5.930058018412378
Re 11.217549273490636 8.12106758968271 9.094203201908464
Re 8.236075113319258 7.765777318677076 6.939170951036954
Re 8.665383053755459 9.22573067525459 9.031465414588604
Re 8.55898599459542 10.23878786614373 6.719260368183523
Re 10.782102045337847 6.761533265287404 7.193419576748612
Re 6.357638570052872 10.031229170330873 8.734156398710216
