13
Energy = -123.49476152 eV
Re 11.881480190357241 7.684549963174511 10.14107702934803
Re 11.404880075645696 8.712627547510966 8.026622597813175
Re 10.665152776689409 9.411652900431246 11.191964092951624
Re 10.218274833082788 10.16066672989744 6.513993612067825
Re 9.801736186478129 6.699331124623275 9.456785491977682
Re 10.158478776398654 10.569592111550426 9.088223959248984
Re 8.540363770268245 10.89482704970996 10.908439655222487
Re 8.478837181980204 8.458394085874108 10.604713011228895
Re 8.218658134900648 10.953614488495838 7.593756521037968
Re 8.857056082357946 8.503172343611132 7.922073117787185
Re 7.429363502325011 6.684812604600307 9.021370825263917
Re 6.73854690303927 11.317943512343385 9.446051527693268
Re 6.6122136734234775 8.949639340638848 9.049840773479465
