11
Energy = -105.38128731 eV
Re 9.530386874335994 8.261804932780938 6.963610328878457
Re 8.243104200586906 6.526901752920412 7.697425735378206
Re 10.871733966387968 10.388158902493524 7.27895505661459
Re 11.481677606736902 8.494959030674611 8.50415812463676
Re 8.549879594300242 10.281166740161009 8.143728365752633
Re 6.826760020167015 8.338547684039535 8.176979470463017
Re 10.482172078832265 10.39274480538028 9.782533672613535
Re 7.634868420112568 10.147984383361663 10.570365271432552
Re 6.532837267242538 8.142229445603972 10.441595766040658
Re 9.60040296400136 9.565853945327804 11.717573889367609
Re 9.037177007296236 8.250648377256502 9.514074318821981
