15
Energy = -146.7442918 eV
Re 8.80990678754295 8.948652144595101 9.110308268824571
Re 11.52471076819267 9.078588910943362 9.118680380999999
Re 6.107973393461881 9.20055362639112 9.098265011364466
Re 10.372937785345124 11.18244754644531 9.104588407653239
Re 7.3608858738607 11.207535453592959 9.09693807793868
Re 10.007334375576482 6.533328075242534 9.12700879218879
Re 7.654361736796273 6.491216796865305 9.122013047019518
Re 8.777273024372011 10.582720834296698 11.010577753622318
Re 11.189189207325743 10.286120895690498 11.331546807540375
Re 10.14156856933982 8.096052109053085 11.04182406828277
Re 7.282536318148301 8.09158837726093 10.88158091492033
Re 8.787891252482915 10.56736366736985 7.198212265322974
Re 11.201258554661214 10.258762205537481 6.8910558634671615
Re 10.14960979808461 8.076242973221811 7.194822282275392
Re 7.2985150269348065 8.06477888349421 7.338530530704394
