12
Energy = -113.92757677 eV
Re 10.252707257413455 11.415824167456817 12.868814328256752
Re 12.551005141787186 11.795098468612805 12.444622367357855
Re 10.597564343256405 13.650617321591993 11.593904679465139
Re 11.867669491439997 9.587548719363667 13.460675206072441
Re 12.888844212913675 13.981688431166855 11.199375114741976
Re 12.79178460335385 9.791560068135178 11.1190431366596
Re 10.403138689563606 9.356497812517143 11.45774962056758
Re 12.328304680092081 12.069697557606466 9.935893381517761
Re 8.044129765806792 10.273941634419124 10.837890812023616
Re 11.185335939567539 9.95441643565761 9.087782125399297
Re 9.835914566672002 11.706621286823012 10.271323630605673
Re 8.968287705220986 8.93546691308566 9.306008496956563
