13
Energy = -124.28409154 eV
Re 12.49641649180779 10.575027402932994 10.931409788569148
Re 12.486290272568628 8.388398686798032 8.161590846221388
Re 12.021103135147186 10.603561333991985 8.663402295286968
Re 10.303936822997267 11.188567617641898 11.060687201577789
Re 10.630988122956632 8.879310196071083 10.025607229148955
Re 10.293428714478235 8.418142697616116 7.53857772277482
Re 9.436721699928544 10.614844275898466 8.664250782099836
Re 8.743435175745065 7.350826140218771 9.35147275025385
Re 8.749014416556708 9.186054638788166 11.679421590618396
Re 7.822419541247653 11.157866038248454 10.519488130133304
Re 7.814107192588071 8.941373128743129 7.712491710718441
Re 6.289402727599908 10.145638887055469 9.04707769283246
Re 6.863865497334249 8.319350066032117 10.479935018221989
