13
Energy = -125.25726448 eV
Re 9.627857078561972 9.40730149274994 9.98262376305258
Re 7.991360987131252 10.712663833407253 11.527087109801117
Re 9.75396071494482 7.478647718770643 11.716401976766964
Re 9.721063422319618 11.644478510094242 7.124545217081191
Re 9.032477147664464 7.608244522840205 8.195170044688616
Re 10.866633304182137 11.572975505015023 9.163234067754122
Re 10.982099301339392 7.1828902174813924 9.779765035261866
Re 8.486268165996409 11.834093162445146 9.614069550619393
Re 7.942640311489058 7.178023866693615 10.287788030310532
Re 12.27466864123483 9.092436376354398 9.416383982377528
Re 10.803589301106157 9.463875411175213 7.688127505162741
Re 6.893662367719482 9.317599525945056 10.031464518564146
Re 8.108828970462541 9.991879357028013 7.9584486985590575
