11
Energy = -103.32909309 eV
Re 9.541883457127202 7.664843489716125 6.082667108812488
Re 7.736551355494612 9.139969076162632 5.570079621590348
Re 7.565016260663447 6.543554801703689 6.631906739393275
Re 8.213000489989797 10.429638682297888 7.427978829618466
Re 6.090635908114759 8.36635096953638 7.271690789176811
Re 8.874599407745196 6.8556868999683775 8.613710860209485
Re 9.959928746979964 9.02804760046407 8.235758805036019
Re 7.472017614205132 8.877611968938446 9.308294638973386
Re 6.27766904469868 6.778444592193417 9.02996619359207
Re 9.699258577187834 8.937297219511514 10.665020323851476
Re 8.328715604121518 7.137831165835747 10.922202556074032
