11
Energy = -103.04680307 eV
Re 10.391797649420594 8.10103385894119 8.052356056523703
Re 10.509332077826013 7.037834994635342 10.174522775049327
Re 8.78383380754799 8.892786702598737 6.42566423879152
Re 10.793066015933121 9.465102652323761 10.200504469535812
Re 8.460975981789636 8.052004480224698 11.091627722676995
Re 7.9127268032807 8.394928965247678 8.56591495844985
Re 9.54431307369709 10.568752357244808 8.126599366922395
Re 11.450499087135709 11.698034999850249 8.872116725771967
Re 8.364524002689938 10.357584577195489 10.245758831479092
Re 10.34454382693975 11.840212300065403 10.781679555570168
Re 6.367563221534246 8.5241765561018 10.388549668653193
