10
Energy = -93.00050357 eV
Re 12.208723013466692 10.455121906224736 11.520970971992393
Re 11.2723707375631 11.956857310147935 9.878709009240708
Re 10.455008861141037 9.838566327353101 8.814947477941438
Re 9.226271345894974 11.846284011026336 11.059605788240484
Re 9.859338166077405 9.436977147671548 11.361599238738512
Re 7.480553641354833 10.06289935083367 11.152226101571447
Re 8.19991996092385 11.04355707200875 9.029137855790191
Re 8.40487637663554 8.632031135856064 9.476415974369381
Re 12.872265106740347 10.17078027368685 9.184055409292624
Re 11.813412790202364 8.349665465191288 10.315072172823232
