15
Energy = -144.21130494 eV
Re 7.85680963951651 7.798471564442953 5.224522097827739
Re 7.663117787732932 10.383168542124588 5.3129922612728855
Re 9.232202316048513 9.233133933686073 6.807755230399745
Re 6.676543255421864 8.995105248246706 7.107625289269654
Re 9.544379747301202 6.710356004061488 6.861767381271012
Re 7.1125153445628415 6.561000613461109 7.357571409189395
Re 7.8764179072529705 11.156693021138798 7.756895628147084
Re 11.056713422766197 8.149459418482879 8.325123545080103
Re 9.042975553059497 5.488648397213215 8.89862973697954
Re 7.0366446711322 6.143219595680699 10.027611358048732
Re 9.310037182118105 9.595462224942809 9.264679043510322
Re 7.9753173743341685 8.109612834324624 11.053141256410855
Re 5.507232515624673 7.604541085723316 8.960102043204254
Re 6.828495930920301 9.653286043300715 9.56879850040571
Re 10.056787911018647 7.194032031980768 10.248975777794014
