11
Energy = -102.86385811 eV
Re 10.10859249611719 7.954702765437542 9.146163171327725
Re 7.730316516256451 7.431181651502826 9.187105604802039
Re 10.900720332637892 10.52419266108379 8.972228491779468
Re 8.76969436836078 8.395886332734754 6.853261812438721
Re 8.655305449612461 11.071272150334144 9.663911190379743
Re 9.15475839125311 10.82782403905489 7.221064693062526
Re 9.097145567620302 6.9100442616733275 11.223002976663198
Re 7.20331948409189 9.625714327884161 8.218097629263958
Re 9.667397738079298 9.344995560662351 11.094553476103846
Re 7.4240790691723095 8.68472835735177 11.137316913823822
Re 11.087072586798461 9.027859615951135 7.081695764025917
