15
Energy = -144.36693089 eV
Re 11.480401664524864 8.09703081429765 10.840174229876975
Re 11.82487224036824 9.3599123464392 8.836300698781443
Re 8.787432734122229 7.7073019557372255 6.3438273274793175
Re 9.100262091624744 8.205492332268403 11.038837353828603
Re 10.534966912104478 10.315925902316351 11.85442473729668
Re 11.418813840277291 11.396578953179956 10.018172490872374
Re 11.327566101716112 7.899841576713391 6.876112127707189
Re 9.828890865646073 9.780894643941448 6.984038630864916
Re 9.634536821302637 7.70800242495569 8.663478479459517
Re 8.754825293537946 11.839694243619194 11.483207249387476
Re 7.190704560536801 10.08304253456042 11.157007016517134
Re 9.275614281960571 10.281975862626675 9.49407856278771
Re 7.025379360829805 7.790886410608642 9.924270257891786
Re 7.351236328481115 9.027968841881734 7.899897263983977
Re 6.968408337322827 11.070222934329564 9.08137395691162
