12
Energy = -114.53392956 eV
Re 10.241741668957669 14.222418158496774 9.93088465990634
Re 8.852253890265517 9.797259133069083 9.732816570886008
Re 10.694888775261044 12.711892938084343 12.013749224137163
Re 10.178277678196796 11.836486569381368 9.593107233850663
Re 12.393181800112863 13.687534760249445 10.139257915425153
Re 12.885148115562153 11.650587787258715 12.172414146623847
Re 9.555043531659662 10.61037635272831 12.015597387077344
Re 13.563998092182702 9.435773742573147 11.045833772274902
Re 10.689411231638994 11.421824755229379 14.078546890115241
Re 11.131570234415925 9.281299265363039 10.273466795985899
Re 12.53462866131158 11.248417485022044 9.758255253846356
Re 11.678997946509462 9.614153166575477 12.68501360215233
