11
Energy = -104.24871722 eV
Re 9.848789397040333 12.453039558596242 10.878658552153622
Re 11.236476226020267 10.355165725874292 10.838587730173257
Re 12.096500870450184 12.586764966639878 9.931836854414428
Re 11.598107745192237 10.761172565336707 8.385592031571102
Re 10.213495260383558 12.772832546019682 8.48448128412608
Re 10.762575371632407 8.336881017125089 9.163306125593534
Re 10.9077323498443 7.9400877826686225 11.493989025129938
Re 8.891004607129874 10.089811118232744 11.813386197934884
Re 9.280775607545106 10.548456768910174 9.335062771124631
Re 8.434023664249839 8.1830610335689 9.588980445733656
Re 8.573289414268647 7.815497430784541 11.928889495801636
