12
Energy = -113.8193905 eV
Re 8.8546947702694 9.051598066389937 6.851680342585853
Re 8.904822220968201 6.583367191505288 6.159348161492062
Re 6.32739525049261 8.691323473939237 6.327752112704348
Re 7.487077310239208 10.858772265630726 6.411139611600943
Re 6.732665045554847 6.4965374031132175 7.300106867047407
Re 10.473761422214785 7.210386723289289 7.883559246176728
Re 4.965254058561276 7.999373364588659 8.311551511738363
Re 8.8603720747437 5.470960952553148 8.3737659856589
Re 6.695345411885894 9.710284497118908 8.500091360160297
Re 7.182640665385246 7.361698565857837 9.480282786956689
Re 9.115604928192242 8.912951925838684 9.26851838825805
Re 9.545460652563337 6.797839381245683 10.277297436691228
