13
Energy = -124.99850158 eV
Re 7.73167247120494 8.051001451121563 6.904653899798289
Re 8.26817577629619 8.668450601322164 9.19427474574288
Re 8.274639948671993 8.047354754837157 11.576708084589752
Re 10.030585312135601 8.217226824875539 7.252552526540723
Re 10.602113993763819 8.159160144980033 9.926238726318719
Re 10.522507249526408 8.1777943401299 12.319186349096897
Re 7.729207093944931 10.438161795684618 6.7228450280289875
Re 8.278096551613855 11.013784949775124 9.08985430619773
Re 8.237079168814368 10.413736222028358 11.596167873664937
Re 10.01256260825479 10.60089191207967 7.110168106102579
Re 10.504372778115432 10.693067044916523 10.035464639736821
Re 10.453520154202112 10.56551349722632 12.40263290315944
Re 11.890567921329948 9.488957516772077 8.404353755273075
