11
Energy = -103.3541955 eV
Re 13.204384286365329 11.540029077898085 10.573448162207823
Re 10.776071035734034 8.35039940238357 12.208205889290298
Re 9.940285599649135 10.773921436637886 11.681401708284302
Re 12.299006316218108 10.155601613739691 12.478924458112353
Re 11.579193839535282 9.631509596400425 10.076833867576463
Re 11.716902509247515 12.562341713754916 12.043393192167283
Re 9.224630328915302 8.77761424333936 10.323932182753436
Re 8.509691905183542 11.744696435697202 9.900442322986187
Re 10.889113328518958 12.10618611300233 9.650171721744476
Re 10.45663364130518 10.400295976549364 7.99820803500616
Re 8.211042970531647 9.852342959035138 8.512140323832693
