15
Energy = -146.28830168 eV
Re 9.042704946314958 11.63784610535963 7.394549169453028
Re 12.689445541757912 8.374261317199919 10.014052136878709
Re 10.800936571735665 12.702555759423172 8.47851797879483
Re 10.182413910132572 9.773417376269208 8.43354899412298
Re 14.041635989881527 9.903240011578466 10.97461059823961
Re 10.195974005335787 7.469411036891576 9.0414034727178
Re 11.976857046084929 10.865730064702868 9.684715290495157
Re 10.360038880641481 12.250619772345686 10.868557830930436
Re 8.38207137338819 8.881783454233917 10.191830439279727
Re 10.639134043629186 8.905916924054704 11.115364543208825
Re 8.436506238814347 11.410523286780633 9.728948640477745
Re 6.931307977150888 10.292580673708366 11.441847155164309
Re 12.054434215884923 10.509636966320059 12.274426735254046
Re 9.144822780652865 10.496469773551327 12.383112518334903
Re 10.593371399990588 11.994903321214494 13.446958017082059
