11
Energy = -102.64091586 eV
Re 9.629880576675601 6.0861626926672 7.517035958106843
Re 8.830195404706753 8.147262274713441 6.45661741458289
Re 6.595825484176935 9.22830051248072 6.3822918933391
Re 9.35370551609763 9.984084698704951 7.972573653063946
Re 6.738901813824224 6.836626131229446 6.119644462257052
Re 5.474233669908844 7.7473154396391495 8.051809477197196
Re 6.980486810210514 9.565849836289887 8.857482329361071
Re 7.220470859264518 5.957762200003068 8.4154791254136
Re 10.969563764352642 8.119477728683737 7.820960161770965
Re 8.681002837038085 7.812401626671437 9.102472200745382
Re 6.519076084691866 7.508099679864437 10.296976145109708
