12
Energy = -113.01902888 eV
Re 7.592071091262497 7.594516981103282 6.506190696964565
Re 7.896656136618243 7.896385304883095 8.915171410930139
Re 7.589587453827371 7.580479701222913 11.291708456381834
Re 9.946906028889616 7.853322407818042 6.509589532677262
Re 10.301953888007882 7.5097516863062665 8.909729770039316
Re 9.9612665130806 7.854295593801988 11.291126810999794
Re 7.848714580554088 9.949855749892874 6.513370424335728
Re 7.503112993840293 10.299665368237777 8.914835806679436
Re 7.860566184902161 9.953045507804713 11.294690179204707
Re 10.202786176641139 10.209045279359 6.499551313790998
Re 9.907004008597859 9.914132205658087 8.910958970501525
Re 10.23157894466965 10.227708213912225 11.285280628385962
