13
Energy = -125.06760217 eV
Re 8.906858328609216 7.824562478977625 11.476507198275788
Re 10.069489650156855 6.92125178396238 9.674297173476624
Re 8.780420940884717 10.914660907783984 11.675094822448193
Re 8.474391499727442 8.125877609917803 8.193180412313659
Re 7.660980747377752 11.26871967583169 8.79533310088134
Re 11.959923602524288 8.313095293862204 9.7211421900547
Re 11.186203487050577 8.633721428816509 7.583926754921904
Re 10.484573619431883 9.420441025103385 12.13555386088522
Re 8.879873798646866 10.313543183007436 7.063089832506495
Re 9.44628756522152 12.273178917653928 9.923203092368317
Re 11.041890330371757 10.923847342432476 7.753514741404991
Re 7.366551487787565 9.177298436457868 10.08769302081733
Re 9.84669928174461 9.747409673657433 9.671955301449193
