55
Energy = -587.28358429 eV
Re 9.944927066351873 9.615087325154612 7.477197293106483
Re 13.957923477394026 8.015281652248074 10.909530474201361
Re 11.170612898194022 7.585596544020086 11.43335188845683
Re 10.841496574603525 11.136410679977793 9.437603950878074
Re 9.545308577027548 13.538495461903992 9.210722239702596
Re 11.526282087067727 12.88853424841289 7.53574498614544
Re 9.251756039910726 11.869710111898137 7.112851016462923
Re 8.152411431998013 12.810039059369418 13.589974161329975
Re 13.008615904603557 11.017430938597021 13.46102174081404
Re 12.112101994072697 13.568745683801259 10.149685363607452
Re 14.349323395708051 12.547367669438595 11.6821489117513
Re 12.85091463887874 8.570501505181229 13.090214300246839
Re 8.116929663466797 11.284601412566904 9.169869138952413
Re 9.5014696904227 9.878182227351182 16.22414969681154
Re 8.492695334634798 10.095997832429989 13.919335226242577
Re 16.809998002113684 12.6236851792634 10.844326462968768
Re 14.372719324959352 15.114046499514073 12.251559830555495
Re 16.050803254467052 11.329716741591135 8.80321563553049
Re 9.982426792607676 12.713195177380623 11.708688716314827
Re 7.524818507739516 15.06905258280403 12.897448699402647
Re 9.433183965724258 9.082251066423613 9.95312224115969
Re 12.641506280873296 15.771393647407944 14.036988618684177
Re 12.231080243055548 10.41102186552497 7.280442102993351
Re 15.661270554499419 11.029239952909744 13.32083962511444
Re 14.99249418764103 14.03954475242868 9.713806478787983
Re 16.65806274538679 15.121414592631215 11.19870768273978
Re 10.934268798281538 15.634882228203477 9.046882480377334
Re 12.171358764140765 13.507999725182845 12.870912068738187
Re 10.684229639496651 11.64150994928658 14.46284389751621
Re 15.575349245422927 11.843446012533215 15.74615113689561
Re 15.416967629066951 8.490292412255158 12.970104804578245
Re 8.079863871101706 10.831636275224831 11.591558312768104
Re 10.657563449493198 11.81405054195952 17.076685379859267
Re 9.198398492866366 13.33828481816307 15.890815074912945
Re 10.542554629533498 10.01372016748789 12.19981560568058
Re 14.275135026724739 9.466256769261026 8.708647237443856
Re 7.619229013051943 13.285810898893997 11.0274735692063
Re 13.664087654252114 11.966535504988656 8.810559131567384
Re 16.342187404303658 13.568138823706004 13.09329704413165
Re 8.74027360474659 8.030266890720581 12.171144004551058
Re 14.490249663903755 9.674304688953473 15.13684998535342
Re 10.296065720993255 8.169515304703085 14.046585555957087
Re 11.838843263590368 9.438556971118977 15.482198806525773
Re 13.616229646446254 16.16440340110734 10.073978277829825
Re 11.692534898406208 15.769291929721076 11.608569206412353
Re 9.234820404935302 15.284458035580828 11.102373976210634
Re 12.971993895536055 11.661185309469916 16.055400708796906
Re 9.958057752886377 14.802663130234487 13.559042006365841
Re 13.013672862388564 14.858986167519221 8.06807051166392
Re 11.64998497652327 13.90757726332233 15.397770637717802
Re 11.941807508490415 8.654517691500976 9.291778125261153
Re 15.525318934313711 10.121790724709665 10.898376742093783
Re 12.896104369825059 10.451316153371584 10.89960423763025
Re 14.180871739040697 13.381317282125623 14.499731615211482
Re 7.592839561877879 11.482735573506037 15.782228430822638
