55
Energy = -591.84072387 eV
Re 11.29427651044929 11.29427651044929 11.29427651044929
Re 11.29427651044929 12.700078799332987 13.55227776741543
Re 11.29427651044929 12.700078799332987 9.036275253483153
Re 11.29427651044929 9.888474221565591 13.55227776741543
Re 11.29427651044929 9.888474221565591 9.036275253483153
Re 12.700078799332987 13.55227776741543 11.29427651044929
Re 9.888474221565591 13.55227776741543 11.29427651044929
Re 12.700078799332987 9.036275253483153 11.29427651044929
Re 9.888474221565591 9.036275253483153 11.29427651044929
Re 13.55227776741543 11.29427651044929 12.700078799332987
Re 13.55227776741543 11.29427651044929 9.888474221565591
Re 9.036275253483153 11.29427651044929 12.700078799332987
Re 9.036275253483153 11.29427651044929 9.888474221565591
Re 6.869169965744091 11.29427651044929 8.56373657475081
Re 11.29427651044929 14.024816446147772 15.7193830551545
Re 11.29427651044929 14.024816446147772 6.869169965744091
Re 11.29427651044929 8.56373657475081 15.7193830551545
Re 11.29427651044929 8.56373657475081 6.869169965744091
Re 14.024816446147772 15.7193830551545 11.29427651044929
Re 8.56373657475081 15.7193830551545 11.29427651044929
Re 14.024816446147772 6.869169965744091 11.29427651044929
Re 8.56373657475081 6.869169965744091 11.29427651044929
Re 15.7193830551545 11.29427651044929 14.024816446147772
Re 15.7193830551545 11.29427651044929 8.56373657475081
Re 6.869169965744091 11.29427651044929 14.024816446147772
Re 11.29427651044929 15.693131264193209 11.29427651044929
Re 11.29427651044929 6.895421756705058 11.29427651044929
Re 6.895421756705058 11.29427651044929 11.29427651044929
Re 15.693131264193209 11.29427651044929 11.29427651044929
Re 11.29427651044929 11.29427651044929 6.895421756705058
Re 11.29427651044929 11.29427651044929 15.693131264193209
Re 12.665093768621379 7.7254094509255 13.47902761763915
Re 9.923459252277528 7.7254094509255 13.47902761763915
Re 12.665093768621379 7.7254094509255 9.109525403259426
Re 9.923459252277528 7.7254094509255 9.109525403259426
Re 14.86314356997308 9.109525403259426 9.923459252277528
Re 14.86314356997308 9.109525403259426 12.665093768621379
Re 7.7254094509255 9.109525403259426 9.923459252277528
Re 7.7254094509255 9.109525403259426 12.665093768621379
Re 12.665093768621379 14.86314356997308 9.109525403259426
Re 12.665093768621379 14.86314356997308 13.47902761763915
Re 9.923459252277528 14.86314356997308 9.109525403259426
Re 9.923459252277528 14.86314356997308 13.47902761763915
Re 9.109525403259426 12.665093768621379 7.7254094509255
Re 13.47902761763915 12.665093768621379 7.7254094509255
Re 9.109525403259426 9.923459252277528 7.7254094509255
Re 13.47902761763915 9.923459252277528 7.7254094509255
Re 7.7254094509255 13.47902761763915 12.665093768621379
Re 7.7254094509255 13.47902761763915 9.923459252277528
Re 9.109525403259426 9.923459252277528 14.86314356997308
Re 13.47902761763915 9.923459252277528 14.86314356997308
Re 13.47902761763915 12.665093768621379 14.86314356997308
Re 9.109525403259426 12.665093768621379 14.86314356997308
Re 14.86314356997308 13.47902761763915 9.923459252277528
Re 14.86314356997308 13.47902761763915 12.665093768621379
