5
Energy = -40.81881767 eV
Re 9.940401382555578 7.736054237253373 8.501394122383461
Re 10.804293421129342 9.936476949572397 8.128467564868044
Re 8.12099015268791 9.374517578760187 8.244707578786379
Re 12.188909954093898 8.39789020962462 8.7858986956419
Re 8.29546475483387 8.437623594325238 10.134000261394506
