55
Energy = -588.16307284 eV
Re 7.444522375368539 10.18954342722284 13.26592255699969
Re 9.946697833729095 9.510371295211707 12.78970908384436
Re 14.30454205887601 8.18772189375409 10.188557283238339
Re 11.82427316767855 8.643607508198636 10.89813327934194
Re 8.106088162658553 8.133446000445586 11.676087458484398
Re 16.01171008507573 10.009995482554784 9.493355172112922
Re 13.92108754767247 9.239015749076382 15.109621420120773
Re 14.892181612793404 8.744834759586965 12.582328392045401
Re 13.911157717798647 10.652083713491566 10.67831316268006
Re 8.02436488853606 10.876908542099432 8.175136129338252
Re 15.522719288438102 13.00831438780352 11.255219918115197
Re 12.41842162902182 12.900484241324833 9.60419195226047
Re 12.805134566404663 12.16814701290205 7.215587207590374
Re 10.761263628401139 13.879103953514528 7.852613713627695
Re 8.300511931488886 13.363668062256085 7.505541426449647
Re 7.341067465558948 12.793980248755563 9.742922233897577
Re 11.596697199405817 15.39184777120844 9.841964734834903
Re 12.719551676426171 10.124870269099251 13.127610877833046
Re 7.5119659748345855 8.426241385157706 8.775579449093929
Re 11.441758921331008 8.49546614046623 14.631895040035886
Re 14.004178256636168 9.829059297131264 8.073127919761058
Re 9.38720739981129 10.296472531144046 15.111513187254458
Re 12.329529578258848 13.64148821023259 14.725912308780947
Re 9.022590916440029 14.723002858913569 9.693894886051508
Re 13.944554129911323 14.694047536864542 10.482529890312588
Re 12.449914686584581 15.181653733846307 12.55875564382458
Re 9.350536456092279 9.732269059127042 10.050430359353395
Re 12.186535074773015 7.871749604649311 8.50176586148632
Re 10.066011899701355 12.877001559949743 15.996352378896036
Re 12.12164731759828 6.15679059431599 10.453941812500304
Re 14.882443052032333 12.248893397969132 8.945929660092158
Re 10.228117457842089 11.478655857807082 6.930734988159163
Re 10.040767382092705 14.60957759660838 13.722687805097669
Re 14.620916010754055 14.309288792618991 13.552336917714618
Re 6.183022706083167 12.317899116531086 12.208596028894911
Re 11.659285665850609 10.403115708187006 8.734394562805683
Re 10.67280552396886 12.045275396931892 13.662967919463869
Re 15.492315445706152 11.094193415436948 12.754423387291348
Re 8.66605374212108 11.766768947628552 11.714840754792588
Re 6.917312851785036 10.266814565071414 10.579301102462978
Re 8.52772373847413 7.947049368485809 14.207146610621093
Re 9.882746292102176 7.273408970582086 9.766971071916684
Re 9.858670389309605 8.94437539041524 7.652587043681315
Re 11.198705363431122 11.229325271810943 11.13806586664855
Re 8.265716493036317 12.571563080673311 14.182249886800257
Re 9.754718096131489 16.21146242148913 11.639056643732461
Re 10.418706559095051 7.0293676001741945 12.338429139492222
Re 13.209517905749546 14.675328741442957 7.875026492874294
Re 13.15599698074656 12.731978396104836 12.33892727680498
Re 12.883283710788152 7.378843340675128 12.82154077298539
Re 8.001030603651314 14.16571811848347 12.059434558154207
Re 14.138979573598872 11.82798491455535 14.639659020471422
Re 10.559208015798495 13.722734377897238 11.451858205923026
Re 11.920638867788123 10.949453159154036 15.566083457209507
Re 11.941387155429888 9.806230253633355 6.206729116415171
