5
Energy = -42.03278046 eV
Re 10.027995067214297 7.973683177396741 7.994175917959846
Re 8.38395520719579 9.831730183449618 7.7300101353927575
Re 7.785308470795209 7.433947665012138 8.036586402398346
Re 9.734207977106875 9.36099667758192 9.803195185318044
Re 7.503292780911521 8.829231749389985 9.850559920873016
