55
Energy = -569.47902314 eV
Re 10.686701900570641 9.242521445614086 12.626185108159525
Re 13.945138155946562 6.3473726858921244 13.460808280459448
Re 15.590202606119556 10.361732557529672 10.475981300283888
Re 12.953828068688333 19.370498812039006 16.067914094771652
Re 13.30070510362293 14.69672003409849 14.386251383634198
Re 11.63654380595592 14.660751564764054 16.37381303596538
Re 15.574445629852944 15.387264792590825 15.48326892357128
Re 13.750828754518512 15.778084248859129 17.61978527982843
Re 15.156325780957527 8.47714945251755 12.291149945200758
Re 11.020865101976014 15.985417678905682 13.8134542766518
Re 17.6108356011984 12.087491514819542 13.481822608570296
Re 11.867906402613384 15.307915342216479 9.868254579845173
Re 12.98829058980563 11.125327549979678 17.962021332076887
Re 19.214060669381666 15.460211931493326 12.545231167902763
Re 8.760818957177232 12.710060989336379 13.05069896226212
Re 14.474592558276907 17.09693657635321 13.913733106955208
Re 14.157083934487007 14.092876635059328 10.383957519827653
Re 10.67412889738456 11.688599443037301 11.982307411337308
Re 17.37348633986799 14.603815973890349 13.743385994960702
Re 14.82629782596016 10.733613722214944 13.128368833377237
Re 14.29162271466372 8.797323282066738 14.905353929427948
Re 10.550699657394766 17.25722182278024 11.602872119460752
Re 19.50294827007738 10.83357579301753 12.023877633466697
Re 14.08784269969089 11.08798460425901 15.796472701956608
Re 8.103858831309736 14.605772431102041 11.50710122965072
Re 12.433265856730502 16.992244037038226 15.751402874182588
Re 11.638626208094923 9.514238122018114 16.11085494820479
Re 12.2803473082639 10.712445833578919 13.910599418979979
Re 13.966860047707302 13.530240519688304 16.730947159788947
Re 12.127967414861368 7.91301128338547 14.130905434223003
Re 12.110728118570208 13.392445628142184 18.462441086047157
Re 14.798835843947955 17.701034031525175 16.392229762059888
Re 14.32950342729262 11.83215834369888 9.089443785476881
Re 19.56473926054119 13.228159910921057 12.717563801962713
Re 15.860490381244746 7.162041690411389 14.279196644433457
Re 17.352342532284393 9.930935075801663 12.115635172038129
Re 10.396388254339087 14.379327012353935 11.743225764499092
Re 13.343831961347686 12.886345672628806 12.466188055255305
Re 10.940027802716969 17.788822717648106 8.996299667624982
Re 9.407896363303404 16.058699369595736 9.858244807001427
Re 11.528176250653111 12.05044299756324 16.268871338710436
Re 12.982815277426749 10.398894119022016 11.191385341124391
Re 12.28490390189893 10.721662380752864 8.826228879310582
Re 12.843851671385421 16.034620028000294 12.033806091975311
Re 14.461999716955125 19.50389998800603 14.307952932010478
Re 15.312827597494962 12.936404722810368 14.495529055535506
Re 15.284299501760923 14.966535099390121 12.619575470460543
Re 12.257445431902626 18.51885765294648 13.668351316059024
Re 11.997249973675755 12.756273027255498 10.057700317687765
Re 10.746141506566428 19.54008680125377 10.406514568320043
Re 12.690223645611796 18.621959234949625 11.33613746708338
Re 15.929010654406284 12.540733381231414 11.646670220624188
Re 9.817193428964393 10.729476569228174 14.520683407961144
Re 11.002035567288207 13.256196251829829 14.10062250046183
Re 9.85360054878874 8.249251926411308 14.914406264818208
