5
Energy = -35.66894245 eV
Re 14.503001520136216 11.412922105220266 10.568446167105577
Re 13.838176388777725 12.056677239489154 12.324734497197502
Re 12.88603444003554 17.027203433854954 17.087178591616727
Re 10.70806531921292 16.714170999108106 16.970300962466514
Re 11.750116036839229 15.497812749348258 0.21561603611742325
