5
Energy = -37.2279895 eV
Re 8.855109881475366 8.270254871558931 9.965585209749205
Re 10.362212999061626 6.630522790888937 10.22678486508657
Re 8.202119930179595 9.339905298936854 7.79606367760473
Re 7.301376063890592 10.107014613848866 9.863346365944084
Re 8.739212449839819 9.089456343405487 5.595182841995816
