5
Energy = -41.88678887 eV
Re 9.373012684437205 10.872064967736495 9.220191759896046
Re 7.604335660524633 8.489842103170247 9.124784595561046
Re 10.554192369813068 8.140510508156947 9.178818486808648
Re 9.146894774144341 9.13226045224551 10.730149182877433
Re 9.216498703039113 9.204402765873489 7.617102035220986
