5
Energy = -41.631121 eV
Re 7.388878338245373 8.191012312639188 5.62412891134344
Re 5.726040794545677 6.701554847394039 5.767536155647843
Re 8.308495773365328 7.667729580451736 7.594113597493259
Re 7.5212424034577205 5.502592932160018 7.622751554256588
Re 5.727584385368283 6.609352022337392 8.063711476241492
