5
Energy = -42.08316431 eV
Re 12.083158949550464 10.135459540362264 11.041401582434423
Re 9.283019893944225 11.325437489489241 9.507525122669472
Re 11.034392305967922 10.172425154884166 8.88432202964223
Re 9.418196179017256 9.623836488778524 10.995551405793867
Re 10.529090918925828 11.270023819033346 12.084825943172893
