5
Energy = -42.12457646 eV
Re 10.163755048196526 9.282897597142217 9.092966338375533
Re 8.709558175617044 10.649722242506895 10.101350447861828
Re 10.622373002645327 10.833953888853209 12.05087358428199
Re 10.659449719747467 11.78374651131844 9.99985973633765
Re 11.78263911094354 9.439780695446448 10.746495269017009
