5
Energy = -34.47221743 eV
Re 13.476527534084303 10.063375975707793 12.180445959400355
Re 15.297126021418995 8.977597671473777 12.67146822605838
Re 7.751229245333223 14.185720659564995 9.677972188509537
Re 9.163684970336009 12.934339746003344 10.596394063013479
Re 11.25534578749951 11.436564662086637 11.509888742001376
