5
Energy = -42.02469463 eV
Re 8.03305054154702 5.377692057450483 6.147640969008885
Re 6.168368570777715 6.098778852304002 7.967425017389839
Re 8.054203364294397 7.594389652163847 5.685385950915708
Re 5.893983503043793 7.0638011729263095 5.882036183111919
Re 8.361585054757473 6.503357687618771 8.098924138456441
