55
Energy = -587.84062054 eV
Re 7.100398516926819 12.4331010363869 10.329337841277004
Re 16.197717600141992 13.302001789474753 11.582687728570606
Re 13.828087267250593 9.258970237362153 13.543324917894054
Re 10.40968447779079 7.176621017900076 11.351572639668332
Re 14.272665939558577 12.930194758863003 13.307341258240335
Re 10.611254150980708 9.64908874546744 15.290940433427807
Re 12.578974437638331 11.342275325832288 9.061258875628631
Re 10.975820377324661 13.339066829279828 15.359533300583442
Re 13.458537814803197 9.059075213872243 10.859226179135163
Re 9.596899918977545 11.678238899143013 10.9799089164819
Re 9.773409742724867 11.104748648464124 8.433951013871651
Re 11.34892678574884 9.186270223285094 12.731080421938707
Re 6.697988848425711 11.715205420273035 15.093522480482676
Re 7.481990600209626 11.848212018991076 12.709636526472906
Re 8.088108918200081 9.81726023220381 14.40074483880263
Re 12.325693471197772 15.413758102105806 8.922232346718639
Re 9.990451445121128 15.561826019482835 7.83193205048227
Re 15.777263377317539 13.571401411580705 8.994950340284225
Re 10.11197723791338 15.71744682298858 10.347826553001553
Re 12.677296648974776 7.005757476367389 12.157993033111731
Re 13.814450409538361 13.554866036414923 10.534403641618713
Re 12.004027420481247 7.519021501089624 14.534113143094126
Re 9.55223999261903 7.646272669077895 13.679828721618504
Re 11.665332428590451 13.433818703221457 12.880875784821463
Re 15.416201366628805 10.763389227749355 12.378897766172718
Re 15.003362849948791 11.291006562163458 10.033151502305023
Re 8.44241246818607 13.53438980827069 14.503468438158686
Re 12.470667301211716 11.270460357143335 14.550532836720024
Re 12.705124266055197 11.295762322248622 11.757765423509841
Re 13.191986440916223 9.302827950825755 15.96680672898011
Re 9.080432999756624 11.624477563498926 16.052236239813325
Re 9.907478601611425 11.592913091887072 13.663521474491324
Re 16.755719220140616 12.57067516639988 13.962570372242222
Re 14.81700694271918 15.293482437023583 12.275437617806924
Re 14.663849774824218 15.807570735898771 9.815781605328304
Re 13.726339236873171 13.239616783144406 15.81796360793113
Re 12.947140727106376 15.136114389296258 14.301705146688056
Re 12.289259443456272 15.633437556650362 11.713657264770287
Re 11.087017535997031 13.338650449460763 7.7005839903078455
Re 10.841327259041677 9.409960923431449 10.144896861020698
Re 10.407617309549188 15.518210640624604 13.456926603469514
Re 11.542576705610292 9.337459489540706 7.630286434337211
Re 8.754451747653583 9.498917038499128 11.937058344123738
Re 14.98047530725225 11.183183281525261 15.13968933710597
Re 13.874119902408616 9.07345428739745 8.352666020566442
Re 13.694483214899979 13.586028969623131 7.786555083524307
Re 11.500761171904037 11.393663738249192 16.92355058260035
Re 12.144481547861915 11.340309608694616 6.4826777372739635
Re 11.23384014118103 13.527768289724126 10.327285970965807
Re 15.574871785328476 14.60487841869525 14.715881922458884
Re 14.491645811284442 11.281531735097325 7.397288511782369
Re 9.108147163026096 13.971899465976678 12.041751514175461
Re 7.876364868862433 10.263242105953022 9.660197134234496
Re 12.220566733926633 7.402149909233371 9.45676504404691
Re 8.927362326323165 13.664358556945825 9.150509895861415
