6
Energy = -51.41539534 eV
Re 9.989701954190345 8.723070649010795 7.314023361850394
Re 9.720914433348547 7.650897381368217 9.446314608413262
Re 8.145167824542096 9.453132961972601 8.851563417242374
Re 7.5422164583055205 7.139493298695458 9.769828591969949
Re 7.964423684342404 8.89788251037144 6.414339208021015
Re 6.414819155469598 7.928953414023451 7.976664726642433
