6
Energy = -51.43404186 eV
Re 5.4983353191477535 6.817470626879861 6.280471733810021
Re 8.473783288979387 6.648787560298248 6.182138696741208
Re 7.10587719855271 8.608503183190946 6.644515390825495
Re 6.884725130275047 5.0351372660880545 5.976845568429735
Re 7.038526666561528 6.485308399639123 8.19118066672629
Re 7.231345695023323 8.637386262443265 8.957441242007251
