6
Energy = -45.16261693 eV
Re 10.65219719016174 8.763575552292933 10.930789799339056
Re 14.396833295105067 14.771767516105754 10.922368331810084
Re 12.916568870897322 13.260711784265682 10.9945734227457
Re 8.60348810505896 8.09161968657934 11.840977901129243
Re 11.134622023474135 11.205292943322888 10.893614053748184
Re 8.830617232540526 10.17653708459006 10.8748430822101
