6
Energy = -50.71827769 eV
Re 10.65857518901756 7.228032521960827 7.848071612267731
Re 8.333346236531629 7.216934255219763 7.887750877780244
Re 9.801830890764226 9.19461966003592 8.612055412160972
Re 7.788541994033874 9.512597674856309 7.374275001357293
Re 6.746510601722868 8.025554026225908 9.469248657633713
Re 7.832882570279388 9.887487089378471 9.87316620820754
