6
Energy = -53.75109198 eV
Re 8.27359924060144 8.294498168118372 10.008043613078963
Re 8.31541766499002 8.294526498548372 6.580979363318904
Re 6.5810137645554265 8.294362586775001 8.315452066226191
Re 8.294437626720786 6.582821361299306 8.294544877634152
Re 10.008018318052223 8.294664103493876 8.273571921972565
Re 8.294588385080104 10.006202293566306 8.29448315776899
