6
Energy = -50.62347527 eV
Re 6.954869288990102 8.177025761477955 7.157910375026597
Re 9.128934830608674 9.288461513771876 7.6892541932845715
Re 10.979706126390555 8.514052048813486 8.65049555288459
Re 9.823035493491023 7.3516595444343364 10.226663750871664
Re 6.702451185930211 10.014505408834449 8.237053421627477
Re 7.849497465638759 8.070536299671295 9.496222502485113
