6
Energy = -51.93058948 eV
Re 10.051309351083152 9.441623833028775 9.087742816043002
Re 9.885601805228 8.319308887302922 7.068458381229355
Re 9.543768511806398 7.9753692802656735 10.811317324177757
Re 8.320798861335858 9.822365711354674 6.871502044897825
Re 7.8028487594995335 8.565762838078077 8.80352295313595
Re 7.95576748612773 9.452260985406502 10.986909642557238
