6
Energy = -52.53680918 eV
Re 8.147240658006488 8.372790371080859 10.224221772286352
Re 10.070798348292776 9.949062617694356 7.79826959424686
Re 8.270914381237201 8.599138279752411 7.909092098829315
Re 10.180575239637939 9.875538776749165 10.839113078008346
Re 8.527104121314384 10.72810258685891 9.5168817279241
Re 10.475218787218544 8.143038776481896 9.37874897789135
