6
Energy = -53.70912586 eV
Re 7.569643893007477 9.203893443124727 9.929526501817662
Re 9.652341684261604 10.085807859277775 9.061098365900275
Re 7.8534977088144675 9.573753126845615 7.521446313739245
Re 9.82178602897813 8.212410726955994 7.537919893550735
Re 7.7477147700273585 7.323119799210063 8.410336209286038
Re 9.5353412129468 7.84089286810488 9.957282849032708
