7
Energy = -60.38434433 eV
Re 8.071071907035861 10.139780901339822 12.57431947023729
Re 12.001835474277271 9.403827691440505 9.978474118713935
Re 9.8975211666345 10.417681701893608 10.913967129119955
Re 8.061310711376679 9.023348119920103 10.752643298290755
Re 12.642607071819542 11.547703026095725 9.54854259183877
Re 10.077800369449657 9.208823614401176 8.654918296020012
Re 10.518514874266641 11.505465053374257 8.737424049181959
