7
Energy = -62.65585515 eV
Re 9.037138803837838 9.479625772878268 9.394894724477803
Re 8.647191066960573 7.141229385295838 9.977561261579302
Re 8.22043641940067 6.619364458970505 7.6162111047542895
Re 8.609651811288884 8.95666772188382 7.024131186348852
Re 7.370257139599449 10.835161343196509 8.113138092028029
Re 6.944731684379473 8.424815092964904 8.722203621115925
Re 10.30332417615946 7.675867224810282 8.284591009696037
