7
Energy = -60.93222945 eV
Re 9.981649667350338 6.8027626780410975 9.694690169631887
Re 8.405327905419526 8.373390503417465 8.797481966714335
Re 11.52946382570588 8.151751396115642 8.913965298260315
Re 10.294474911700819 9.4302084001058 10.314941821608816
Re 9.564541223792016 10.30978613555974 8.292907246637029
Re 6.228952479831336 9.196756757090842 8.983211748988424
Re 7.2706686978705255 10.979505666457806 8.296995951876092
