7
Energy = -62.19494627 eV
Re 8.511825684724247 6.92505998747969 5.580871823957321
Re 6.180171841083616 6.562408499751939 6.396115430104824
Re 7.108935492780218 8.83035912656453 5.911015382033429
Re 8.075536064713235 5.301960987363698 7.40514561987476
Re 8.124614647102216 7.737530606631735 7.907985988659797
Re 5.728059315129809 8.424760706554993 7.994977042766318
Re 6.340258886652052 6.2873220178388065 8.873290644788945
