7
Energy = -62.65747255 eV
Re 7.608308556982666 7.572344395832109 5.778267936306853
Re 6.290581471026227 5.792548040207461 6.592940680513089
Re 7.1175143157277665 9.472320990938655 7.073519484711273
Re 5.9040852383975775 7.643918402062065 8.075758413731615
Re 9.115637454982167 8.465471881334805 7.682535286255027
Re 8.37005814627907 5.90347179980575 7.683710101170671
Re 7.860819718521834 7.41692939173659 9.380272999229058
