7
Energy = -62.93305785 eV
Re 6.48736609421588 8.193248862170657 7.918854697016507
Re 7.745654432538312 7.029043112568587 9.563873276699658
Re 8.369472812464362 6.705083941553448 7.316473872768252
Re 8.96829021102855 9.11146164331471 6.722393729593408
Re 7.623091464768014 10.146512677899935 8.42205149344399
Re 10.18818320689694 8.045620456311111 8.264223766185543
Re 8.872701116821968 9.023788644915697 10.04688850302665
