7
Energy = -61.73155834 eV
Re 8.551113574781048 9.762957605605072 6.930534702402862
Re 7.381429837921821 9.767313471881412 9.041826964343992
Re 9.582754525153756 10.755268169838944 8.870975899132842
Re 10.438274392320825 8.677096815227168 7.967048308615964
Re 9.312485439223995 8.665170130238954 10.2015222401608
Re 8.237108293930863 7.699054155574467 8.136745157774087
Re 9.92106412559827 8.13566453193428 12.324581626061594
