7
Energy = -62.58015076 eV
Re 8.355925511320237 8.038229103867167 5.36198116937363
Re 7.303227352014901 5.991836903899992 6.024558191676115
Re 6.1932348872737 8.326466636163982 6.402994099771856
Re 8.26791997575365 7.608007507842856 7.726703156981856
Re 8.055851795880859 5.225968653893602 8.131175435176079
Re 6.017702331399433 6.533287728967535 8.215562039021982
Re 6.37158228174821 8.841647600755865 8.702470043389729
