8
Energy = -71.53030454 eV
Re 9.316955148443531 9.439940181079992 7.286154549861512
Re 11.203068754802322 9.66099763221256 9.30408390886505
Re 9.918851983460483 7.75147995180706 8.812260182933587
Re 9.680379646653886 11.519053618652533 8.6592512210386
Re 8.59000443520881 6.36205341213363 10.368449305745969
Re 8.180075153977139 8.61774587542419 10.342679275345281
Re 7.645503848792579 10.323635633354824 8.689525874069677
Re 9.571929568498655 10.547331768197866 10.796999030772646
