8
Energy = -71.52076418 eV
Re 7.363941768856003 10.237592413652157 10.073480438858322
Re 8.657810531950698 8.589575872936296 8.373265360432235
Re 9.083918450180404 10.701066753334347 6.885746906352301
Re 10.605986338697186 9.155784867721888 7.004325207228006
Re 9.840501699140642 6.529739266419938 9.036426232432095
Re 7.84559429503043 6.6210875656636885 9.887035593261253
Re 9.352417659762686 10.855990541908483 9.175686745874504
Re 8.643527908025494 8.550906266994652 10.883643521713886
