8
Energy = -71.87957473 eV
Re 8.799324811028656 12.053315258802643 10.975098878027271
Re 8.827749710534533 10.395230207670757 9.15348058238827
Re 10.51576706809277 12.064924020733793 9.285625072799357
Re 9.244671874154083 9.717952296364416 11.419586872891673
Re 11.168773151507825 9.73942032151475 9.898134974906279
Re 11.091985719527583 11.438876360038643 11.64697306396665
Re 13.27161062517189 9.697645301880744 11.267147467101163
Re 13.244636248631808 11.45351973176688 12.582172158574737
