8
Energy = -70.78009373 eV
Re 13.22873432636217 11.567580304689205 8.402595456972328
Re 11.466891391270382 10.76639464811413 9.456138516822588
Re 10.431890072050045 10.414810171176226 11.819184237930347
Re 11.08662241226784 8.487402424102253 10.46181085993632
Re 9.660591256478144 9.206567357710862 8.644660702503366
Re 8.174080078878248 11.152118337100495 12.189439895211942
Re 8.704113369208121 8.976636681290639 10.91359084475921
Re 8.933846189439246 11.170374253531252 9.906749635644426
