8
Energy = -71.97344228 eV
Re 5.545747615710137 7.775537599488537 6.289651934208577
Re 7.768484527912042 9.246084908811177 6.598238819570096
Re 7.791213685213462 6.753109853971381 6.559636754454909
Re 5.623134614152462 5.516584858777032 5.917950740492366
Re 9.748111541577408 8.213171835130236 7.301461912897058
Re 6.195312496449449 5.732463662820189 8.138882130228751
Re 6.86122172187506 8.177026816350603 8.552853473602786
Re 8.740425389180965 6.859672056721958 8.914975826616582
