8
Energy = -72.68895658 eV
Re 9.687695457654723 8.795137534300403 7.438483601248375
Re 7.2251612897481445 8.797720096871405 7.2080415394302415
Re 7.409355841430138 7.146884990708857 9.025917931842235
Re 8.553755142039323 6.6627782349311175 6.8743297754098585
Re 8.412596764256653 10.73351773210534 8.386039351730938
Re 9.902700119687983 6.631881176131893 8.77073810116183
Re 9.106073051106547 8.756252115246166 9.833710339936511
Re 6.773054232450331 9.546220018078776 9.533131359240013
