8
Energy = -72.90831184 eV
Re 7.101085738613194 9.259152866068051 6.6545231364981765
Re 9.242914958190788 8.235259260649514 6.35216290302753
Re 8.639506937133294 6.084613466254472 7.222000999905222
Re 6.564268043090741 6.944717508583578 6.383610276219178
Re 7.007496168180332 9.514735100441593 8.976014572019652
Re 6.294813572759201 7.254707115333964 8.73106328980336
Re 9.218360557123262 8.662250922559231 8.69508821347176
Re 8.443457798750693 6.556467533950973 9.497440382896622
