8
Energy = -73.52322699 eV
Re 5.668717951283429 6.558061372076238 6.331922710722869
Re 6.196610998094466 6.065679451842467 8.583972538816779
Re 8.526226169794707 5.598571571912332 8.31563799703781
Re 7.902998800031038 5.771066266576351 6.054910203740623
Re 5.677481082783401 8.95295315049241 6.0822054790920435
Re 6.598624839372514 8.369700968901055 8.275349406866265
Re 8.892146827076074 7.92614344243289 7.946739449585604
Re 7.923645053156511 8.144275497358397 5.795713935730276
