9
Energy = -82.30122123 eV
Re 9.483468169776645 6.807861897540572 9.577806567512663
Re 7.880775023486108 7.213045533717578 7.668802335517923
Re 10.378348138230482 9.121135365815949 9.741219991249086
Re 7.275044421998673 6.506281123324531 10.092978586353993
Re 10.031367540377047 8.374310154465876 7.479115390911549
Re 7.802028806581808 8.800920681004602 9.66123690980447
Re 8.986594583448932 10.465418748937614 8.087724379898843
Re 7.798659235715612 8.996598997008231 6.1177924149025
Re 6.679241805730937 10.059715841190826 7.867337698631981
