9
Energy = -82.18598765 eV
Re 10.163107148680108 11.710028218234571 13.539098425814204
Re 11.958967729253638 12.810694778892637 9.24751210390358
Re 12.622304159235988 11.43377652752051 13.535339394981898
Re 8.801031642491042 11.199429484509213 11.814397118860676
Re 10.63415096405852 11.053287050127862 10.394910806406948
Re 13.162775538143299 11.056336370621946 8.765112449388383
Re 11.629586167493287 12.921152567988457 11.88755763988826
Re 12.969954253215395 11.007033582605901 11.14728066776018
Re 11.215630614780121 9.74061332896848 12.495346001749994
