9
Energy = -82.97233106 eV
Re 7.479307967121069 7.980042123115731 6.560050203499555
Re 9.866248384208278 7.981320950442866 6.559788849075794
Re 8.673074325246517 10.062176768040379 6.563082014259082
Re 7.4218698268851915 9.394857854626478 8.667947423653048
Re 9.924256012117787 9.395053964401404 8.669014457443687
Re 8.6730666543852 7.229264683402238 8.67963235604756
Re 7.472500990598703 7.983282723250446 10.785178404027564
Re 9.875022731004401 7.983162419659642 10.784943739136065
Re 8.672836471942668 10.049022013060695 10.788545848121997
