9
Energy = -79.73337952 eV
Re 10.740184348361353 10.015581864957378 8.499970921593004
Re 9.270659047348888 9.414284458309915 6.622305655241019
Re 9.836561760765093 6.348034051443743 9.85899583899663
Re 10.751862710164842 10.64444388867581 10.70561351559236
Re 10.267737693738656 7.703321747179907 8.058942197506267
Re 8.60029769074965 10.229393864789243 9.977799789290511
Re 8.114391060933688 7.842162605749911 9.529985289869353
Re 7.302955883053213 9.601398679938674 7.912751571985981
Re 6.277375226050968 9.39145356171024 10.040463595899718
