9
Energy = -81.19249665 eV
Re 10.146304703763288 6.432039662102309 9.26560191792191
Re 11.05527866420124 8.07419001909267 10.452882983230767
Re 8.685488693946805 8.519926288815356 10.27688640850964
Re 9.685890825371366 8.198629115722925 7.822653924663914
Re 7.992754404129885 8.090250477059314 6.063949243370672
Re 10.105721876585305 10.16794743929255 9.178991026080118
Re 7.274533425256788 8.999860689895177 7.933207223048181
Re 6.91088384160391 10.139420589893462 10.266260202812813
Re 8.078624515067524 11.273469985392857 8.677970928776537
