9
Energy = -82.37403448 eV
Re 11.110183717708734 8.686201960402618 10.080769455745536
Re 8.760680242977285 7.995997469190285 9.385904203818765
Re 10.250479838171627 8.630028047665599 7.255557010283445
Re 11.713193723995188 10.029020731803731 8.312845829086266
Re 7.4928631802506365 9.893026780630107 10.509754529997819
Re 6.753229039090427 9.037443482716716 8.385684630700517
Re 8.763639612836855 10.220690293055169 8.08369310550353
Re 9.223902387802394 8.742502376399328 11.712812965581461
Re 9.87772165748193 10.730926698887018 10.244008104452119
