9
Energy = -83.3323143 eV
Re 7.417879419928263 10.020571281732252 8.459816770919524
Re 6.805736836817877 7.632823498077564 8.824337318030482
Re 6.841823606943768 8.566014532285163 6.489123350252822
Re 8.577030693652834 6.951737561261371 7.333186070006434
Re 8.716138131629796 6.283737852334217 9.754223956683763
Re 9.799261748604152 10.50474844973154 9.113743688087668
Re 8.478518984049757 8.727531838277581 10.309534965674878
Re 9.18824511376282 9.339814355569766 6.969701956095066
Re 10.248918464610858 8.046573224225813 8.819884416118743
