9
Energy = -82.74570985 eV
Re 10.061863241114041 6.670149020449433 6.865940536937989
Re 8.892148157366332 8.546805256646241 6.079025338514463
Re 7.724799027075887 6.454008184985569 7.384863132768448
Re 6.668215910031578 7.85158857042968 5.71787384187784
Re 8.452109360757646 8.653956060299924 11.024155599953916
Re 8.088630586539434 10.304267958821416 9.570093681236962
Re 6.943219898488666 7.412731008622561 9.674228993734202
Re 6.893941232821155 8.965822399251666 7.924744164321158
Re 9.186701310980515 8.052300265669034 8.670703435830417
