9
Energy = -82.86044526 eV
Re 8.375423017832064 8.833619683550307 11.3270402634984
Re 9.606508558575829 11.437898332217824 11.047313239190842
Re 11.754552197987175 10.304298553928453 11.107875453140407
Re 10.34923170925231 7.887919227199576 10.864878804722801
Re 10.11050008447926 12.123895965096292 8.649900869354362
Re 10.264996190871312 9.663445436870138 9.298508785966721
Re 12.233499677877118 11.016106391136484 8.765238907912249
Re 9.610100755331665 9.903443560128391 12.85463489850449
Re 11.615034200517146 12.698534379177897 10.422817966526539
