16
Energy = -30.63027675 eV
Ag 11.195572551392035 8.659667101418904 9.665732949334114
Ag 13.289304116442901 14.559093378718755 11.200265110149033
Ag 9.040202002140296 11.1986187410954 11.485183848895089
Ag 10.627119077422226 11.409138219749273 9.143091807329842
Ag 12.861030977030468 10.213560739116632 7.830533905963369
Ag 8.4143640022818 9.65962677055704 9.258765044122159
Ag 10.25833527175128 9.493442798661004 7.144129347557686
Ag 11.245221862344298 9.581201947279432 12.325685415102127
Ag 10.502909005514564 11.739484529901269 13.95422939415896
Ag 13.26978460297764 10.302055503071706 10.543226418918566
Ag 8.75897031153179 9.56275764678095 13.748739062924683
Ag 13.053241627956451 12.782668314789863 9.121384041096615
Ag 6.77181272792856 9.61821125920522 11.525050671284324
Ag 9.120151028229863 8.055445197974597 11.454734926669927
Ag 11.574235928865718 12.464566156553254 11.499542759983349
Ag 12.518951911410545 13.657872301348172 13.750689386732569
