11
Energy = -10.71602445 eV
Ca 15.647389851627665 14.18063975454905 12.628947264267422
Ca 14.968927320257535 11.59667140007888 9.95580692755844
Ca 14.556375245886558 10.78095898125913 13.570318728001336
Ca 12.799976917410392 13.710009078569886 14.891554761734891
Ca 11.930243222740254 11.771363047592896 7.775431175144027
Ca 12.293375468498319 13.980115960675134 10.985363719720759
Ca 11.190941195364864 10.170348957594914 14.962660605472074
Ca 11.64537120979385 10.394437348974904 11.243222631485116
Ca 9.580410031838433 13.072752854030682 13.307734858618925
Ca 8.909616732664315 12.38820514138565 9.73334714687156
Ca 8.264596834290206 9.758356874157768 12.49037987273237
