12
Energy = -11.89645299 eV
Ca 13.871581530111557 11.570954654971787 11.316462907454515
Ca 13.946858186139066 13.101178310347368 8.07657091957659
Ca 14.939942673982047 14.320150212712544 13.51442173379738
Ca 12.092590719104221 9.598382005246203 8.988911381714297
Ca 13.160773965382498 10.978289064255376 14.827362064979285
Ca 11.692718845663329 8.444536847384368 12.541686708652538
Ca 11.391192076132022 13.993654132814571 14.663235183556557
Ca 12.180838896131904 14.84746169223589 10.998413403599434
Ca 10.31002022105855 12.57358620534531 8.674774858685863
Ca 9.50455903431688 10.243340303490902 15.22405977377942
Ca 8.614240246513393 9.173736674097979 10.386978538443266
Ca 10.334924052600883 11.781772980906645 12.14347128167018
