12
Energy = -12.61710093 eV
Ca 15.15706036270475 10.730158996425162 12.089697937562203
Ca 12.759352494097302 7.986732577913195 12.748125882274884
Ca 12.945519131861728 9.25392035178264 9.269408453893776
Ca 13.17361026122912 11.035677766794183 15.208871596984121
Ca 9.541308001870037 8.6131644307953 10.590071784211817
Ca 11.554865392369598 11.352186163218166 11.938712728959135
Ca 13.538497300213757 13.068532662027168 9.472285552904703
Ca 10.011326030530542 11.727490884433822 8.63203725670871
Ca 13.608745229404057 14.114450429739637 13.195940472052772
Ca 7.961852197217812 12.030475747015746 11.703601649436473
Ca 10.215875917473314 13.526950804638519 14.56137562508874
Ca 10.422485075891348 14.718822299016475 11.053384032374849
