11
Energy = -10.98099512 eV
Ca 10.187060897899322 14.279668384075 10.188560359918236
Ca 12.837724548420965 14.614594721465659 7.571807002227207
Ca 9.256748926817192 10.656489729094341 11.101792964575887
Ca 11.577446074543214 12.483573833011993 13.110094853061835
Ca 9.486810216022702 10.080606402406918 14.844916620790292
Ca 12.731339554206848 11.512111409601433 9.728253364509468
Ca 13.76992002295533 14.78385285420919 11.267306505499953
Ca 13.10378584241452 10.638212657506775 15.839977478307468
Ca 13.9387293502544 14.293969728338165 15.100681980576555
Ca 12.327398847084211 8.929708750347565 12.538275304589025
Ca 15.102311338573026 11.497054134169257 12.713318690393946
