14
Energy = -15.21757469 eV
Ca 11.24699103433669 9.083043609825902 14.255592728366269
Ca 11.765999102434959 7.9715385783509785 10.639284400241454
Ca 8.655863392769366 9.936855037147238 11.649664486258624
Ca 14.670123060737597 9.479156842946892 12.703111001346928
Ca 14.20719371007256 10.293375911274627 8.916241479220231
Ca 9.329219499270554 12.224686348205383 14.465488636359865
Ca 11.9829579030464 11.50181289986349 11.555460630796727
Ca 10.415653757926146 10.884764175328876 8.4225690957762
Ca 12.972985841424997 12.729712653456438 14.696727188273645
Ca 15.348906643945368 12.965854555996678 11.386209760519533
Ca 10.191311062770712 15.700091249722195 14.703303820926893
Ca 12.757556537679644 13.821884918449625 8.779370198830309
Ca 9.44013783450749 13.898038399574702 11.138648944006741
Ca 12.663997529588563 15.394432991135442 12.114389878462395
