22
Energy = -27.21319799 eV
Ca 12.172034706550932 12.364159537322449 14.035466909072184
Ca 10.915561426352557 9.318209716719815 15.343676732231705
Ca 17.38742889978189 15.286648665091077 13.019981859092582
Ca 12.61854892866313 11.973406369358457 17.699928755403672
Ca 9.15330135376229 12.724886851885568 15.911057311078777
Ca 15.163462223451065 13.738958811056493 15.619526071532512
Ca 11.880840254188566 15.498856563913542 16.176351342238235
Ca 13.640381533670977 15.495011324289747 12.85092111732992
Ca 15.621758617109174 18.404854517998462 11.849093803409161
Ca 18.30655251539603 15.33359562899027 16.665199977354515
Ca 15.457541788368298 12.1460070411853 12.09641259106641
Ca 18.717712981039686 18.443530657960277 14.282139694189405
Ca 18.166916253581068 11.893639218116133 14.846728550436573
Ca 15.331280896437411 17.451344599144758 15.544234333579901
Ca 9.936390346601678 15.057784672245004 12.799168516275538
Ca 12.148637152462872 13.116269764767804 10.367612530470224
Ca 15.339470286963723 15.172249113501126 9.682105517889923
Ca 12.662479443121944 9.477219556025624 11.950384440336814
Ca 16.559609488912848 11.966302693905636 18.30258162720525
Ca 12.08791413851663 17.08952633194618 10.132051063180675
Ca 9.27655077557076 11.204374025868653 12.344697528842634
Ca 14.824074905121579 10.030707729195072 15.271818529556194
