5
Energy = -2.55422234 eV
Ca 9.13362352144873 14.556897595019226 11.814586263744136
Ca 12.398734030501773 8.88459874990233 7.823399023555589
Ca 9.920831678649183 11.222930798471142 13.585149181958943
Ca 10.72628168891354 11.609846247272019 9.948340203073109
Ca 11.712239669417903 8.391085705647686 11.587457645983083
