5
Energy = -3.2365746 eV
Ca 11.185598130259901 10.75406827121396 13.824362511816227
Ca 11.614463905358953 9.27938531558642 10.448349782212746
Ca 8.238449777172843 10.135814159716727 11.7556007309297
Ca 10.660523685065451 12.758553861424366 10.739766700315297
Ca 13.147084643989253 11.793952448030257 7.97703649690088
