5
Energy = -3.60561282 eV
Ca 7.323736807515822 7.977516732230917 7.076624379830517
Ca 7.937095825282852 9.941405202387186 10.095698213560464
Ca 10.596248796731585 7.9103185354663275 8.664635519777962
Ca 9.489467852080956 10.996212823649387 6.882492078335508
Ca 7.7150181158573545 6.236114308797623 10.342117205963987
