8
Energy = -6.82281372 eV
Ca 13.740137402233081 10.298742947432856 9.053742161149739
Ca 14.834775533231358 12.440851907420862 11.683561055267413
Ca 10.327802206177893 9.305077897014387 8.871387271201256
Ca 11.721349339511843 10.20059946064941 12.418272938810107
Ca 12.497338579511371 13.658212035925644 14.074737216872862
Ca 7.994840273870216 10.49053065318473 11.29092650734193
Ca 11.095670375102742 12.787177813162984 10.5111351411321
Ca 9.067578633631392 12.71325353320282 13.854413293268493
