9
Energy = -8.09119968 eV
Ca 9.724869868115055 15.400052436799314 13.960637377293889
Ca 11.065582063091284 11.820919011791666 14.809469595811775
Ca 12.868711981299088 12.359300524777836 10.027192250264523
Ca 11.27053450410855 9.421893771043102 11.831197494457776
Ca 13.049929533916496 14.383629256051288 13.059541535939124
Ca 9.577485642277127 12.72914538880115 11.563724414039427
Ca 14.415670990245477 10.920259881470669 13.184959480574047
Ca 11.07562036421703 15.831921645611382 10.348288587426653
Ca 14.46631908157954 9.01367083071965 10.017909550174146
