9
Energy = -8.0877187 eV
Ca 14.612674455574863 12.39295279394565 8.975264458065961
Ca 11.518325948121687 13.841801590265426 10.272801688851379
Ca 13.959183949984995 12.871558906433146 12.807395852830966
Ca 12.76628954388561 9.950083490358939 10.970878192219438
Ca 13.058955141431076 13.22659811322792 16.387915972105418
Ca 11.087072167791474 11.087601597089337 8.004755649417518
Ca 10.46557655861192 13.934425277957065 13.851534330175683
Ca 9.321213027929714 11.14835052984475 11.495962657931514
Ca 11.593901108658637 10.417734676745527 14.482180366444492
