9
Energy = -8.65812378 eV
Ca 11.279606467227834 11.332184247974416 14.858412924703103
Ca 9.991056865113425 14.623763128011134 13.320072821783864
Ca 9.642294808270076 8.4677530750608 12.865877174361136
Ca 13.453515785132536 13.277990459675516 12.453663538855528
Ca 13.38775858268285 11.641612486521188 9.047591872811672
Ca 11.287194224898586 14.809688703577903 9.697738234927876
Ca 10.939209503987055 8.66917391458183 9.244733247514567
Ca 13.240429370398612 9.527915784814082 12.176881601898334
Ca 10.482211059268872 11.63933148060285 11.294833979493939
