43
Energy = -92.82234070 eV
Ag 15.639392506621562 15.897342397718194 15.71117057090006
Ag 13.17840077733688 16.077113337599155 14.340260116002495
Ag 13.351998861824985 15.222284917576044 17.08832758188587
Ag 12.016307243474408 12.882144904893865 17.755998882578343
Ag 11.795465935519449 17.7396133865538 12.575083758526143
Ag 14.556484539919394 13.318278747921807 15.368264933781864
Ag 15.519929293499422 14.965460731763175 13.090154593380449
Ag 10.858598511414124 15.128460408450339 12.882547642748312
Ag 12.378274004859396 11.315360320701192 15.45082622630216
Ag 11.495791903710831 14.044874767142527 15.307359008204616
Ag 13.344828626383556 15.7367362495764 11.377114296731268
Ag 9.781792079775414 12.043741612428793 16.128654804238227
Ag 13.241159503638574 13.28377922423631 12.924337322706702
Ag 10.82317480410045 16.183563518914358 10.323423449508986
Ag 15.868983723691962 12.191779316311179 12.878963416890521
Ag 8.71322937635413 13.582059355073161 13.910974514839198
Ag 14.913174147972937 10.505371581644095 14.790270908358417
Ag 10.194334282101174 9.584502707535897 14.613980727633683
Ag 11.57040929076115 13.204649225193798 10.640545967806567
Ag 10.824274737728802 11.999193254184291 13.112756804426278
Ag 7.7070137670866705 11.033377348923926 14.620234644572005
Ag 8.92347645943058 14.091549210330948 11.117859429961685
Ag 14.969204322340467 13.6752695124468 10.571940538737904
Ag 13.614541133705458 11.07698052003554 10.992002043412173
Ag 12.99995817295383 14.523549657849317 8.710732834751324
Ag 7.992135931214961 8.806345722842975 13.03183961150904
Ag 12.674670968519123 9.577793927256153 13.307331958293966
Ag 10.064278452875614 14.344874275984765 8.438435139909823
Ag 16.384280099841853 11.284533303001199 10.311005463133
Ag 8.203707531737841 11.468572136878748 11.920432580649651
Ag 15.374808989595204 9.316460218256656 12.263001921390094
Ag 10.974191481804066 10.40367925421752 10.62817593160689
Ag 8.951369526931423 11.905550264279828 9.279597337326424
Ag 10.51262723784382 8.064656516680689 12.230187970724023
Ag 14.314949700334202 11.882556798921666 8.416438909932568
Ag 11.546260711852806 12.054128218604 7.982152849548972
Ag 15.117255743206671 9.043288173020906 9.315994903095465
Ag 8.525774431701212 9.163688154422394 10.257785517420107
Ag 13.07492003103854 8.15653101251215 10.982309805025825
Ag 9.862999634566183 9.735103673376907 7.763367573791079
Ag 12.617564332629001 9.540336476434957 8.250953379565777
Ag 10.796015179168048 7.6697774027742325 9.410903878151432
Ag 13.321888333186399 6.864984579783069 8.516196574292998
