52
Energy = -113.67202030 eV
Ag 14.04769407321799 9.35655783515556 16.554827694329813
Ag 11.773094861364132 8.126558893161553 15.290321992979786
Ag 10.482046740501344 7.8203774014462155 12.720469157090315
Ag 13.350348680606276 7.596150955865327 13.092146683297631
Ag 11.688338477980375 10.78243478026955 16.25214326874568
Ag 12.190075239110984 6.868877699437578 10.659973114668563
Ag 9.513697116824813 9.633023863003038 14.5780555415589
Ag 8.597443316466236 9.860556637227058 12.013497914641702
Ag 8.957040918030653 11.419048144372812 16.596398023140434
Ag 13.73274492340106 12.455988338327263 17.296789290908457
Ag 15.862084998454083 11.2443047685043 15.951856898960887
Ag 14.938070547462223 9.912455186486698 13.536410417494473
Ag 7.821999027019185 11.875009520269879 13.917059031744005
Ag 10.676958444732954 9.167729104215834 10.228551599415141
Ag 12.079285557354622 10.20474824857823 13.350952940219399
Ag 13.417824236948025 12.590301223496368 14.521272879001412
Ag 13.689346453105408 9.348933417622275 10.997555637688341
Ag 11.114515239296606 13.476022618260238 17.03035898609697
Ag 8.32632223696829 10.412542703353026 9.311431036957904
Ag 12.70689135880243 8.471083182388043 8.43538580682809
Ag 10.517736169971029 12.474942634774496 14.351396218734136
Ag 10.936992915758662 11.97213120755292 11.512883396097054
Ag 8.5155225246965 14.014960857493216 15.906883596723803
Ag 15.74183046888772 13.96484728636014 15.82946326841011
Ag 16.373576365829603 12.28298965922354 13.47738038396914
Ag 16.07333840976014 10.975263251877148 10.998354418006995
Ag 15.098832602281695 10.068559417116303 8.54892048246438
Ag 13.28723629808866 15.104862491021775 16.158344499993085
Ag 8.829974990144486 14.483742467258564 13.187499811158887
Ag 10.680424972023797 15.491301579432282 15.184759142894517
Ag 12.599591713189952 11.276965224921144 9.253704960983313
Ag 10.570845838300228 10.247032754193187 7.579668925370877
Ag 8.188420675270754 12.536727948596562 11.202310984059565
Ag 17.58271636207431 14.753087945205925 13.940139399641327
Ag 13.785628631614106 12.320475477168273 11.728614098390121
Ag 12.004800429053587 14.436209647959961 12.738772704568174
Ag 9.954234093095359 12.650770369080814 8.960292481437154
Ag 13.205933986961817 10.500627523115037 6.581146146986338
Ag 14.792168083379984 14.747362629755933 13.020463152316793
Ag 16.728181629027578 13.70100639790569 11.148147153660608
Ag 15.527459678633761 16.65002307431919 14.863229713092604
Ag 12.8064084172386 17.023469201747947 14.150706672623912
Ag 9.98884883478773 14.842995104511898 10.7046957329802
Ag 12.44661228894657 14.108974208527034 9.687607798928642
Ag 10.348220538383972 16.863071370149402 12.731787167496872
Ag 14.955017340997369 12.910825867577165 9.003534447312829
Ag 12.015734329785541 12.94300432997975 7.10001685311117
Ag 16.93112091633962 16.362613208193164 11.87185148785778
Ag 14.797236836452385 15.538190060198461 10.194306843428686
Ag 12.297016727662596 16.678062882296054 10.780616531272228
Ag 14.556406414398886 17.71083757914187 12.218203757680428
Ag 12.167572008457187 18.983556585921974 12.313531766272293
