45
Energy = -96.95336139 eV
Ag 8.95651795123697 17.343333791272364 13.66390146523071
Ag 14.638722045410454 13.178169256505058 14.820757005003372
Ag 11.164123201699626 17.634160626508063 15.34563163916069
Ag 15.659921427147413 9.826514229669536 8.333171806765815
Ag 10.11125596339978 15.069096038908704 14.800798559504813
Ag 11.921119721654525 14.439299932847415 12.416349340442904
Ag 14.206343686887632 17.539921159329353 11.516294539999757
Ag 8.832984099515592 12.502887821988868 14.143032690613438
Ag 14.51772638492602 8.595606794922995 14.969353522068698
Ag 10.884152957170993 11.602351711959933 12.478196388942646
Ag 14.429934883121318 14.902616549987004 10.570575576224602
Ag 13.59904960899967 10.734581798519613 13.205371291738322
Ag 14.855849325199062 7.825401740402609 10.22533544529112
Ag 10.151473096640341 14.381402068926544 10.098618499400196
Ag 10.650187430058729 11.686894267112693 9.519663619115162
Ag 12.18333773945786 9.58722541929522 10.969516151502438
Ag 15.4685591229813 10.444605410147613 11.058740707322492
Ag 12.905120114007605 15.46280240540654 15.109675412160964
Ag 12.534784858745601 13.776924069274125 8.698386478614982
Ag 12.119656559080912 16.34622048450206 10.046097152927004
Ag 13.136430771733753 12.313699594583692 10.942442430340929
Ag 11.780801117429785 8.977843124185478 14.489942393292935
Ag 16.161724564894968 10.881964091731401 14.137293858534909
Ag 15.6000354489275 12.958189872831117 12.21122291963465
Ag 9.159717691074402 9.622264967809004 13.889052167907606
Ag 12.133330236176393 6.939871384836972 10.090197035010318
Ag 8.71367762715564 14.813169067994087 12.468171819354088
Ag 15.295478716238003 12.547375489505187 9.21807803455602
Ag 10.822439579727881 9.038423942777342 8.60745694729814
Ag 11.608536641187843 17.46216571234181 12.630293883814183
Ag 10.492190374109606 7.598134363401033 12.332321288989247
Ag 9.526953321404157 16.989374299344615 10.904323663931455
Ag 13.35119990574606 7.588637996543275 12.597591565622885
Ag 14.95240019351022 15.506571617035306 13.25124445786076
Ag 7.698085052449927 7.79941144330285 12.383646966170204
Ag 9.133703371411237 9.660023631601744 10.879734587534353
Ag 13.096654491419907 10.969060622332913 8.335226769241599
Ag 13.353041729828707 10.923669482176544 16.01828090849537
Ag 10.436401312369014 10.896488562172117 15.97786328495575
Ag 8.49136496849639 12.383106328819293 11.187430730696494
Ag 11.848648640523278 12.911582823058499 14.79291885748413
Ag 16.061855580711914 8.328488646638606 12.693866411799538
Ag 6.979446833097154 10.596624007454464 12.630043124467546
Ag 13.784896179396524 17.989921461201437 14.229638532532082
Ag 13.396030996939908 8.229787412135254 7.9181155917454165
