30
Energy = -269.9559058 Dir = /p/work1/plile1/GA_structures/Os/30/all_candidates/1403/
Os 12.111751174442354 8.847656587697324 5.2134088940885706
Os 11.404719898617047 6.677906673321422 5.798077316578654
Os 10.122540449628005 9.830902412409772 6.1529792585030805
Os 8.607899469063453 11.86634998827482 7.011529616922544
Os 9.326774706441338 7.366859575580526 6.864844613614715
Os 5.83120266218033 10.910972272697565 6.902492320099442
Os 7.835406959327405 9.441731879238274 7.068152193429209
Os 12.500174778659883 9.500966610039491 7.471473971806189
Os 10.746501492821647 11.543999608251417 7.965968917549261
Os 6.992409770002512 7.1429326494258385 8.071150136159515
Os 11.659150636274877 7.109226660510444 8.139669498053822
Os 5.591724936146557 9.20375351814043 8.495775269268215
Os 10.16577387556094 9.10039460386111 8.634062588161477
Os 6.7522180805858465 12.487459856060587 8.443246780917583
Os 13.751836263394695 10.56522123510308 9.19833345457016
Os 4.7545735456511835 7.0108936679436376 9.341330625747023
Os 12.247716390631442 12.3826817943475 9.642030678460188
Os 9.305650394144928 6.67693654426395 9.352244735733027
Os 7.79889971145606 8.833850570638184 9.879660884857778
Os 6.524749668413283 11.005158240743965 10.244617530362309
Os 12.256145224111119 8.925364120669895 10.123964306740538
Os 6.961323887780695 6.527478254270215 10.52658691557747
Os 10.615775789747575 10.849686102952909 10.481362871666601
Os 5.511497694838418 8.59836663268606 11.071010813369856
Os 11.54363695110441 6.45909607720649 10.537634399100574
Os 10.012614510934599 8.310187164643281 11.232529449724295
Os 8.54327234694679 10.50712251755674 11.720210971494927
Os 9.069613781421783 6.084191265336058 11.817861234986285
Os 7.688504419436757 8.265430771393294 12.379204852913569
Os 6.172244343290747 10.373525957791806 12.624888712599047
