30
Energy = -269.58270346 Dir = /p/work1/plile1/GA_structures/Os/30/all_candidates/1231/
Os 11.61011557630847 8.184344237764972 5.174464721189658
Os 11.015121100747184 6.100692471128683 6.137405009083291
Os 9.881633721382904 9.413381950048178 6.394189800245315
Os 12.404825600288968 8.951830480413967 7.236662554992243
Os 9.29621638814852 7.085324403727289 7.478534438152994
Os 7.80796093860419 9.118361488925057 7.832039601382498
Os 11.705863021775583 6.818104875943436 8.310978468433152
Os 9.29832859874648 11.310781070174743 8.063200995136814
Os 7.867694379356879 13.209179480669365 8.53003464306729
Os 5.583550462370694 9.036399276110721 8.92461591221596
Os 10.29331863535396 9.010613606285004 8.91105301278908
Os 14.088274287643717 9.977223790150477 8.56057288023678
Os 11.925431964007256 11.03933608875309 8.907768138035562
Os 7.24742351632129 6.859746613108439 8.831519733256645
Os 6.125001452678884 11.739183707482523 11.55313081990849
Os 9.247397506046974 10.715665700089147 10.643955833407501
Os 10.52316436703652 12.793512276369334 9.898694758700112
Os 6.804881634918375 11.052899546200038 9.365307535762215
Os 7.460714630996735 8.778942649314793 10.505834388274721
Os 8.030898411260912 13.096433610777368 10.906211394574042
Os 11.683687543462925 6.498438586536371 10.757674539541608
Os 9.369099219961203 6.976069341895373 10.197837825164225
Os 12.654182573947654 8.726128130814054 10.086665251197472
Os 9.860780448493324 14.14096277914653 11.928263430208332
Os 11.668531790094438 10.999718090087766 11.37622025080835
Os 7.739513717990558 10.28225691847203 12.576198309988488
Os 10.663927057964996 8.729509221907342 11.708238018722902
Os 8.51935493802748 7.85560022869803 12.60218804393622
Os 9.843611425627596 11.892542974416997 12.83605038802041
Os 9.841162263203117 9.668483577356929 13.82615647633559
