30
Energy = -271.95648368 Dir = /p/work1/plile1/GA_structures/Os/30/all_candidates/639/
Os 11.1522943641609 7.140353669980598 5.160768108667995
Os 9.819767158083339 9.220395782825298 5.102517932575034
Os 8.7137202066355 7.018531607308454 5.832629187718348
Os 8.500449609853693 11.31717525820735 4.913433313305693
Os 7.323480680518998 9.169065415080546 5.736224104654446
Os 6.290672538295423 7.000435152352965 6.664771779198312
Os 5.443142243719772 11.230665015886967 8.194458584564149
Os 11.624213174488203 8.940552486598168 6.978110668064431
Os 10.561468096869747 6.6974670236235605 7.576693498387756
Os 10.266800301442917 11.123415173225101 6.800534380958534
Os 6.43210553767285 8.973670043450902 8.213390461967862
Os 9.113778388351497 8.950170320370571 7.530130610770352
Os 8.083454520095472 6.609413508288507 8.367388715603358
Os 7.711048842251784 11.182253929988274 7.219361902164477
Os 11.909750138140774 10.546749217373026 8.906543157381211
Os 11.618371588986385 8.126772618786337 9.477875929611459
Os 9.519791057501038 10.970007253465255 9.285820573823475
Os 6.905206382048785 11.123487672070675 9.981846098005233
Os 9.120439290100087 8.390151043041692 10.14860215214564
Os 10.072389843610797 6.083598172545101 10.06129055160419
Os 12.173255755324355 9.881733003484882 11.29370083089021
Os 6.574904649465443 8.815581425861719 10.821812515818117
Os 5.7187651883630615 6.892797497043725 9.34157866898162
Os 7.67032553835082 6.445272921781042 10.907999618549358
Os 9.863115567345039 10.279137888237416 11.7309426943612
Os 10.85694422735 7.7131181441317365 11.860479433812444
Os 8.676433402931188 12.384140973580518 11.161611996705085
Os 8.416130984377594 8.201592489881872 12.575664344748132
Os 9.369973172819241 5.895853074297987 12.644498994062783
Os 7.411261050371997 10.589895716756676 12.422772690425587
