12
Energy = -794.0
Os -1.317068 -1.176081 -2.372102
Os -0.934715 -1.178714 0.00272
Os -1.305106 -1.174578 2.379523
Os 1.055401 -1.152867 -2.442479
Os 1.441428 -1.153928 -0.003379
Os 1.067668 -1.151619 2.437754
Os -1.319453 1.171557 -2.372776
Os -0.937412 1.17665 0.002112
Os -1.307725 1.173105 2.378982
Os 1.05308 1.153956 -2.443223
Os 1.438829 1.157364 -0.00417
Os 1.065072 1.155153 2.437039
