14
Energy = -792.0
Os -2.0146 -1.161405 -2.904413
Os -1.99889 1.167077 -2.913533
Os -1.710294 -1.113299 -0.421134
Os -1.694451 1.133437 -0.43012
Os -1.116984 -1.138834 2.136605
Os -1.100782 1.170919 2.127521
Os 0.239301 -1.181732 -2.091077
Os 0.255513 1.161618 -2.100754
Os 0.671444 -1.194597 0.456681
Os 0.688154 1.18857 0.447235
Os 1.265076 -1.15388 2.868136
Os 1.281124 1.158538 2.859508
Os 2.862483 -0.015238 1.191441
Os 2.372906 -0.021175 -1.226096
