20
Energy = -175.86585343 Dir = /p/work1/plile1/GA_structures/Os/20/all_candidates/4349/
Os 7.737827218853864 8.517373457112608 4.81226166912093
Os 7.815324038691558 10.681014136248672 5.492889191901941
Os 10.034921210673978 8.068940702027419 5.815316311859937
Os 10.122508864444415 10.315523094504448 6.4743333335881195
Os 5.752207613545428 8.071641440113211 6.255123586208482
Os 5.8222604116083705 10.27125417863213 6.967314945300986
Os 11.166688492523857 6.406709400730343 7.084120868112853
Os 7.983276712443298 7.699680725948804 7.135911049993369
Os 8.115277995683979 9.940749989377576 7.8940745446203175
Os 9.210769786933842 6.225232542189155 8.520065691305584
Os 11.142278280250034 7.713188035261717 9.178929336217498
Os 10.511276013446816 9.889285082929621 8.88984427798133
Os 6.719118867049657 6.435570798791547 9.247348135218207
Os 6.033743059147271 8.736047339760347 8.98483132158376
Os 8.947018788001266 7.271192123732893 10.748831399453854
Os 8.271873730707464 9.519455065783944 10.44294070789519
Os 11.067852243026234 8.011528259627442 11.592704136341357
Os 10.411446638172102 10.24400582504916 11.280097199434405
Os 6.74168801202362 6.704756466652529 11.567563342947295
Os 6.089366466594182 8.973575779346946 11.31222339473546
