25
Energy = -222.94181121 Dir = /p/work1/plile1/GA_structures/Os/25/all_candidates/2744/
Os 8.375423691605848 9.724732863633395 5.426155348366167
Os 9.75055725126068 7.561763591894813 5.644782612891239
Os 6.537258594488192 8.664433213769957 6.339049643119754
Os 7.898289568694845 6.525529974056803 6.5503451408615465
Os 8.807138265460189 11.627484057787223 7.035444936224968
Os 9.717762212633327 9.226061720438732 7.455212942555497
Os 11.054229664999655 7.133637192019403 7.866832173044484
Os 5.879784430801378 9.630270679394565 8.467693761836616
Os 7.309467090500661 11.817121675648321 8.819205346407964
Os 7.849943003159687 8.179189357554884 8.437167283078953
Os 10.131610530406798 13.429316232283885 7.9323135978431845
Os 9.214180585825403 6.060052686705406 8.667358975548016
Os 10.77554011570566 11.176269417805834 8.646436834985126
Os 8.641087858694288 13.54047162193526 9.72698986406958
Os 5.4966506841688085 10.999135590523245 10.33506650812072
Os 10.471198792279791 5.506999219075329 10.780339847980544
Os 12.299990307657929 6.65590201362517 10.011719925428379
Os 11.020149700425725 8.772515448214254 9.93244935274211
Os 9.08203391283199 7.631808243920981 10.682040018974066
Os 9.39776376317945 11.371173747780905 10.478109419870181
Os 7.5745357626020615 9.794353071147544 10.73459053245461
Os 10.313375941438567 7.024794138385039 12.784094878843234
Os 12.156600077188193 8.141689508320255 12.067851595402924
Os 10.87608351996335 10.270928481680127 12.08529599328802
Os 8.978297368034934 9.143318946406078 12.702406160068866
