25
Energy = -222.78469862 Dir = /p/work1/plile1/GA_structures/Os/25/all_candidates/1782/
Os 12.070424690681255 7.887123992069591 6.331896766722329
Os 7.778430743111089 8.792900243716417 7.418131683729011
Os 12.652223037395013 10.345350291144804 6.856040569670599
Os 9.649971933315237 7.128763696656847 6.727164354600746
Os 8.30048445524001 11.165991194128836 7.641398561911687
Os 10.373280738455394 9.478246762957596 7.127794716974343
Os 11.389037714626134 6.314675750553394 8.334392505261278
Os 10.625458499674114 11.91295582511349 7.816962075008041
Os 5.493552843050875 9.427860553247369 8.278374261083439
Os 6.13325773231564 11.61051041496667 8.592331151169008
Os 12.308921728938685 8.596603662973644 8.674163623627674
Os 12.755686976806787 11.297790907556626 9.061536206937216
Os 7.97885942602069 10.852918688189616 10.191322903000785
Os 9.617176807710935 7.879218089984206 9.123281753329511
Os 7.268907463877016 8.647620970828772 9.894925985373545
Os 13.9000947993103 9.640000703837922 10.33375838643954
Os 4.93005919917633 9.286728740782051 10.691130627262297
Os 10.532094739736177 10.3133090982402 9.7546728298716
Os 5.582626850626804 11.434199000158316 11.016753795384643
Os 6.626588983361148 8.487807227761225 12.363559706991927
Os 11.098794848588339 6.793965131511226 10.839815749436566
Os 8.969014358783436 7.870496578034507 11.668605156743169
Os 7.273277705037229 10.657243534707227 12.679942110904285
Os 11.90060613233755 8.954485200333004 11.353304427618896
Os 9.605926060183995 10.037992208905829 12.04349855930752
