20
Energy = -175.66032877 Dir = /p/work1/plile1/GA_structures/Os/20/all_candidates/3677/
Os 8.33085358948658 9.943051743872644 5.141272134594512
Os 8.523610374490833 7.782436351575429 6.318843685925478
Os 6.620541268634384 9.528791987858288 6.868940458112044
Os 8.356031835860858 11.163218100966011 7.573926010873715
Os 10.186451604217382 9.706747402125782 6.737141414904683
Os 8.82378544089978 5.637895996304514 7.533291695804908
Os 4.804287375678473 8.335574790260212 7.888884633350972
Os 12.410373987132077 9.420585809233073 7.6252538963477265
Os 6.7067086396503655 6.913990606060453 8.08481089694774
Os 10.85093065330175 7.399750857918103 7.5437584343270325
Os 8.406555186948479 8.882018582639626 8.632546291923619
Os 11.56353824267202 8.275561866437272 9.752579315321997
Os 9.622738594894853 6.645000129133538 9.603183036983594
Os 10.487500476655237 10.383357880854872 9.160029406752562
Os 7.5347597333128515 5.146867501791841 9.675210911884204
Os 6.131291052288337 9.436634191207332 9.619285312150852
Os 7.406470727065536 7.399719936855458 10.56596753861892
Os 8.191913996323207 10.962130457754673 10.180135730871982
Os 9.395468115210571 8.943738100574826 10.992104984663118
Os 7.023154772403339 9.469893373702732 11.879799876767255
