20
Energy = -177.45435201 Dir = /p/work1/plile1/GA_structures/Os/20/all_candidates/6017/
Os 9.73269364378642 11.104888056431822 7.25437932733018
Os 9.12209145145598 8.881102317082762 6.998282855515893
Os 11.570078200309505 8.171126683056315 7.487158373950316
Os 12.17308793062646 10.33947452736865 7.73121856335305
Os 7.975610914445833 11.364391116922302 9.104795469726234
Os 7.375535725352886 9.143516488377303 8.8536941421586
Os 13.825572436251916 7.428804036223763 8.098453074770186
Os 14.451517702210337 9.674321821726295 8.350597663216572
Os 9.905020806414012 8.37852690649988 9.337925784406275
Os 10.527666817595147 10.636025956730032 9.59009373902057
Os 5.768031829681796 11.889727599912625 9.853724085016438
Os 12.233384104913844 7.710531430331498 9.950256911853149
Os 5.160369309145752 9.639113977786959 9.600789881905719
Os 12.834115532348859 9.879915723335357 10.191815524026964
Os 11.006394194241668 10.219751585152432 12.016651283706471
Os 10.399088847059685 7.995534567563772 11.773337439362768
Os 8.604943061729678 10.931074175719639 11.456361168416322
Os 8.004684094988955 8.71015580677234 11.207730308904981
Os 6.369651002477758 11.476753562077967 12.097879583278576
Os 5.761269235476674 9.22607050144091 11.845661660593723
