20
Energy = -177.28330378 Dir = /p/work1/plile1/GA_structures/Os/20/all_candidates/4673/
Os 7.857848416237447 9.687677029144925 5.812448030958308
Os 11.683312286773297 7.979303781117038 6.997808855979743
Os 10.28411869213775 10.04681630535052 6.883954279129737
Os 6.7693634011483885 7.581399885154048 6.076893669062576
Os 10.502628326593983 5.690982117611149 7.29107788121511
Os 9.240120759947194 7.7860571896962005 7.112540032811605
Os 5.989081750442948 10.74225412470164 7.097124872988215
Os 8.008425499648663 5.636135350784873 7.447392047347858
Os 4.961037990107851 8.745710424107171 7.350244786828118
Os 7.9939905888705844 9.984394528058635 8.291115946562998
Os 6.861384185657482 7.790068385535404 8.569102281919903
Os 6.2111410730472265 10.95081632510227 9.672075038862616
Os 5.181518180509917 8.956905349544908 9.925548731980962
Os 10.489552046863862 10.243467099775105 9.254247530521495
Os 8.212552030443325 5.8315363784008225 9.817196922472117
Os 9.455848496956214 7.990051477948588 9.582037497457426
Os 11.878914289752059 8.16336806346549 9.240203157176957
Os 10.69851392074045 5.875066355587388 9.532666318983367
Os 8.285373222653545 10.093729358569183 10.771275696856765
Os 7.198809027718441 7.987794656594643 11.038580607134762
