25
Energy = -223.37510586 Dir = /p/work1/plile1/GA_structures/Os/25/all_candidates/1300/
Os 8.324460998976221 9.609873653381067 5.5022088102139834
Os 10.53698419576632 9.061614025455977 5.439196607310117
Os 7.823461358555709 7.275552562971529 6.535813530149535
Os 10.028677115698253 6.743960481278253 6.476901309578992
Os 8.87869437851799 11.659531467936956 7.028129513154505
Os 11.070037821912218 11.14558320898953 6.847773291870019
Os 8.298505993746481 9.343569142300941 7.923190342759569
Os 10.564050938027266 8.780280342704929 7.853505940532669
Os 7.828615137395741 7.101338872939861 9.029049502967663
Os 10.070364114893405 6.660455658529529 9.058619206001435
Os 9.454344911759074 13.510361905014422 8.99660497314049
Os 11.668286538002588 12.95888578163038 8.767078544264029
Os 9.64406612589962 11.439003986165043 13.96317719543314
Os 11.816814813009861 10.869928466796752 13.609457011997035
Os 9.04478498717442 8.900694000421598 14.11928046948114
Os 11.210926575283128 8.354273208276027 13.770440830949612
Os 9.584417723932459 12.675446549787248 11.628088196287852
Os 11.762718428298822 12.159604288683774 11.35529382886434
Os 8.962625869469086 10.222785482209655 11.969146986242011
Os 11.19230599298214 9.630761992747308 11.607293686975158
Os 8.407266231397559 7.733133186093243 12.002227876974972
Os 10.57147222130318 7.234723904585243 11.496614391615726
Os 8.911667089885867 11.26433687034162 9.572714943667082
Os 11.176668940308561 10.694310940656466 9.34712376430157
Os 7.358889156646958 9.161097678945016 10.292176904110015
