25
Energy = -222.22750948 Dir = /p/work1/plile1/GA_structures/Os/25/all_candidates/2769/
Os 10.051920989436457 11.879205898305848 6.141087789528302
Os 9.59098924398139 5.517419582865944 7.812673377219504
Os 12.035854574743977 11.569291951155275 7.295873725030942
Os 9.280136396552574 7.704272040873102 6.417655007215501
Os 9.116563486655881 9.974267809993389 7.2900383138633265
Os 7.422414754854821 5.977411500813404 6.951109756291216
Os 11.425006750785478 9.306232099603763 6.148597024437307
Os 8.829030761600427 12.37783137424159 8.257026999868248
Os 11.089751281276769 9.739638128625852 8.67419807827885
Os 11.87397310990924 5.032346142100203 7.317537666003893
Os 7.425551918332511 8.11174030272979 8.2996159392834
Os 11.530595883789433 7.303295025212626 7.4008950369957285
Os 8.590734743279334 7.71388537889262 11.516019231359342
Os 10.712568817867036 12.059368226832241 9.505091592348057
Os 7.680126582229513 10.43530340173286 9.44814137162355
Os 9.569405643665032 7.603589221583615 9.209532518007734
Os 6.522507835235571 6.098725074047998 9.341338207825558
Os 7.377616891863842 12.696338912228635 10.335421710115849
Os 9.666734324927509 10.1153279333245 10.756954066386388
Os 6.560667391777444 8.36193958905601 10.647649947140579
Os 8.581268559927818 5.578092761282213 10.180184155035038
Os 9.262690784159266 12.48354389205917 11.633292406979995
Os 6.29895887559481 10.720062498341113 11.578152039450794
Os 9.62536638724553 9.053779313555498 13.139245428986131
Os 8.131064370241456 10.838592300474959 12.95416897065786
