25
Energy = -223.84415466 Dir = /p/work1/plile1/GA_structures/Os/25/all_candidates/1186/
Os 9.698302097345147 10.189427386059712 5.0936974434847
Os 7.646703000506647 10.549709368464711 6.498099759584951
Os 8.377201141492172 8.167364089798863 5.896879460156365
Os 10.75853756042292 8.645166495092829 6.786450439179653
Os 10.068173660334676 11.043823969196271 7.411464832358538
Os 9.486245487695863 6.57453733529667 7.6230576731767625
Os 7.089460818117268 6.1916559337157375 6.829117362618203
Os 5.6458306461008005 10.92955928150566 7.978197052691643
Os 6.260770843919778 8.569536486048586 7.275489859096817
Os 8.76275747925877 8.981350716761309 8.336234365103408
Os 7.87810655570035 11.329915207816429 8.974142974539566
Os 11.839463324429616 7.1018758717987955 8.510083790259904
Os 7.263600972759438 6.927333606213226 9.138656958928339
Os 11.136934652707655 9.40654075566608 9.284164350562031
Os 6.4327933174232435 9.345814556833151 9.704117479941988
Os 9.864736764869257 7.256717908371168 10.03003406168012
Os 5.81146373353467 7.559625365256407 11.112637529515746
Os 9.342780615595755 12.05333799798134 10.813024893738607
Os 12.328411570874401 10.46743133963569 11.195141308703482
Os 11.229532339802574 11.90845783102358 9.455021578913136
Os 8.852162496237302 9.541628129206924 10.911385783115938
Os 12.143000158633045 7.986584783923432 11.056309676698618
Os 8.075865720685904 7.155553299232964 11.698707882668053
Os 10.46257801429768 10.61375457871546 12.518533077197873
Os 10.204173982677561 8.16288466180691 12.528937361507273
