25
Energy = -222.49435953 Dir = /p/work1/plile1/GA_structures/Os/25/all_candidates/2471/
Os 10.964138191898808 12.390623069103793 6.0780184476525205
Os 10.609965685108412 9.842589584039176 6.175156928968844
Os 8.373155506468791 10.168372832191018 6.421620039171077
Os 8.715986525595143 12.703739820096132 6.320451417472774
Os 10.269771638362444 7.410385116441844 6.287754106776189
Os 7.986433314840588 7.76797126480593 6.550607775373236
Os 11.074012609650604 11.189151654658126 8.315960021044624
Os 11.362148979603333 13.733429585896511 8.142244489057115
Os 10.752989319465861 8.501402778759221 8.381308963308873
Os 8.772031460761726 11.484601049798425 8.587322188339714
Os 8.394434996769107 8.919867523309254 8.687923094211344
Os 9.109630351030061 14.009256720383359 8.416209775327896
Os 11.500619440089395 12.644324874319334 10.388727589764438
Os 8.96677475737285 5.046964239145712 11.420610251356532
Os 9.528304092374668 6.966466855375498 10.207888897999037
Os 6.81023619914417 5.903754716117147 11.85251476278305
Os 9.24688422655869 12.890114917343682 10.653648079072301
Os 12.027481584290493 7.9493528827026285 10.420522024291577
Os 7.293465725299708 7.895406538080282 10.692049582195494
Os 11.321599679157616 10.240416006808523 10.727422849257536
Os 8.999544559697766 10.403560671420673 10.908470816068007
Os 10.295171139650897 7.9766039404320574 12.218189118331678
Os 9.751184919165407 6.030871344962549 13.41151609453783
Os 8.094626099986524 8.898525035298377 12.704090268929866
Os 7.602880568826337 6.855718549680273 13.853243989878138
