25
Energy = -222.42281345 Dir = /p/work1/plile1/GA_structures/Os/25/all_candidates/2920/
Os 8.62260655484913 10.403355708197697 5.6406491161944965
Os 6.493865183041752 10.64213458972468 7.069032540795286
Os 8.421510269193694 8.128184210168502 5.6959015724297055
Os 6.301891548454401 8.363713205709201 7.135874255912034
Os 10.904745909243966 10.346330110307505 6.782061252676891
Os 12.860522418880835 9.01969046923806 7.929980141280785
Os 11.207807278047417 10.341613179328009 9.339532788101973
Os 8.78797010435165 10.522993418058553 8.182313753253059
Os 8.542815178021424 8.204304086088523 8.220196223473517
Os 10.680648813028297 8.005711491604238 6.836574826235846
Os 10.984416124955043 7.966100386497837 9.330941435857486
Os 6.681211258502676 11.640038389825904 4.931508768073562
Os 13.631778662292408 11.058542867840657 12.247573771834928
Os 6.501351932560971 8.500494645231965 9.727745799861847
Os 8.794766159984336 8.238366125663518 10.838569768506597
Os 9.02724135067691 10.53798707677595 10.809531890894236
Os 6.738876133925892 10.761116926319657 9.702200356701514
Os 13.08607442368048 7.590298447722545 10.52881428444081
Os 13.493225818227186 9.865070003835896 10.272350949394786
Os 6.730976175861529 8.470693244133175 12.266078203094875
Os 11.132354511997884 7.9966347458100415 11.964726701242604
Os 11.396948501831664 10.311319940343814 11.949666018769237
Os 7.004568827691653 10.744164274871721 12.275554917802873
Os 9.03154122771489 8.21209729550831 13.34404764323136
Os 9.29314529929115 10.481904827501948 13.331432686248165
