10
Energy = -80.60683395 eV
Os 9.192307477331296 7.932841158932968 9.432203287194064
Os 7.768649925934573 6.125510708600961 8.760989730798164
Os 7.094675637014933 7.528980324716791 10.760680623210463
Os 9.519362205426644 7.103807967283404 7.045080790502401
Os 5.9431589070923625 7.658708048175499 8.476833545949003
Os 6.92164255957518 9.174824099017117 6.639688906902627
Os 7.242735483148817 6.827555999789522 6.385591276787548
Os 7.368034253245469 9.467188479130629 9.15095921178461
Os 8.724693274761917 8.402786114480982 5.026554424205652
Os 9.18676196603142 9.445321898145473 7.325838849214559
