12
Energy = -98.82028132 eV
Os 6.569170132659296 7.7544178647275706 7.74997139130078
Os 8.84281564875282 7.433628716264985 8.88921089157845
Os 7.864294963921712 7.945082954895731 11.284252054590048
Os 8.601429794826808 7.66039756567395 6.3998526819313515
Os 11.417854352451057 7.850073204096047 8.608353199127459
Os 10.241737003792613 7.903925353179344 10.766813299422171
Os 7.334685661999398 9.83065358476577 6.738486505144105
Os 9.204569406044667 11.640330755879662 9.198724893693171
Os 7.599937390658664 9.572711006462237 9.227862756646319
Os 9.620812041608286 9.525481261293473 7.733505344902892
Os 11.03225181199154 10.060003560224338 9.572342892755906
Os 8.956303791293514 10.109156172537654 11.116486088907362
