11
Energy = -88.80948344 eV
Os 9.309326751970497 9.630164104576627 10.247402587835461
Os 7.886168914915423 7.650723141376663 10.897625409407226
Os 6.823288120708761 9.77174419954987 9.78988466329846
Os 10.089073915663352 7.225134301195976 10.1512015621083
Os 10.914415487654447 9.001683781961507 8.4046080234787
Os 8.514588038995566 9.589848052221477 7.940004999033465
Os 6.068869304910328 9.420962317332895 7.32235794616973
Os 7.009742158302167 7.55074402514755 8.704974029891412
Os 9.90469392375856 8.702057994750179 6.022645754546437
Os 9.41700496116649 7.0947913724347105 7.8909050823684534
Os 7.61946577794196 7.903734579360878 6.227608387768428
