14
Energy = -115.21965763 eV
Os 16.82399720653972 10.408701623935416 10.71238927673027
Os 11.16073015393218 12.08930233832391 13.804391232381237
Os 14.667256456242354 10.753437185759067 11.039499714016777
Os 12.824744198574612 10.170723889416962 12.644696762358347
Os 13.319265824733272 12.541858298307023 12.350702894480868
Os 11.990695815828941 14.340964231193494 13.388880761420104
Os 10.47164577791812 10.558649158698207 11.785328861147738
Os 9.392241930316239 13.672931792127743 13.118748642587548
Os 12.9121124077559 12.237748133871653 9.888956240367163
Os 8.905324860885772 11.229138396017287 13.583878314584508
Os 12.368361178553776 9.92063748765397 10.223992007419978
Os 10.458850131391388 11.508339699931753 9.45669035214812
Os 11.030740924627807 13.005727015663657 11.359038007582619
Os 8.667123386305143 12.205435462998103 11.199770771001099
