14
Energy = -117.48910477 eV
Os 12.49426101766098 9.714636721375824 9.246020604373824
Os 11.713036686702631 11.995015737423792 8.881805000716449
Os 9.410966006467579 11.577479115476846 8.492764610391975
Os 9.354278255825147 9.406513027977462 10.892367731550712
Os 10.073285117854837 9.16465911365569 8.499802003841774
Os 11.830880015054177 9.79269330694467 11.449470222798508
Os 10.413964350355148 11.729591220496243 10.909299548922744
Os 11.724960133194804 7.444024054063515 9.055641221696046
Os 8.236980141730204 11.548784910111552 11.743418234728734
Os 7.855421778438774 9.905393500537564 7.698756536586428
Os 7.124191339326976 11.32073876109292 9.7009652545197
Os 10.898611679287587 7.458912627967178 11.239442297574005
Os 8.923903288792328 7.326570328643207 9.66502777119879
Os 7.081155865556552 8.907150428029274 9.827660530805028
