13
Energy = -108.58623794 eV
Os 8.04799885952901 11.542434151741679 9.64172141446341
Os 8.270831162431016 8.998772722867287 9.801314867027891
Os 10.53107920293237 7.9472380687426165 9.00568016764506
Os 7.139391895142217 7.515815164874074 8.051410046014984
Os 9.979120882332804 7.9769777920270615 11.408047475177952
Os 9.672398547622404 10.444299725692524 11.378538259978326
Os 8.90242186342943 9.047037512339035 7.262611506272666
Os 8.75236883317689 11.535589452190978 7.202362352836522
Os 8.680212938334957 6.475684171699627 9.701220454811203
Os 10.205836839226333 10.553827356774265 8.974646794693525
Os 6.812600086337685 10.114288396069885 8.019437216921066
Os 9.372386535324672 6.600833536665239 7.258225003351056
Os 11.839316854180328 9.453166448315605 10.500748936021976
