13
Energy = -106.41662954 eV
Os 11.433503921659048 9.295396780253476 9.842483844213906
Os 11.749645221959998 8.33035576271155 7.60104231725072
Os 10.397995866243095 8.415070122083021 11.866998296223949
Os 10.244338358081071 10.011758247452498 6.851798165524176
Os 10.344136643434641 7.125003722346439 9.526274235348597
Os 9.27485687026496 10.128774787507249 9.149847103501294
Os 8.720829439483442 10.067352170147721 11.5691794142074
Os 8.254328906598035 7.923803207405409 10.461807523783147
Os 7.618297544993392 9.886413055882286 7.3023473971088935
Os 9.178370579648234 7.880054725406182 7.5545238733001865
Os 6.890832099120193 7.654126334469568 8.423061055821778
Os 7.568048512522427 11.910456026771902 8.605620907520041
Os 6.852321050187994 9.893883490165623 9.724416023562412
