14
Energy = -116.78624921 eV
Os 9.110249540044892 9.166877416111449 12.875673727177775
Os 13.190509551455895 11.877056372066892 11.030650003155259
Os 9.42924444538586 8.676869882636211 9.565639474797996
Os 11.141683234689845 12.361475308311304 8.252333637122149
Os 13.379305023494647 11.398666149460693 8.619310731514853
Os 12.858221702432996 13.687319182277452 9.409343213225958
Os 11.23515575702068 10.674247595370666 12.274713920133284
Os 11.475234665026722 10.328771406765068 9.814583797111789
Os 10.896156873702628 12.686561322836006 10.683291990674782
Os 7.709046553836756 9.515782594572416 10.968417098743698
Os 8.647667979586972 7.1414973175057375 11.341563603700799
Os 8.922625637505858 11.517295770440475 11.970015650743669
Os 9.146920211162826 11.190399097213474 9.542578033655092
Os 10.82986937781027 8.336734916335148 11.47891550018286
