15
Energy = -127.32038167 eV
Os 12.220260994926097 10.626675090484731 8.026728657296252
Os 11.601491777012019 10.625818185961311 10.33692363555779
Os 9.91641440031439 11.051189545788466 7.553771234136794
Os 10.73534779633138 8.621137889602787 7.862693614008522
Os 7.622539939585733 10.769387674680724 6.804347386571486
Os 11.033422443871654 9.334735875343384 12.299155148943866
Os 9.30770264608778 11.058971054183724 9.827155410926116
Os 9.363210613562494 6.75335977062923 7.413121427481685
Os 10.577524493652652 8.247103404403555 10.14540454351722
Os 8.722502148497997 9.856645395075438 11.768116428833734
Os 8.13365975166572 8.743794641941856 8.088459755653568
Os 7.0293414978512185 10.850898917320283 9.142744061723947
Os 9.448718210278564 6.128745742199237 9.696193422865603
Os 6.43127641011121 9.648552387071573 11.121206724348493
Os 7.993287632173562 7.900188706636185 10.246982971150963
