10
Energy = -80.82633319 eV
Os 8.743927534637322 7.870457052855415 10.020781723074748
Os 9.776488666945562 7.973173853364628 7.874043270784149
Os 7.338722408178879 8.610330988205664 7.960783237656942
Os 11.245117914287418 7.499326538639906 9.870791997063668
Os 6.355079436238836 8.561661095579128 10.192479383985672
Os 8.097143398445168 10.279337951099862 9.813295899032193
Os 10.279977842056875 9.649561784439689 10.773015067903346
Os 9.128878733921015 10.352965854986104 7.6649737574118815
Os 11.32409784130435 9.756097017263345 8.687096584401338
Os 10.068572558092233 11.82226219093071 9.497295192538596
