13
Energy = -106.27486101 eV
Os 8.109157539536799 11.399233320383756 8.402120239435506
Os 6.784217983794933 9.221149223704266 8.897965324365876
Os 7.310490985236694 9.9976018026321 11.1136754359026
Os 9.905780898017861 11.353621781592892 6.798186397810033
Os 9.207748245805465 9.499084868762674 9.594591081227973
Os 11.208080892868633 10.238652863386001 8.403236386781103
Os 7.656349013822385 9.736425819131556 6.711003556063978
Os 7.673635607609962 7.62169786332469 10.673355099184933
Os 9.997815385155201 8.194542932565552 11.528814138148464
Os 8.768826036467498 7.179631781018266 8.412994466487259
Os 9.844044150424285 8.76883995430733 6.856685289288399
Os 9.51906829307938 6.046527100869985 10.442118008755266
Os 11.017695531679456 7.764892175468747 9.188658785265952
