15
Energy = -124.4686874 eV
Os 9.283191460512628 7.428115705881346 9.177203156246504
Os 10.102651987764679 10.35383523151213 6.229212958353778
Os 7.149815148662188 8.643534396806537 8.238048994038444
Os 9.464342960855724 7.491894710228626 11.694154512860813
Os 11.846818737763561 10.721319396450719 8.342608685176064
Os 10.114691509618968 12.272396538975583 7.841834051939246
Os 9.928668766601472 9.83412825136715 12.284442494593808
Os 7.701705956867733 8.978470527870286 12.917560110348244
Os 7.387344662895442 8.175782379165643 10.626098380578254
Os 8.80037115508959 8.342224332363102 6.463979325622185
Os 11.03833891842174 8.980545020604403 10.154012842570054
Os 8.100081068211882 10.525517943592774 10.918885384088092
Os 10.970451825740579 8.43715336773728 7.61808156562356
Os 9.215569069220667 10.018664855776834 8.599829464100834
Os 10.427185354937173 11.397823984274666 10.362248235223458
