13
Energy = -107.35768173 eV
Os 10.890121946260981 9.1097448918856 12.042842724509983
Os 11.026519646767332 10.279059155138125 8.36396020679325
Os 10.18782313066043 8.488626271151693 9.711413681570555
Os 9.261723018080817 10.086722256016163 6.606332722996338
Os 9.954747450713075 10.875435763295469 10.711404450124267
Os 10.700100785610973 8.007598865591504 7.324405438139337
Os 9.194804887918789 6.325630380198242 8.932153086495104
Os 8.941767557697618 11.676802250222885 8.558247205587941
Os 7.38285829295704 7.154739730881903 10.25127209894322
Os 8.53403423276492 8.592935709200622 11.694357764152723
Os 8.256980921841665 8.31098209934181 7.846132657073771
Os 7.843971843896464 9.911411513198662 9.74056819114607
Os 6.972643006038212 10.483278905040798 7.439436848673489
