10
Energy = -78.27464745 eV
Os 7.653291335932229 7.975256519666393 8.60887247777809
Os 10.105751946468972 8.216009592510012 8.891830125507065
Os 8.776123476796913 10.337270531975227 8.388866370937361
Os 11.154141198701103 10.325652828284184 7.733650863671545
Os 10.266871982963469 12.419798390855654 8.662064206622041
Os 8.750307689391933 6.623027579411026 10.363064661344959
Os 10.581222240480555 7.991131118850321 11.313480602396734
Os 8.493954743972516 9.15022682787281 10.631141068407645
Os 10.693295285240966 10.358181025627019 10.154489864376373
Os 8.677640100051347 11.756045511399716 10.405139722184169
