12
Energy = -95.91898543 eV
Os 9.095381205191265 10.286934225751713 11.043492712941072
Os 11.210758445328906 9.360334863461809 9.93130932426205
Os 10.131665009924749 8.088697205093473 11.88358919048602
Os 9.367300792924885 10.492410997973277 8.427350017078389
Os 7.613549953799445 8.529965745879615 11.719523800769318
Os 7.093932089178816 9.962629696358267 9.39602767046315
Os 8.962764388876629 8.077468460285345 9.675393679295583
Os 7.317159755395484 10.955219297830382 7.057082667802876
Os 11.187861040974834 6.966656132454445 9.836454286028607
Os 10.563880130444877 8.43977659368124 7.572856777198443
Os 8.013822354462754 8.632198384902429 7.407404247335842
Os 9.40025682453239 10.042033141865582 5.963452869839098
