11
Energy = -88.37697987 eV
Os 11.23577594032161 8.53867307576865 7.920978945797471
Os 10.830321560663842 9.38230093744079 10.215819056804664
Os 10.274199951983933 11.039059650943337 8.482720004254963
Os 7.927939621749555 11.581895610689035 7.936890515236598
Os 10.884989108206439 6.901555297611933 10.080744084406888
Os 9.199804863108888 9.488237021964196 6.970812241537986
Os 8.958076650295782 8.012682845575972 8.900451137992732
Os 9.176287567028693 8.005359226191583 11.444387000867964
Os 6.945440339187505 9.412623895178427 8.294760634449695
Os 6.939848624597748 8.1584923701102 10.483488510977782
Os 8.440155181095541 10.257290595219029 10.087522100606233
