14
Energy = -116.42342873 eV
Os 7.070526145516841 8.799339551386486 6.992675144484531
Os 7.845121093159568 10.734380063973767 5.870930221349534
Os 7.874561306347456 8.504899794320533 9.340216357409156
Os 7.594312867411899 10.781613487949075 8.543696250385517
Os 8.799089617653744 8.094121031052383 11.806587420437044
Os 7.836783792142903 10.34636197960138 11.061407852065356
Os 9.454944245627381 8.147000425124745 7.449993104316519
Os 9.727199720608883 10.608698540361074 7.2419435474725775
Os 10.267737775923823 7.93916998401253 9.857360644696634
Os 9.933984806466 10.470470083478398 9.833296921480311
Os 11.291837549428308 7.92633828570193 12.239584816243402
Os 10.080332835999156 10.15309671246577 12.33559221514869
Os 12.065062928879566 9.589765493806267 10.720940382556751
Os 11.63018831483463 9.376427566765688 8.17745812195436
