15
Energy = -126.56499997 eV
Os 8.823965297443362 11.905540339589756 10.26533842404602
Os 8.74487976201761 6.75842615483238 10.263763752273041
Os 8.660487361274365 9.251195425685868 10.310805956383811
Os 10.779707148493031 7.979454059424399 9.529005741729046
Os 10.851501918516268 10.626077719034035 9.463854515919653
Os 7.319944319315391 8.018252670854704 8.612841410620629
Os 7.363618344604605 10.656725754755591 8.66148653310365
Os 10.245992611848326 8.145307838526708 11.98369684211419
Os 10.251306172563119 10.688028794652556 11.958067821000206
Os 9.290411001968902 9.315626596423401 7.801553553078792
Os 9.44956529597705 11.82945337695758 7.774498795238994
Os 9.412522138792184 6.823329491161554 7.82719811757377
Os 12.259525056363445 9.280552208397525 11.108713360130832
Os 12.136978741179137 11.952293909568562 11.219937605869472
Os 10.788737320075244 13.148878164919514 9.598380070917338
