11
Energy = -91.6777944 eV
Os 8.736285690602008 10.64548219400687 8.57968963123297
Os 6.603347470947349 10.410983913390801 9.792412541655327
Os 10.883142048840929 10.327298267233173 9.788193659308034
Os 6.567656715931411 8.122478963650613 9.249001800804846
Os 10.847673632089135 8.07524813800494 9.250600505038033
Os 8.700684622576677 8.39928747784035 8.044465110724783
Os 8.664679555461607 7.815396976201806 10.458068299712835
Os 8.69992027941993 10.079194129980658 10.997255732824279
Os 10.704017300742565 8.667114010459299 11.782291926758024
Os 10.890203553733329 10.910760890609701 7.417369568038715
Os 10.853344750495724 8.62401884354826 6.871653011923634
