15
Energy = -126.0874561 eV
Os 12.89723964260084 8.380068056823239 10.386120136758711
Os 11.444875753189626 9.381523932751609 11.96451865432488
Os 10.197123476302274 10.558697786593445 10.277819223746018
Os 8.296242234684632 10.22194049146793 11.954119147901586
Os 11.69900757268607 9.352761043997205 8.556498200097314
Os 11.218366310668765 11.652098283917898 8.283644578083607
Os 9.63501821187251 8.143698217586964 11.009859695538513
Os 11.167568548340745 7.012285788515055 9.487856899318171
Os 7.7871990824370405 11.00126920781439 9.726965490963773
Os 9.217981913381697 10.566511846292416 7.655968139179836
Os 7.36980896929825 8.62925006155024 10.18560146646951
Os 9.17723302172295 8.058423538024147 8.482718797527854
Os 7.128332270075741 11.671569581012612 7.303866473898854
Os 6.8037751511867945 9.409377654758037 7.868818572873907
Os 7.115787574068799 7.078945593732305 8.004802550012405
