11
Energy = -88.58566083 eV
Os 8.330709656986508 9.347319095070398 10.723855109493527
Os 8.332673718994887 9.34139001250702 8.240871520413297
Os 7.261948243243422 11.199365386447376 9.477074740745223
Os 10.141888708653733 7.995139174778766 9.487025277714464
Os 9.772818339053316 11.081573844709398 9.479349769035421
Os 6.055959374060431 9.07465103704273 9.48122850379961
Os 7.7276647721577225 7.290194843902559 9.486781095590949
Os 10.961664827361712 9.663703910209888 11.149552879993928
Os 10.96435091772695 9.655740319712345 7.8178713022980455
Os 12.526027159382863 8.626750902332038 9.487450472158484
Os 12.236799378734377 11.036676473287498 9.481444425112844
