15
Energy = -129.97580736 eV
Os 11.577346752811946 7.674418769500295 9.203536743208225
Os 8.648441346960459 11.51643040069247 8.139421690742228
Os 10.596872573864532 8.851371871000868 7.191736241133103
Os 7.645769872172451 7.713689279703115 11.1451100647085
Os 8.143082953583345 9.474695830895321 7.162893188733782
Os 11.10114408885847 10.903931300974623 8.176685538847762
Os 9.121396966158729 8.265646307577619 9.169409640690347
Os 12.071052256450201 9.687673623479744 10.172045931825155
Os 8.136377873213819 9.717272286797968 12.105585939076004
Os 6.6745152204682325 8.912625179045364 9.141034519273923
Os 10.119689749653825 7.090210494475712 11.175476137812275
Os 9.626824174671981 10.318116490547204 10.154725071297353
Os 9.856413684202419 10.956873240302345 5.922436272165629
Os 7.171905612116343 10.922796871497441 10.101873463783075
Os 10.609494374813213 9.094575553509907 12.138357056702782
