11
Energy = -87.66480675 eV
Os 8.52201091321261 12.390500096675742 12.673980166080874
Os 11.010377972372853 12.990808110250894 9.586280621330829
Os 10.551807276693184 10.693609341438036 13.035769980518896
Os 10.826300008791973 13.028131372422264 12.065826681405767
Os 14.153365557537143 9.834176830287442 11.056017069204804
Os 12.778019769392388 9.228444385428176 12.921013988657942
Os 11.593637155120302 9.887377551449985 10.85943437400332
Os 12.792078130270347 11.61638079224839 12.250273527579434
Os 8.772453213356929 13.671379878159566 10.666219782488408
Os 12.915336856712596 11.675650775067501 9.744852293283358
Os 9.599849553224596 11.265395751914653 10.741667444077555
