15
Energy = -125.1504199 eV
Os 8.964500595504068 9.379213931802926 11.970249190702937
Os 11.419999911093692 9.677219046178202 11.943327917118268
Os 7.878540087372248 7.168018048913152 11.395140076197901
Os 10.357676704511931 7.603975321611387 11.102126347235032
Os 7.446042348264058 9.232262125134563 10.009135076044519
Os 8.908431658723314 7.370332291004839 9.094925043133221
Os 11.334140626361178 9.108419777401776 9.368565954807591
Os 8.463929457705213 10.926471055858725 8.411109262657849
Os 11.903213960157904 11.441494254730372 9.069206224032087
Os 9.861184048570893 10.999211044473011 10.296010992439355
Os 10.585853943132268 11.36669794246975 7.1574422604503924
Os 8.576637245897425 10.404829402821145 5.937101882587501
Os 7.444832044950806 8.77730048148302 7.417915459981529
Os 10.01060036497194 8.952145232004986 7.434183960477114
Os 6.4729219363719865 7.2209150441121395 9.022065285724068
