10
Energy = -77.49107365 eV
Os 7.658687208377085 8.861218166536215 10.553453305357559
Os 8.894053702985417 10.798020835278715 10.470738996688874
Os 8.903826991207207 13.06180343552986 10.059085854976862
Os 10.794034246662735 11.755182976083539 9.036948475622852
Os 9.981147062876275 9.010324468132328 11.81735584702498
Os 11.864684998534758 9.938589937301769 10.49903193780595
Os 13.067346422630663 11.86743622050643 10.0996029634754
Os 11.166345450950436 13.112944110764573 10.914259638259237
Os 9.652931325052883 7.818977533659111 9.82793416853348
Os 11.886167518296936 7.644727171356381 10.59081388468027
