13
Energy = -106.94520038 eV
Os 10.955596926620977 10.589476224467443 8.901902960838626
Os 9.790417906949482 10.158331840068735 11.885313396820711
Os 12.192470619517168 10.326210414557062 12.859441683969505
Os 11.667510543003829 12.932221673200152 9.407280062362886
Os 10.407868851279588 10.285060892854766 14.389591112587867
Os 13.093378820506784 11.397639022901608 7.889653609208613
Os 11.621554545897697 8.968559744717279 10.843139675009892
Os 11.197657658136078 12.35993092385661 11.82871703939791
Os 9.460611839360686 12.205346449549415 13.435422094837977
Os 12.954488670754822 9.086285934458123 8.74871011783102
Os 7.757414107409589 11.595134560171786 11.841016674852257
Os 9.399417631299622 12.03423460034415 10.148681602435882
Os 12.948739209459585 11.034320671680833 10.351898154009776
