12
Energy = -99.39867719 eV
Os 11.5177377595546 10.920460994110204 9.422205791127293
Os 11.505502208207744 8.435149379946782 8.913135536154243
Os 9.452590164948443 9.867080406953939 8.539901930263987
Os 9.832916683336144 12.312759879257852 8.160412716603643
Os 8.08603987768171 11.561590462457684 9.829751091177274
Os 8.715824468858285 9.32804214379984 10.838849347213548
Os 9.265205924236694 7.431722751990597 9.244868711045337
Os 12.895273782554233 9.326390931317658 10.789443103099613
Os 10.062633296398408 12.58845799375902 10.637496157400275
Os 8.572646400888862 11.412582434618885 12.280791047130863
Os 10.826519919332853 7.941528184401486 11.13061082103302
Os 10.777813883961233 10.384938807345137 11.723238117709856
