12
Energy = -98.7428001 eV
Os 9.219282568406667 9.969090925737468 8.481781101591713
Os 11.497401653202695 12.64987341693523 14.204518979353063
Os 12.309125385787897 12.016431368464398 10.832681511841225
Os 13.17389699994318 13.51782014178603 12.603703415917881
Os 11.636900660590287 10.588813543471867 8.803643536903113
Os 9.450178120387413 9.47715576579855 10.95194929332225
Os 11.930705366168281 9.49150857016186 11.01871216889421
Os 10.770388893679833 8.25601072184543 9.174087688017199
Os 13.001274479783593 11.053740983926415 12.991299762099562
Os 9.869272983483276 11.769333673939212 10.097452297735712
Os 10.584180598445489 11.116120697180408 12.465291628462637
Os 10.751196307251876 13.537764418926372 11.982701364009236
