15
Energy = -126.42127459 eV
Os 10.295563033144498 8.734582869913925 6.706068190270211
Os 8.453638335440848 8.117714358116677 5.131474976975402
Os 10.559851244792936 6.769020038344289 5.16107335558312
Os 7.828347165751645 9.138972222186744 7.31879036075601
Os 8.378810023796447 5.94803455001938 6.072382454721312
Os 10.22010696624216 6.575821007689275 7.640611236645341
Os 6.276911908052738 7.452423230736536 6.405307525762194
Os 5.716428768733558 9.669895441806304 8.490078168673408
Os 5.642238945708539 7.509165540591289 9.43004470435279
Os 7.7531801696623 6.896737801984064 8.29558350265856
Os 9.56630139097528 8.58443150434274 9.245049159848673
Os 8.059792958930377 10.547152495103052 9.363874988693668
Os 7.956171826609806 7.4210473423772845 10.72371040782531
Os 6.6152231242967074 9.379189175687841 10.8482705144233
Os 9.00895492429635 9.58733320753493 11.499201239244572
