12
Energy = -98.35543056 eV
Os 7.659380069815623 9.95517813606873 10.445848646470143
Os 7.806463546243946 7.467288886628545 10.735114203636764
Os 7.8772571603793855 9.947275508366662 7.618511132147008
Os 9.864829486191537 9.663962045199858 9.270385198638252
Os 9.567778274264175 9.029855466255706 11.710906447164566
Os 6.242214889737304 8.506684131898123 9.03151242696675
Os 10.17785576319247 10.514224604148302 6.992279315987052
Os 10.85560502972124 8.065397556838379 7.601466317618567
Os 10.291194245922325 7.345382936460292 10.119628701602112
Os 6.624604594085035 7.985932186129228 6.686289692293255
Os 9.033615992460087 8.50816131966382 6.002277802511227
Os 8.538880192652378 7.563774619784078 8.346037060026262
