14
Energy = -116.27633292 eV
Os 6.99660789269418 8.379429480800454 5.554040938956234
Os 6.256274321472071 6.429459081214166 6.9045766232962125
Os 7.819793428606793 6.206629895103975 4.878290268644499
Os 9.991652182712844 6.774774134007612 5.916631497074169
Os 9.014182439700836 8.798271782705132 6.7921321145537075
Os 5.788189916896995 8.80495826335724 7.78692745974638
Os 7.399731769769123 10.557457403289236 7.394349451913772
Os 7.769328855350322 7.29296057903924 8.625654124259654
Os 10.193540646303644 7.239107529922166 8.414195365746274
Os 8.864243570307654 9.532062366057012 9.138183990930028
Os 8.491751685510904 5.401941255022408 7.2193080789933015
Os 5.222982235037363 7.035080276148302 9.301620024405494
Os 6.602683818069062 8.744915569939575 10.325266444991497
Os 8.767778695039143 7.981693840863601 10.927565073958744
