14
Energy = -116.27639896 eV
Os 8.360448876074157 6.840523444804668 6.448158526921391
Os 8.742194526869632 9.390562527862153 6.373715683406426
Os 6.484054938021602 8.119180039466565 5.678974580159352
Os 10.50163382993867 7.943781344468034 7.360794735001721
Os 5.901646651645501 6.56236776595629 7.441362498933042
Os 9.180683614064948 5.573488034498482 8.331725739909297
Os 10.735751833827484 10.33222972341228 7.690661685523341
Os 8.304995173940846 10.771515839333084 8.383678126569404
Os 5.239613395127132 7.6178773611371104 9.461453884217383
Os 7.301523464689179 8.53038997911433 8.158696671611912
Os 9.927713419305269 10.028192322009335 10.00592582770516
Os 7.322578664897079 6.509414713717307 9.70778138533369
Os 7.597648087446061 9.12803834023112 10.503276883303958
Os 9.460820786546462 7.713745826383437 9.515101033798404
