11
Energy = -89.14642515 eV
Os 6.339778427690084 7.223340822806483 9.23763992709265
Os 8.080919159580787 11.201684644875556 8.631208396861245
Os 7.639144204084274 9.194046549666353 10.037050335881446
Os 9.94796745861186 9.028291107410842 10.954878667624264
Os 6.602109968155929 9.34048263106913 7.802905366489595
Os 8.645233648750125 6.9623151177811495 10.34554866593917
Os 8.424616898236893 7.627347273416612 7.940496187055952
Os 8.74664556642556 9.756417105229925 6.664546611600688
Os 10.176345339905044 9.89363139055115 8.652804916213992
Os 10.664585426640343 7.523102115554608 9.051769623098279
Os 10.687993095341428 8.225120728158847 6.6807562863083145
