14
Energy = -117.18327328 eV
Os 11.148245141280219 9.302543610931549 7.484950771128279
Os 8.864806805513666 8.260869119033575 7.952854929706278
Os 10.688629096855294 7.409349712552332 9.499043890390913
Os 9.155826709159006 10.475210846643957 6.622935597688846
Os 11.911427367751287 9.489421695759628 9.86625714475827
Os 6.926459610301319 9.318511686124602 6.622621270775624
Os 10.29643031359626 11.136264306706423 8.829274776625896
Os 6.628841946532337 7.130048623041008 7.771455788733738
Os 9.022985522300576 7.133920397473726 11.431407869377846
Os 8.500024247175983 6.106782677364619 9.234096463720322
Os 5.48995870189542 9.333427968953503 8.64488869369385
Os 7.2058339865999015 8.10170501482546 9.966417928890486
Os 9.41819381719247 9.371518291903293 10.361239625622037
Os 7.752769993411322 10.394546883892858 8.725905034426187
