12
Energy = -98.83732727 eV
Os 8.040018687665203 10.053835237500088 10.99597441695052
Os 7.38943997561657 8.212617714515932 9.265199682007179
Os 7.020678548132501 10.510484536123887 8.804402062774036
Os 9.822793262331242 8.62508094202926 9.708496076124824
Os 9.516874352367905 10.952518462109678 9.264177807449418
Os 8.740892644323456 6.45825731055855 10.530604715964119
Os 8.715513679151114 10.346143889844285 6.87030113899877
Os 6.667974125775632 9.00353257048465 6.892127255293514
Os 10.957405520454088 9.810556246060251 7.662882903619357
Os 7.9999210074656775 5.921460789949258 8.334027999331107
Os 10.451895787782837 6.462889733137384 8.681067937421913
Os 9.050286676348685 8.038017311642031 7.386920543366066
