10
Energy = -80.70607854 eV
Os 6.623752120319358 7.827379324605192 5.992516227393898
Os 7.132031558477927 5.427923638464107 6.385075004454185
Os 8.16050108460747 9.635377150883842 6.76440529829414
Os 8.743238043238888 7.2376892821470555 7.181675311700405
Os 6.848365315954886 8.316727557736156 8.436503597927475
Os 8.439197138174787 10.165720539083907 9.175402773108729
Os 5.298531576906114 6.473210061748702 7.594705089653995
Os 10.27575537619349 9.124789031775492 7.962285445919321
Os 9.002274826540924 7.797241915968085 9.610687507773017
Os 7.378139363289195 5.895727901290358 8.798530147477463
