10
Energy = -79.77682127 eV
Os 10.282939321094808 9.865228198302729 7.970133698306957
Os 10.27198018991495 10.622821644847118 11.528384287371065
Os 9.338658613112312 11.670931559724027 9.554329101371042
Os 7.864804279788735 10.076617908153837 10.679157349460025
Os 8.71776622250598 8.251908442731068 6.780386457797146
Os 11.529927251264349 9.288119305631042 10.006704426931863
Os 7.897255284658769 10.060637358125893 8.216354796422305
Os 7.85655768722818 7.801916644503055 9.106876048144397
Os 9.470976347988884 8.328400003179112 10.974883894280067
Os 10.230497228015489 7.51833820035437 8.673763580073677
