15
Energy = -126.14170177 eV
Os 10.93421023141713 12.398049276055914 8.590460670100125
Os 13.110115611772402 12.260650188508272 9.52210092011773
Os 11.651056331521643 10.014153211326901 9.225250617531684
Os 9.494388712707154 10.974461793211573 10.108647143430646
Os 10.159718389359297 13.45010767992419 10.623894970260583
Os 12.03530687347718 14.538892470965937 9.358003084706104
Os 9.87394863460822 8.477891216525732 10.264505871327584
Os 12.026381597003647 8.253119554167068 11.23267074586525
Os 12.376304781866864 13.263045873818681 11.540489591331616
Os 8.316847990102197 12.078286271224458 11.945794432720671
Os 12.885113645331066 10.578529066988843 11.328926291198137
Os 10.716140262125828 11.60960765495863 12.373475690308318
Os 9.109121540637787 9.571115981019744 12.280135775028588
Os 10.065278950381892 7.255736632592734 12.466842218120535
Os 11.317935383826075 9.348222064850106 13.210670914090942
