10
Energy = -80.80040902 eV
Os 8.171348120998216 6.452251286023795 7.8601116569985585
Os 7.947484404950036 8.95930102419842 7.520722444959977
Os 10.129537150834134 8.022824522014313 7.7061178425763135
Os 7.3906999285437385 7.976680142778002 9.715203732282742
Os 10.520430907772509 9.325313958900331 9.767868445597921
Os 10.081453961414907 10.539142542994991 7.636692030664412
Os 9.531674663837455 7.040366740635623 9.92417281535233
Os 7.8361013698662685 11.421151434549708 7.454042349478491
Os 8.338801610224657 10.253994381470527 9.614004869631627
Os 8.833273670309934 8.795786642859465 11.612662218035975
