13
Energy = -106.97194272 eV
Os 9.846125994563886 11.453473124991563 7.971364572314654
Os 8.112497536163184 10.073867062231264 11.86082153612649
Os 11.948731489606569 10.108393935675663 8.61265778725833
Os 9.426777064478891 7.81187192546551 11.58983550755544
Os 8.476633519986219 7.565692596990195 7.576084499891431
Os 8.0517500871753 9.009479155752627 9.647133167316872
Os 10.243081038397028 9.184629428047607 6.947109992671454
Os 11.767474094179697 8.870420047424227 11.080519180772022
Os 10.389722175926774 8.230104745289363 9.14316954227039
Os 7.867395435368037 9.972185106730212 7.459263162672437
Os 10.352186498347272 9.930205174857939 12.709424719204785
Os 7.785341999024313 11.491560013096686 9.516856448468591
Os 10.057750566783103 10.623585181721696 10.211227386927888
