11
Energy = -89.04881331 eV
Os 11.633764836957946 10.067037597150698 9.393092956471397
Os 7.882175916222605 8.46748585357391 10.884972122310694
Os 9.376835402408663 10.339710283302484 10.112357566379801
Os 8.309665826488187 6.11171745508571 10.078915393009757
Os 11.219824220739126 11.538933126482648 7.5921643404810055
Os 10.02153523453613 7.861165416389313 9.767179814486244
Os 7.457992237715301 9.442663484036492 8.634254000204205
Os 8.472658808239906 7.2613614777528 7.864964221865341
Os 9.846415763224053 9.432201100554996 7.781903789553205
Os 6.375100734129589 7.305347620713432 9.225766792595993
Os 8.942662519338635 11.711008084957538 8.20306050264315
