14
Energy = -116.67128501 eV
Os 8.05624883988492 9.870576988546073 11.367510818731644
Os 12.105629327324271 10.069825988870985 11.977106913108107
Os 7.9721801526896146 7.412237431564925 11.602161471331792
Os 10.19607724108147 8.691356757338323 11.472238514919658
Os 7.492085075209098 8.510910957063825 9.336406258144358
Os 9.478662731119394 7.113578702025583 9.65527042761686
Os 11.12182779898393 8.885081860343952 9.14080966082226
Os 8.419901277378807 10.850507325799905 9.127281764388986
Os 12.750323459550504 10.551295684673935 9.697444034799746
Os 10.429846910778904 11.049927912161106 10.406894498238653
Os 10.680602868564545 11.106719748671994 7.8821295845119534
Os 8.119029291705171 10.998309679826894 6.758792251676672
Os 6.882054986498403 8.934064941550172 7.044688285504595
Os 9.325399061424243 8.985475088140676 7.561134516204313
