12
Energy = -98.74310042 eV
Os 13.335292487458796 9.298972378807632 12.79348602807574
Os 10.862650285371775 8.902294760631875 12.852255448040417
Os 13.194603566768247 9.404625943831967 10.294644964034179
Os 10.780690159769609 8.927471290141854 10.391666429112377
Os 10.344169011731735 12.71077100539027 10.732052116484262
Os 12.363184402298854 7.399063411041361 11.534506979616282
Os 11.37158778552079 11.08999129871956 9.156326457489941
Os 11.767342792433789 10.88209337775346 11.67553323169447
Os 9.030266105456088 10.250596825988573 9.051586141633948
Os 9.547011818743924 12.60261934640275 8.333131989736149
Os 7.93748153489062 12.25877438787496 10.095359387741142
Os 9.226828157641712 10.631924012633558 11.503249614015967
