15
Energy = -125.96618255 eV
Os 7.986911417266498 7.03028705378874 5.548677313284254
Os 7.602020236825477 9.819134848018953 5.830869349017206
Os 9.323260837646071 8.547666882158099 7.036759859258045
Os 5.8713917637045885 5.897438071714719 6.613730440926499
Os 10.242833247740997 6.261603093970551 6.62377136917371
Os 8.17437907469869 5.1399415439693685 7.1109894373633
Os 8.931967884935657 10.944178224262672 7.652130446613932
Os 6.522566074484785 10.560786673254507 8.063633714689026
Os 6.6213141319479085 8.198752180746942 7.387837452286058
Os 10.54232875942233 8.545209821846768 9.192039264683949
Os 6.552810627359421 6.101096640155082 8.982416310285782
Os 9.00242640389783 6.723179980589119 8.868063812271668
Os 5.776242550487326 8.550828988390123 9.684589520070816
Os 8.192170519937854 9.209650436400413 9.314275766120376
Os 7.46339504538222 7.276264136471454 10.896234519692882
