10
Energy = -80.84476828 eV
Os 10.083295993127415 9.479581117248605 8.096753944382371
Os 10.194688622319456 11.350921857668503 9.720122188811102
Os 9.842197859635686 7.4156470011168905 6.654607217681991
Os 9.858156023080403 7.271539006527307 9.176776919736538
Os 8.957974365336671 9.26657700626629 10.32192231778782
Os 8.045577146964318 11.034119743990388 8.631688046530849
Os 7.9893162737846595 9.10024630347155 7.018447018795461
Os 7.824324512603454 7.025499083186429 10.65005815232772
Os 7.822468637188727 6.861578664647926 8.105580486049435
Os 6.876399988315245 8.884787628809377 9.219075729754032
