11
Energy = -88.58320712 eV
Os 11.043099245729127 7.606001457975308 9.63752805027037
Os 10.717322602795553 9.008948412132591 7.495100974072724
Os 8.798040008271109 7.887290686361267 8.58435493162545
Os 9.067955484519379 7.104252439783104 11.012260191959092
Os 8.329099437117355 9.818314364385992 7.109225397474493
Os 9.383780377708707 9.538990640968358 10.368534723898183
Os 9.98267480400305 11.119703298203383 8.55175558619518
Os 7.0955276541477925 8.60172374200438 10.481591996058658
Os 7.578071316191334 10.841658542876258 9.2506866946448
Os 6.3571414439081435 8.836214753535128 8.194357923216819
Os 11.875306365042091 9.91523476907286 9.577915795318296
