12
Energy = -98.53745183 eV
Os 8.79156309753164 9.567487034661257 10.227185343758029
Os 9.89019066629252 10.770059257238941 12.17456948196149
Os 12.504774617406431 11.337385233204406 8.687118621326837
Os 11.382952973632586 12.73348955375225 11.686019347291781
Os 11.786891628072519 13.617893051627123 9.372621224436903
Os 13.619309505739357 12.507441824898693 10.578060219468567
Os 10.283400639693994 11.620827058210077 9.754615879388929
Os 10.614504659956465 8.457874041349358 11.40201756068196
Os 9.29798213512737 8.507149047353467 13.358806808231806
Os 12.171084789482379 10.47912171682286 10.985128271918688
Os 11.025433068026919 9.29451949906283 9.045285753374637
Os 7.579910135175497 9.556157263841449 12.253668447129202
