13
Energy = -106.20176965 eV
Os 6.889363088154286 8.343955122673279 8.412214294451248
Os 9.360683926990557 8.394599295672673 8.347444756479574
Os 8.183071955815187 8.362334586289343 10.653222470003778
Os 10.404630655053658 8.859351216815412 6.145468323654874
Os 10.713296972503485 8.366768522515594 10.464515664097016
Os 9.567596800969644 8.408246294703776 12.733441366637631
Os 8.014973600180367 9.569094659044113 6.521567296589485
Os 7.901692552593347 10.451883933344511 9.290257250547443
Os 8.58917414108313 10.550308970706467 11.75052432964244
Os 9.801970771511536 10.819054636605776 7.587250249216355
Os 10.32698143356034 10.810910312896521 10.053152773192053
Os 11.07523196680493 10.193719048645814 12.309379691343342
Os 11.706433157736413 9.404874446000608 8.266662488230478
