14
Energy = -116.00014542 eV
Os 11.102127793954681 8.655217985563018 8.954651599840268
Os 9.848369593917473 10.85828536602813 7.984882125493434
Os 8.755894662300642 9.097302523259785 9.503829876885051
Os 11.768194561565476 10.937770896816167 9.539701576075466
Os 7.951935423769008 7.694575058686938 11.339796289321388
Os 12.68593079654151 9.259341397456335 11.103348078585988
Os 10.359992448865963 8.200638527592506 11.252051524133044
Os 8.61067324551398 9.919156569927376 11.903393856004778
Os 12.823446464160941 11.741359719564425 11.769089126661541
Os 8.384110596603662 11.596455667522035 9.81394790902645
Os 11.133520021404701 10.060599204122248 12.818684953994564
Os 10.36564827603737 13.111128989558477 9.10264870055694
Os 10.248859772971374 11.762835772739194 11.345126660111584
Os 12.581881966644332 13.349810475800629 9.998224089809831
