11
Energy = -89.3509013 eV
Os 10.28160013245379 12.441411929783676 11.736185120252937
Os 9.897386892181933 9.607171158606965 8.694373686082852
Os 11.298768938330054 11.457965876562909 9.672552132323478
Os 8.763756325545556 11.522418036771077 9.962873836942883
Os 12.490949323422255 11.131294577760595 11.83732875498373
Os 13.184529660779189 9.766336786953437 9.560347978865659
Os 11.192036318893743 9.237629063211367 10.773895061755676
Os 11.953050118946656 10.100256608120286 7.591777001848681
Os 10.217657661553917 10.291002805985858 12.784877682549055
Os 8.069282615395169 11.522827556202191 12.396733070894435
Os 8.632374422040305 9.41235868673908 11.073930219613224
