10
Energy = -80.68481292 eV
Os 6.571082811707435 8.565887606537657 8.360700016002717
Os 8.879027809515039 7.935681820921197 9.057716443772502
Os 7.4883860169218135 9.467551479676729 10.461393332158979
Os 11.274060667677539 7.381699018514498 9.79173739884365
Os 9.870227191130624 8.830696015118294 11.1951547153804
Os 11.831046658261192 9.739504674020399 10.026579658263225
Os 9.473532202473821 10.45507927483329 9.30759732035061
Os 8.511626007501008 9.550277088509421 7.1953154117936435
Os 10.833964194408159 8.932233939469606 7.882855779302493
Os 7.160725873028956 11.058131333273627 8.608052725041489
