15
Energy = -126.08007364 eV
Os 7.821031645638326 8.912053477021214 11.372725975101819
Os 9.620207441926892 11.167233697544265 7.765664526739775
Os 9.978474837759483 9.07724698482898 12.567364061683648
Os 11.842264522362372 11.508906826363893 8.675576235902264
Os 12.060584153239148 9.076311854245052 8.837315772992552
Os 9.95792430841371 8.771842550780049 7.623266975666939
Os 12.063454472924219 8.145623835983901 11.250927846741584
Os 9.617498769296102 11.51609437583894 12.375863398307246
Os 11.361043719852969 10.459625390395589 10.885155025356942
Os 9.926799545445828 8.378321526817167 10.084782550597891
Os 10.257971236025572 12.748284480202884 10.232771286456657
Os 7.7405692349337265 9.098544087429522 8.826230999559055
Os 8.71255442207414 10.912723874602786 10.068441423023575
Os 11.670979278405989 10.224929578913251 6.550812405109396
Os 7.7324824117010955 10.366097462929577 13.24694151676065
