14
Energy = -117.36620723 eV
Os 11.312068904109868 13.867506322939121 8.650828192036336
Os 11.86717471063924 11.747594037796356 11.827679511403232
Os 12.448335192200432 11.606641634400981 8.663326607761933
Os 8.467165148700905 9.625467176970549 13.265317584145638
Os 10.646235181900998 13.749718326762796 10.997707455745447
Os 10.175288076887858 11.769143948659874 9.57587671939618
Os 9.044257830304552 9.793266807612826 10.76755515285028
Os 11.538283995058023 9.760097470202847 10.292574254664686
Os 10.50178333753852 8.530387534439205 12.301963498374844
Os 13.11025752349542 13.316693359656343 10.310381289990424
Os 9.353299146349986 11.755009959352774 12.113323430425709
Os 13.884397548770446 10.88325231848955 10.612139830259938
Os 12.842767715825193 9.43380967031447 12.423508459315519
Os 10.777101551557234 10.455105525446424 13.672250238173058
