30
Energy = -269.01034094 Dir = /p/work1/plile1/GA_structures/Os/30/all_candidates/1233/
Os 10.477153446916537 9.097958984237172 5.438715270144213
Os 6.599421682724991 9.785068194689082 6.051896417706088
Os 6.945734292964167 7.420137475780188 6.145930869750204
Os 10.82108333577306 11.531040890173578 6.133245326808172
Os 8.814245771825803 10.254545867406941 6.829606326464882
Os 9.186930958211358 7.652521154372247 7.015614911201283
Os 11.77897218309233 8.46722589613413 7.374392636046564
Os 6.593062955488318 10.1330243006423 8.388052098487135
Os 11.997361209882005 10.86266400558355 8.032873663624866
Os 9.120329878414667 12.637178218852323 7.652836774815164
Os 6.953809996485729 7.526732514198836 8.465488380297437
Os 10.020677507733273 9.368023858292583 8.910887750657782
Os 13.566329008860682 8.956037863377182 9.070206289796594
Os 6.938339258020815 12.499229476065198 8.6912923565579
Os 8.617468591168247 5.905837961196082 9.199699183479986
Os 10.811168875936701 6.887206019140137 9.085378082544839
Os 10.154189591074111 11.813317384738946 9.576828071133347
Os 12.962593702414562 6.946136577742102 10.139142655601589
Os 7.884341737290069 11.321806162095154 10.460120805297935
Os 5.293805402270201 8.749316919425418 9.852873703101471
Os 12.051305729198614 10.196921247839889 10.60434733624763
Os 6.636683307747497 6.807050070410361 10.816735933737348
Os 8.8254568799447 7.950916870020427 10.681933525765922
Os 6.872504148591709 9.261179070461038 11.662566687553134
Os 11.347129564614798 8.108677609544227 11.463119942889316
Os 10.121390495800622 11.484717032770252 12.081150364485826
Os 12.274977457792735 11.000533552255227 12.901294907003095
Os 7.59428568968391 11.196047747301748 12.882480793649204
Os 9.3292326416697 9.346618132938255 12.775693487456149
Os 11.495679200541316 8.917993444448229 13.701259949827723
