30
Energy = -270.36654395 Dir = /p/work1/plile1/GA_structures/Os/30/all_candidates/394/
Os 9.976182701227911 8.902213486371407 4.636339244980519
Os 8.174391694375243 8.100698541864945 6.221490751415141
Os 8.863681176470296 10.550239907295087 6.07243615501091
Os 10.563326480091611 7.445368408505489 6.660004506292055
Os 11.326452729082236 9.893823596677061 6.54305101792823
Os 6.843927230867829 11.85301847466076 6.272405371458363
Os 6.323671027709141 7.426942080852751 7.898175256126517
Os 6.839290890159538 9.824568235419202 7.72061630872634
Os 9.512905335280866 9.168237720328586 8.108391094777842
Os 7.990300323587083 12.170809271063776 8.329665592201694
Os 8.697961807939606 6.7808294326864385 8.46992915199365
Os 11.113781768522799 6.007893018060779 8.755655207030376
Os 11.94722439563467 8.364420295675647 8.630373541907082
Os 10.392138227281114 11.611495222475838 8.403328946492321
Os 12.759241639985166 10.825607766456695 8.487053885285281
Os 5.462344981784841 9.074905518870313 9.677704029539996
Os 9.940997730155916 10.10676505425869 10.477805410882748
Os 11.168907619481791 11.05154417258998 12.500825153304488
Os 12.337334034348057 7.170256250660865 10.762265335898125
Os 10.252860485403563 12.568001456786483 10.672845902240773
Os 7.340412641570222 10.538372393276436 10.20173600989571
Os 7.05400588703734 7.313833473870591 10.334206873928586
Os 7.819562947119435 12.956877934581613 10.587177914028649
Os 8.331029287834571 8.761710388305127 12.002514902548228
Os 9.854995198131057 6.766140233599854 10.783261400378947
Os 12.514764754323691 9.803595459203127 10.66114836054975
Os 8.647902249117118 11.222367751321775 12.337721653290899
Os 10.920295813474615 8.545654466802754 12.27489416356561
Os 8.019849582053903 6.142303122939286 12.083695028009076
Os 9.622863766854099 9.664111271444781 14.045886237217921
