30
Energy = -268.64382254 Dir = /p/work1/plile1/GA_structures/Os/30/all_candidates/997/
Os 10.835110747110326 8.63897368250984 6.1324540806558305
Os 13.096404043751452 9.238158386701917 9.999178707485052
Os 10.17590041543893 7.944815335472261 8.296930033983422
Os 8.345296316288094 9.137044784633385 7.015118977125054
Os 11.020136393299962 8.49193704476 10.668600076947033
Os 8.02578696511701 6.5234451625784 8.290170521439137
Os 8.31814054821898 4.390592542442628 9.363997774679861
Os 6.538776975891269 7.602549876661229 6.685354539951764
Os 11.05395353867193 12.579422227225272 8.147634105976342
Os 12.642472109049335 11.913213103984447 10.102061019504335
Os 10.039594217426753 6.0498140112976335 9.869267583888172
Os 11.699917912678623 10.028745525882057 8.045714583408781
Os 13.606711758605751 10.620717461243848 11.902913652507484
Os 10.130778080869801 10.96159570280533 6.274645327812636
Os 12.645879762218367 14.104391331247026 9.102432972836558
Os 7.765790522832279 11.826786788354946 10.546895543090702
Os 9.328658195517855 10.989263119330117 12.398190966425535
Os 8.421746833159968 9.16986451267253 10.98535420688745
Os 6.988869546423083 9.812910206294992 9.06606638196935
Os 10.223009330188763 8.732879196806373 12.858765286163758
Os 6.754202318608205 7.253422072208065 10.09034003536131
Os 7.058770818314014 5.136184696272036 11.167149788861968
Os 5.225495878631218 8.342530789796635 8.523033205811984
Os 9.428545769144025 13.460722087319345 9.812968357564886
Os 11.017892326525446 12.715615638340331 11.684622178997799
Os 8.800210249597438 6.7954729917344485 11.677228348563595
Os 10.12074232976689 10.891555620926802 9.951814151550396
Os 11.728714858397005 10.95505176793539 13.302940295479727
Os 8.554260019506668 11.439261658096315 8.062699467006084
Os 11.08433454304435 14.929165998760238 10.651561152358518
