30
Energy = -268.65120852 Dir = /p/work1/plile1/GA_structures/Os/30/all_candidates/1252/
Os 11.267242375734412 8.655893750708879 5.592360803871922
Os 11.536224974782662 10.993960576646748 5.324124727372902
Os 9.554162850878328 8.833981136777254 7.2392376371084985
Os 9.929828552873884 11.538766902255396 7.022543701320038
Os 12.21957507949259 8.706064608882917 7.8292490063971805
Os 8.07803425584088 6.983443887272346 8.204963097640832
Os 12.49446182579705 11.115423988722668 7.504761164264557
Os 8.047159993807462 10.728615412136458 8.351644549649714
Os 10.086933265861921 7.6458081422729745 9.432693472814849
Os 5.777110200118569 10.887239580712455 9.129764591479708
Os 10.608124039336568 10.182536046977134 9.13518867443184
Os 14.20769118240681 8.767457996227481 9.2099575252658
Os 6.614038639323637 8.587449249149682 9.213684998502622
Os 9.753663356960415 12.415067206716781 9.792833244014044
Os 14.348752897166266 11.132999016075441 8.985545402193413
Os 8.477529397989105 9.369673512197663 10.564125268964581
Os 12.251857657755698 8.99518038555307 10.630655779184933
Os 7.450546935607667 11.673337012946556 10.73399547427933
Os 10.586875241661236 10.652675230821407 11.725354218186004
Os 8.73095222253164 6.156012005452445 10.996851340512698
Os 12.38019349281704 11.767887424089261 10.163565420463042
Os 8.811126958564461 13.582022749948528 11.816576902872871
Os 11.123782586804333 14.038095164735443 10.970824702857744
Os 6.996579671464755 7.55771456265539 11.42545694689824
Os 10.280364292248933 8.09733080652929 11.914334764214434
Os 8.203150914648083 10.392206031126396 12.815884034316829
Os 9.671403175982503 12.244320345484505 13.47284696260065
Os 11.966519486215578 12.590304467061383 12.580041845527603
Os 9.455563996679732 6.369567569223556 13.35832573532593
Os 7.837182467161936 8.085597219154776 13.609239995981522
