55
Energy = -512.46069764 eV
Os 8.485208586192005 11.4628742269221 14.305556413908949
Os 14.826859470894433 13.137807630717766 11.380658665933815
Os 12.8186572993145 9.480465447003906 15.521629746692447
Os 10.567622769558136 10.78113404464582 9.99373162320995
Os 14.83757780187047 13.279698198915685 13.830998462761688
Os 12.506027137581116 12.922382501791834 6.716814094193739
Os 10.637447344706535 10.714925225251605 12.833211436814574
Os 8.448431760929958 11.26230588413503 11.280035436858839
Os 12.683080034511393 13.606202631207276 9.943916676492119
Os 12.902598531141425 11.714818938609644 16.82737466760157
Os 10.651774639035668 11.11153039104507 15.578461844625895
Os 12.63976028819553 13.855516265961537 12.588526071803216
Os 10.654023105017375 15.072482634820247 9.737357979296714
Os 8.497698808404708 15.355869023967978 11.281067160074645
Os 12.74045789487232 13.944984112468696 15.244045941992065
Os 10.671143427039546 15.483724761519479 12.50204662703392
Os 12.812681631320139 11.18946981617835 8.662515283163716
Os 16.81589073444403 12.862402621096004 9.750009512538753
Os 15.041255206443799 11.037698413158402 9.976771299380887
Os 12.70335739315253 11.469525452220056 11.366877795486399
Os 17.18163497527495 12.959733428646967 12.588566719442408
Os 15.165503025108576 10.623241729796941 12.729090216014706
Os 12.746658033594134 11.641291573730713 14.098128376456623
Os 8.565686548164061 13.335339971600131 9.741613548682505
Os 15.097870688796233 11.39473694344685 15.493521968389517
Os 12.71784675314695 15.024793442847573 8.009964495902006
Os 8.641558910076565 13.704840656637428 15.582288233160003
Os 14.806516692730936 14.999329897685673 9.574212956057213
Os 12.758998210923416 16.103054080589192 10.84041315056429
Os 10.768933331089922 13.318760897380258 16.921088908106967
Os 14.619221467178681 15.571724459145832 12.483185543709295
Os 12.790041634907633 16.310334122431286 14.029229740154344
Os 12.62453566975192 13.671988305823659 18.54214408353036
Os 10.541382754355759 8.666490943184474 11.169692469990768
Os 17.266566040800054 10.840027880414773 11.308706528518732
Os 16.869952510126755 13.245350033096814 15.437309127610241
Os 10.58201914163829 8.850853397675122 14.697620422990884
Os 17.272533106923508 11.029049492694364 14.128454121668668
Os 14.710860047301615 13.38235062065548 16.97526409164409
Os 10.664964155370253 12.79548594739148 8.393774989972217
Os 16.8064089184805 15.0247609229326 11.190266761666418
Os 8.535408792780178 15.516987053569878 13.798467123451122
Os 10.441321100114218 13.00201257139538 11.411171821863979
Os 8.78124083105466 9.205244906143307 12.938062388618008
Os 10.726758133090932 15.43474687910869 15.302503066140957
Os 10.474051779053722 13.162962354582852 13.92241796982749
Os 8.141809319823574 13.258918698514824 12.684339711456348
Os 12.828559036899176 15.587229460977477 16.981588016009
Os 14.801966253829232 8.654691676414478 11.328980316408071
Os 12.75950046365902 9.136146541184997 10.232888101222077
Os 14.883959511429499 15.344094629284845 15.39252437113617
Os 14.850553592017423 8.90647926090703 14.439761766837538
Os 12.740695400731619 9.100712971440508 12.88984177053835
Os 16.858519064680234 15.195766519261422 13.725108411628378
Os 14.609080240471435 12.829319507771308 8.270871970766907
