5
Energy = -33.84075767 eV
Os 8.61570904351413 8.685473273367862 11.059593551388073
Os 8.121254374960397 9.180316794024968 7.0210637345378935
Os 8.791824724838884 7.608329418694906 8.828042047718986
Os 8.823260481532643 7.077603962498622 6.397174695526914
Os 8.187965078942675 9.983181328595952 9.21884794427731
