5
Energy = -35.07546021 eV
Os 7.829169198685808 6.639995316734376 6.687840292815393
Os 9.225613829448395 7.4707705678924015 8.242041672789389
Os 6.293615347597362 8.291926486364593 7.120672986273049
Os 9.6269651131839 9.061892331804005 9.897224808854046
Os 7.625372008759183 9.186974925204058 8.695588594056229
