5
Energy = -33.83557014 eV
Os 11.228084729956143 9.54968950846614 11.057914875995811
Os 9.457557606430875 10.083622245385854 9.438176226692711
Os 11.900462296052856 10.687857791984033 9.053267678779354
Os 9.079968091082362 10.105165898890021 11.967040722994676
Os 10.464508563423218 11.878735329532681 10.775480355062937
