5
Energy = -28.96214943 eV
Os 14.467804629694996 11.33387567524627 10.465129150054983
Os 13.76893465752351 12.011244266095431 12.313473431255082
Os 12.86943050454379 16.951862254349034 16.992897777779344
Os 10.59800863560213 16.67085090550934 16.8247191093763
Os 11.739696742728434 15.378863485993925 0.17186667658380791
