55
Energy = -492.50140536 eV
Os 10.187767942550172 9.138610684616092 13.220671923565902
Os 13.792129266785496 6.011296363929012 14.203988838105202
Os 15.210251090822913 9.905890089211805 10.508322584928393
Os 15.323792066283197 19.806965888342337 16.727565109184383
Os 12.745796221938436 13.737348882242529 14.132861679764382
Os 11.5165297038072 15.081433563663944 16.02501015931968
Os 15.421512199008424 15.137060976414249 15.595838517620056
Os 13.508193954481055 15.560709377718219 17.447837941754116
Os 16.04828109210675 8.271843447334847 12.264302732384067
Os 10.619347683463877 16.371196474235777 14.103299078136365
Os 17.567480778333973 12.315919130021085 13.312404526052351
Os 11.583949671043724 15.095001576262545 10.227220221009402
Os 12.889974097000882 11.067782313308662 17.57694110794029
Os 19.19812254636965 15.82918707386252 13.638100385895745
Os 8.852191605584885 12.572066668265574 12.398777581632698
Os 14.395897247269076 16.872317176715267 14.068951280985715
Os 13.821207625397657 14.082654023129363 10.617939990884457
Os 10.778712540467886 11.297188438791773 12.093970874062745
Os 17.140959855868267 14.650154142659082 13.996772726406414
Os 15.172826723896915 10.462736488571888 13.065120562751803
Os 14.550027464269052 8.3821537606478 14.401761074105
Os 10.598436651915096 17.307451264956303 11.428295183836369
Os 19.584374278758826 11.537014255416317 11.743480342435653
Os 13.841999814673814 10.637037892226868 15.330816949203413
Os 7.703978942483372 14.335534698675543 11.189034993201206
Os 12.51261541484949 17.367721053198032 15.878336359710474
Os 11.478288008270416 9.860376344064408 15.925878233703852
Os 12.653202954615683 9.678349229367079 13.093749109184904
Os 13.95586818749998 13.284603467549765 16.453061264667646
Os 12.052298800334837 7.6690446062134 14.414156025016608
Os 12.079951066596777 13.518552898992956 18.115911718333415
Os 14.912857693204963 17.514060233223905 16.450102253208957
Os 14.164570401460663 11.938697308727205 9.23913715567755
Os 19.250643924430594 13.802665959120265 12.507986555195341
Os 16.09522239773744 6.446576989753859 13.828232319323384
Os 17.413671547797115 10.422358266429422 11.685553271099325
Os 9.79764627776844 14.97155545906119 12.038116376294989
Os 13.399672186470063 12.241055184462022 12.355707247895532
Os 10.959105048276635 17.35058830465056 9.014806282805242
Os 9.126557402993141 16.01299831319545 9.808116517008083
Os 11.426179824685857 12.348411177580669 15.991170004790773
Os 12.805122593303103 10.155071057595244 10.622084431511436
Os 12.173468125344352 10.949589025626171 8.369784238672175
Os 12.59510019989746 15.761861330071424 12.509041706131857
Os 13.830571166286873 19.25219228181885 14.910515144166336
Os 15.299302821839321 12.609856099059913 14.40314278250558
Os 14.870146066014616 14.541978459057555 12.881924929529509
Os 12.344854816199334 18.184354880226028 13.20117725925205
Os 11.791326331078144 12.592124565435656 10.160044562710803
Os 11.35969007083367 19.662879087549587 8.705362948694127
Os 12.112536087442667 19.06131442203025 10.778185088326765
Os 15.775005851475282 12.366181742610484 11.352814733846573
Os 9.669188087590888 11.294592078256665 14.502340525152851
Os 10.22996991868911 13.744073848441928 14.194078587749308
Os 9.94989105667097 8.068027069648156 15.428461396906616
