5
Energy = -34.93806178 eV
Os 10.929672990239853 12.594406006846828 14.282181571163449
Os 12.853779036877256 11.437105318464564 11.942402102755477
Os 10.651096511048978 11.386129514652943 12.402568219975569
Os 13.175869353423607 12.668160919653426 13.848801320865439
Os 14.928318109511835 13.45838465311288 14.950560068440051
