5
Energy = -34.12448734 eV
Os 8.514705647387197 9.353234838313957 7.357582476072761
Os 6.9903476375789895 7.542279358723532 8.143089116053032
Os 9.23254302951049 7.951035667371971 9.160122836843485
Os 7.123606303529342 9.585651402494745 9.28262542588749
Os 8.946659532251585 6.729468370021344 7.131281376975257
