6
Energy = -43.3595236 eV
Os 9.421568435225671 7.836995152478152 6.338927046357139
Os 9.236032931733803 8.652320692233962 8.603898550449095
Os 8.467981693053504 6.329015821484635 8.033362776651643
Os 7.273683562935197 10.002272192576736 9.00153770000444
Os 7.237971062547067 8.368734745385032 7.220858058166619
Os 7.177778071771271 7.62597207118267 9.616705181825361
