6
Energy = -44.2546067 eV
Os 9.645432014030302 8.360173110158119 7.489158828907673
Os 10.252596794158613 9.583497982766128 9.585446155208182
Os 9.16078991959127 7.589763884015677 9.882387841021307
Os 8.385284778146014 10.346462692672688 8.515576366863522
Os 7.476887178363491 7.599433371523272 7.253036443635805
Os 7.112529890899848 8.555695724282984 9.310290420633132
