6
Energy = -43.26236654 eV
Os 8.919089023081492 9.513782558390927 8.827541826850764
Os 9.778629281016379 7.529164265096387 7.791910179688979
Os 7.91399959920403 6.133364635485485 7.059109359131361
Os 7.681053129492862 8.530612750115614 6.896107998612355
Os 7.686572583772729 7.3610740232965926 9.134500137284611
Os 6.496063653540799 9.450866018481099 8.824488417019948
