6
Energy = -44.27247705 eV
Os 11.74127108260868 10.476966958875595 12.795120910168514
Os 10.760154388785905 9.413160880215074 11.013518286036577
Os 13.106799129597233 11.520244535200176 11.211278689599776
Os 10.224006360350128 12.196104942566834 12.353044688919077
Os 10.853841951349008 11.477073805907814 9.977654360409218
Os 11.824403075331263 13.40861233717268 11.254439579453123
