6
Energy = -44.2681973 eV
Os 10.18619114998569 8.238727726759352 7.3495654978292615
Os 8.192086612505255 6.969411157519581 8.213211823794857
Os 9.783025735983392 8.438149166590776 9.592359122710086
Os 8.155622093949079 9.215267655783128 6.981828700746551
Os 6.6556050427955835 8.090606251301681 9.522501228857967
Os 8.011465750627313 9.916202288059994 9.20810975752432
