6
Energy = -43.35554103 eV
Os 7.2074424824494 7.541478057218893 7.78600254671973
Os 9.103152670660851 9.162152411578996 7.545642244878134
Os 10.53493190156817 8.899018385726842 9.480131233048855
Os 9.382942128238664 6.906578752396357 8.618596129825898
Os 6.8792426980361 9.944980071979524 8.075214344117747
Os 8.138555529258566 8.76538343034469 9.763583122284986
