6
Energy = -43.26292456 eV
Os 8.63399797578257 8.254619369791998 9.89987983035297
Os 9.842961991189016 9.539367971852911 8.08851449521533
Os 7.498019405766168 9.012195823488174 7.897901293523178
Os 10.291010785825987 10.024290101664514 10.494139030654068
Os 8.175023833184806 10.676440232194555 9.550769836284896
Os 11.007783574998262 7.937233468920904 9.511447037808601
