6
Energy = -44.27881553 eV
Os 8.18687972475199 7.028769054128727 8.236912078156575
Os 9.507028994578341 7.336679541703016 10.092841487378648
Os 9.649449273174902 8.592156447029014 7.2875249542811735
Os 9.342296140686985 9.592375054834324 9.612974740854302
Os 8.106471722690486 10.276386897016842 7.551802054975705
Os 6.955305965905649 8.890668914151007 8.94313019712937
