6
Energy = -45.01381504 eV
Os 4.573767865208149 6.5938689929453105 6.806882996458227
Os 5.546784951150605 4.850798273112139 5.488145982849903
Os 6.774200544682807 7.671288787005005 7.153966683817242
Os 6.464375016345351 5.308130040962681 7.756069424813063
Os 7.75069875184124 5.929376602738761 5.8302008248141135
Os 5.863386257430912 7.217421523717808 4.882858715780918
