6
Energy = -44.25620384 eV
Os 9.436957204254567 7.372110025989557 8.958987764419343
Os 7.172281168981718 8.524637373693022 9.323349385037371
Os 8.126779165337044 9.924697440030023 7.712135945148784
Os 10.041128357887864 9.861526398613133 9.04939322667363
Os 8.948476007642903 7.989644481696914 6.786517495371608
Os 8.869221996260357 8.958564161468596 10.798414886458701
