6
Energy = -42.50464253 eV
Os 9.460140610543315 7.844993389118463 9.986862050581633
Os 10.79384392215837 7.978916303102064 7.837589725053925
Os 8.258373048680708 7.55988096234918 7.733101031518657
Os 8.998613566209244 9.786235631995108 8.345969797705731
Os 7.216522078575712 8.656916637443084 9.788363881798093
Os 6.580168884097866 9.460446942434118 7.561128223832212
