6
Energy = -43.35543377 eV
Os 11.508524070727498 11.862295522898282 9.646896369240455
Os 9.773866561788024 10.960460403413746 11.079982947967045
Os 11.096321643340426 9.477333337670025 9.645616132982061
Os 8.61985437063349 9.135519009934223 9.816475168629763
Os 10.123535586710668 8.652014875688662 11.691318890422322
Os 9.43973779221434 11.04239326344345 8.585813762914203
