7
Energy = -52.11394828 eV
Os 11.631967219703187 11.39911727840213 11.661945705770334
Os 12.237917033195375 10.507792884431973 9.367464362940442
Os 10.737710280608887 9.222849708076508 10.84511220648598
Os 9.961838916437191 11.346856738349578 9.814543452010211
Os 10.212405253327402 9.304504339578925 8.410556566222315
Os 9.327257570609982 10.790773876379495 12.142297441783768
Os 8.407233188001463 9.431232608296694 10.031541853078869
