7
Energy = -53.6311173 eV
Os 9.26639666560511 7.492225803819212 9.138281471773723
Os 7.709315722258328 8.73639832021852 10.56549262858788
Os 11.46581008851064 8.373165117079346 8.514334275392006
Os 9.896428000503082 9.685309546892341 10.039039104856611
Os 9.47842431827291 9.459649949190768 7.61752515901648
Os 7.273447333112472 8.512198516724771 8.122817316922722
Os 7.937228734370945 10.731042282480333 9.052475208230288
