7
Energy = -50.87656556 eV
Os 10.691027525789242 9.681663884590742 11.144552904369597
Os 12.117078336763642 11.245646866560174 9.806267134814881
Os 10.38482732424376 10.002283141499746 8.51358929582145
Os 9.577025126647666 11.714728159862062 10.339782102511966
Os 12.387862138340028 8.889686615825946 9.253083945493556
Os 8.324239869184929 9.52331473518911 9.84870468104512
Os 8.20008310127108 10.26588742637836 11.98320099777334
