7
Energy = -52.126517 eV
Os 11.313761982314848 11.775864924887886 12.772350853212366
Os 11.46324076378874 12.923789128348753 10.528183607648335
Os 10.24675734610741 9.028347086087093 10.01200920139624
Os 9.69176063369308 11.237815160129438 10.995066323208214
Os 10.825531315788037 11.331746129361287 8.797297809981528
Os 12.062876891036938 10.523209237562645 10.785645861013785
Os 10.555811131208586 9.363977349013256 12.39437521397453
