8
Energy = -33.17174591 eV
Os 6.582255651350231 10.199523234976958 7.083695043704965
Os 9.96575857229447 10.644666476253521 10.197534497382376
Os 7.053369710683854 4.24666116863477 6.921250440248762
Os 4.368299099467903 1.1704948735021197 4.461922085662221
Os 5.103053587387421 4.364363273053383 7.899850587762058
Os 3.9981918357933037 6.0549343693248225 6.566041234590417
Os 8.407508352099876 7.425447067115277 5.928977783570843
Os 4.697783787732871 6.154113382410484 1.2136810979177584
