8
Energy = -62.01035319 eV
Os 7.878232488991627 10.214557563934521 10.345416462421943
Os 9.543767997420508 8.326189881023904 10.01845028764552
Os 8.428242034550491 7.060581672026395 8.24702315337547
Os 9.629568164283786 10.143353328629175 8.387656292806046
Os 7.030195536883138 8.05539192723292 10.251923427580053
Os 9.024139149672447 8.68849912345 6.4251787598323595
Os 7.379257389270061 9.258506415788286 8.051507401176266
Os 10.775934501658941 7.932348739677464 8.016871993540457
