8
Energy = -62.00543882 eV
Os 8.793518217795112 11.85711221920634 9.749677894254834
Os 10.036974704437858 11.243917681794997 11.883120431435373
Os 11.377751973572172 11.897872645217298 9.957793898547985
Os 12.364632137767979 10.745863012569902 11.981807567182575
Os 12.558405132083362 9.664671090818763 9.772639484247442
Os 10.278591606137262 9.896003231820576 9.111836662633086
Os 8.308088783213595 9.789873835569296 10.712923652288936
Os 10.686698314911705 8.965693064596204 11.32566595488652
