8
Energy = -62.3519623 eV
Os 9.467232736572878 9.048959302479735 10.08766054828248
Os 9.362029459348898 7.164678257994083 8.572380603745286
Os 7.581596900795593 7.292006590515428 10.206607961241668
Os 10.868100883614911 9.214060920677401 8.120093039242285
Os 9.268015832218829 8.591916482311962 6.416628670252994
Os 8.504161801723384 10.273444847169559 8.24047287015562
Os 7.323191757336235 8.212337235952061 7.802287954244416
Os 6.9363487693455905 9.60883184442476 9.949782842536893
