9
Energy = -69.32647073 eV
Os 8.220665865502486 9.140209320009426 9.036618570385365
Os 6.958428873577094 10.841565545358216 10.033296550900172
Os 8.788674508574202 11.997969683910464 10.754142490647869
Os 10.10079247092074 10.257792701706576 9.81075060349502
Os 10.798967974663347 8.404775041970689 10.956983643871025
Os 12.99225427393295 8.876674653113167 10.258777877849942
Os 12.342080058443795 10.778017265045172 9.186758114978863
Os 11.012637713189578 12.63831587936474 9.998241975790263
Os 8.951386043918976 7.230567909521557 10.130318027230196
