9
Energy = -70.40863442 eV
Os 8.028639664024665 9.431544074638367 7.205023972865219
Os 10.17697168131605 8.1756582094067 6.495904906985253
Os 6.727429693063083 7.664444832213476 6.358586855543114
Os 10.379496390791767 9.783014910421363 8.108694398778434
Os 8.607214759430972 7.103543792880127 7.992757839422594
Os 6.8507286743262705 6.2773380381812185 9.48462024735801
Os 5.395760105258007 7.509084640953718 8.236194486318965
Os 7.375930998334949 8.752024499246726 9.420315681613632
Os 9.656961922153796 8.50248089075801 9.897035499814208
