9
Energy = -70.8683754 eV
Os 8.943828910561097 7.332953438534503 7.675784961885058
Os 7.42324663055415 9.356533948569924 7.988833871182761
Os 9.779386149753131 7.629404387362603 9.958021167647429
Os 11.74439835888142 8.945798893897981 9.905039987845965
Os 7.3070968350164245 7.461102330786339 9.5893795039839
Os 9.897063797943373 9.54931964067108 8.205789678955856
Os 8.31659918523089 9.640066430786764 10.209640774903885
Os 10.449522327397604 10.926184850656432 10.240296852041341
Os 8.63103496992775 11.583676032110896 8.670142336870517
