9
Energy = -70.69483098 eV
Os 8.182199263224799 9.70712598007671 7.045688100286656
Os 10.195072557453969 8.168809312556075 7.800381894437247
Os 7.8547861632931975 7.456495852702663 7.965121495149853
Os 9.750308870745469 6.247691052528324 9.200323633511642
Os 7.792873167409347 11.766576051155566 8.185562862457603
Os 7.883971612835522 7.145051749057741 10.47818330306157
Os 7.719775725621958 9.395557497261505 9.472356258172493
Os 9.785289950471075 10.589189230586832 8.765646819566307
Os 9.932846929593195 8.603077230551438 10.200912813421686
