9
Energy = -70.70788421 eV
Os 10.54710705766711 9.599838552051157 10.122874057238995
Os 10.45400229363929 7.606817210590227 11.43683878034095
Os 10.048812056701355 9.758885011046733 7.729988966165154
Os 9.514766373696945 7.675864658289343 8.919868060781964
Os 8.56602537351793 7.995055187086594 6.670991488159441
Os 8.36891294785882 8.647054294070802 10.908973170714486
Os 7.213006395516737 8.519823935661618 8.75328181902995
Os 7.666363459705646 10.241270986563107 6.906976315916116
Os 8.310765587501786 10.666424189687966 9.20178817112686
