9
Energy = -69.38313151 eV
Os 9.411665563812312 10.112226428946638 10.608930997657671
Os 13.424032196000923 10.783669594357946 11.419153320477628
Os 11.197694626888026 9.79923212029995 12.282677724300818
Os 12.019066833996426 12.146291459170227 13.10237431028751
Os 11.974644805703631 9.435669293720297 9.972182462614162
Os 11.315556813856183 11.778542808040422 10.676736983648864
Os 13.299413369995886 13.232895683606335 11.294348158932932
Os 9.562721033015709 11.799381619739549 12.385173896580607
Os 10.744175600430932 13.904811443384585 11.924250837630694
