51
Energy = -111.70191194 eV
Ag 14.433603179959547 11.578297833922699 16.276013745683056
Ag 10.06640459430494 7.753021116522289 16.250557778133906
Ag 12.390855141696182 9.69777063543017 17.496127176205597
Ag 9.675558259951607 10.328830868139367 17.18797718806071
Ag 13.357622712045732 14.163426530412655 15.384439520378363
Ag 9.420733066151417 7.489584814369617 13.509216055313342
Ag 15.75092568562958 10.469121630727221 13.836686659239406
Ag 11.56631401775243 12.247035956969412 16.403680346987706
Ag 14.08685623662426 8.841850444105726 15.400911360866642
Ag 15.760078081992601 13.291113333245532 14.249733041310007
Ag 12.308298722876385 16.698524323659147 14.754707991783569
Ag 8.591067334919163 12.471917315741779 15.790006660429434
Ag 10.40709093927212 14.58822691555477 15.175419881508388
Ag 11.432477355352496 9.741044216068754 14.914292104549178
Ag 12.054745774636903 7.046677433207554 14.350105551226214
Ag 8.473118144827996 9.833964926089786 14.675362717807912
Ag 13.240608977730698 11.735505441616743 13.795686663052207
Ag 16.96308068749006 12.217163627404204 11.860179837097306
Ag 11.983769594593339 14.55131309527882 12.853706436928032
Ag 14.76921312766588 10.638913790240089 11.195576383190181
Ag 11.342271417809654 7.268494620314029 11.427028614749931
Ag 10.389264888871615 12.146065260268584 13.724831759251824
Ag 14.536696884502614 15.858440668050893 13.353798108099769
Ag 13.284166542591068 8.97716292461751 12.742429335668726
Ag 9.264206978904623 14.213717221768965 12.165481085623796
Ag 10.554214435416997 9.76980793902811 12.231134936384985
Ag 16.613896337334623 11.217106487854508 9.202201444968821
Ag 16.813759283143494 15.03081892071135 12.071062010560368
Ag 14.390024191244907 13.535285023013175 11.733786259643693
Ag 10.0160136301893 16.725937536512145 13.219533117068094
Ag 7.552834117509482 11.993436165305823 13.158913833266732
Ag 7.846660900173988 9.284079415909673 11.921563060694098
Ag 12.020985098481002 14.453712674711406 9.878330453299197
Ag 12.510729775968674 17.26272983096418 11.873942134806885
Ag 13.805995065981966 12.365708295946055 9.219033323771253
Ag 11.920934649830636 12.082328711561923 11.363493007476547
Ag 6.926653069487604 13.500178014518449 10.845408093052466
Ag 12.516313720096635 9.50575371235045 10.007414830824322
Ag 14.677395652045144 16.124956283071374 10.470471147821517
Ag 15.545631304699011 12.637522310961439 7.040663092700874
Ag 16.260765177698346 13.968259697831305 9.510248703896005
Ag 8.996066223298998 11.654227598069872 10.771890876439127
Ag 10.16756570983299 16.449533059960288 10.467598262783744
Ag 10.938563120699108 11.82755973242764 8.751686038013776
Ag 9.28296817786787 14.063855753228731 9.332217996142514
Ag 14.023292851480901 14.882710580238566 7.913595894502773
Ag 9.76784455175473 9.203250585536681 9.570469760445878
Ag 12.497771083342272 17.04792563082622 8.994029878135334
Ag 12.82574158359968 12.104450633590869 6.647521939866493
Ag 11.5899176659576 9.532672979989748 7.36781314345761
Ag 14.376791174707833 10.00694645494288 7.927260814649061
