44
Energy = -94.59938844 eV
Ag 11.42355244014231 11.517561655127295 15.91403570868634
Ag 13.499759241100588 11.779654165778842 14.069406198264053
Ag 14.713266877057407 11.825605412024034 11.439269118917466
Ag 12.270715206949063 14.204387579973913 14.648136532605374
Ag 12.484579485228252 9.223396088780909 14.575719856103511
Ag 15.10800740266167 9.622172537114622 13.369547056956069
Ag 14.438770207605433 14.182482230243245 12.891802547478624
Ag 16.292011668949907 9.639958041673696 10.763966915340214
Ag 15.586940079373322 14.184609855633024 10.257605863710788
Ag 12.899227092247 16.56330669382833 13.267368375091442
Ag 16.4723634523535 7.40489605274961 12.331375541550196
Ag 13.587205246437367 7.430865297416869 12.487211294013902
Ag 13.03340399699806 15.211811525973811 10.715612526440383
Ag 8.492942700164312 11.735761496579697 15.916193181334204
Ag 10.055528718219346 12.67095261662094 13.80016148896528
Ag 12.563686175729757 10.013050257930374 11.89130686678932
Ag 9.956665183724102 14.087259562965752 16.24179145834957
Ag 15.886122861120311 11.715993337963052 8.832591294671083
Ag 11.955478447177967 12.775900326024239 11.75110601992972
Ag 9.666994467995313 9.5996115103758 14.54959980792093
Ag 10.483486767791081 16.414731018189386 14.783164663826621
Ag 14.95065157500164 7.272098204459662 9.986981446203234
Ag 8.315908219424049 14.834210695456692 13.919035836477521
Ag 10.634903594766596 15.231584996426923 12.206186407018896
Ag 7.466455825044235 11.490140112099402 13.20586717277324
Ag 10.73393350200076 7.909250637719488 12.497393799493699
Ag 13.78261747786885 9.952566499462348 9.397099790124917
Ag 12.156379444013297 7.7097829197380525 10.03627385752224
Ag 9.831630549607757 10.634739131485974 11.980765558543988
Ag 13.69336728491949 7.877648572116664 7.570198072005907
Ag 10.988006655849446 11.209135422275022 9.608088659442144
Ag 13.29591164980187 12.854660874852268 8.9882027830892
Ag 6.195857563028909 13.915585430064729 12.44555204661529
Ag 8.721159246528037 13.301876261269319 11.318197090676563
Ag 10.780523597030635 14.167646542975856 9.464858269130382
Ag 7.959406308894154 8.688878211154032 12.35682111494288
Ag 9.499280848378875 8.663232488561697 9.938847729062886
Ag 11.292995836231672 9.237349692007902 7.683104372113839
Ag 13.474034442427683 10.795227130014728 6.830158055418038
Ag 7.528845418442668 10.754357858692584 10.286203854924592
Ag 11.025094312775323 12.273690560956435 7.145353171598691
Ag 8.66873346345793 10.168655076716693 7.725738096418838
Ag 8.63340890333116 12.775183525239695 8.494126418311868
Ag 6.285482877845722 13.216408030209324 9.792672811389899
