32
Energy = -67.65853434 eV
Ag 14.467504351349575 12.496937394253829 9.857746211206615
Ag 13.319860920172937 8.872805472064618 13.182467317152893
Ag 14.603354655142438 9.69719970592409 10.693461334681977
Ag 13.191964153959105 11.75612325695722 12.160360966240466
Ag 12.172233698762081 13.951637269953393 10.467675566508321
Ag 12.454474388546947 12.911751535597006 7.823217652150134
Ag 14.270883550428039 10.816408852640514 7.711131602491512
Ag 11.17901542659456 6.956793409603769 13.061065254059319
Ag 11.771959182445583 11.386961755418968 14.53697242851865
Ag 12.191432720454268 10.441473077455358 9.671263218160982
Ag 11.538941785057759 10.354021143877343 6.880630229899017
Ag 13.246654309018592 8.298566792129641 8.101120631312705
Ag 10.546595955308247 8.284303570069023 8.559132210076605
Ag 12.340997013208778 7.732193031036112 10.692848196399629
Ag 10.677431717578395 8.893418191655607 14.950071412319694
Ag 10.972705015476869 9.892433268927418 12.237478239810665
Ag 9.8775145073571 12.552634243637645 6.584273172249305
Ag 10.088615911565462 12.136748172324044 9.684732498357722
Ag 9.536619003054877 6.92241508757099 10.836768749104372
Ag 10.346295500946269 14.636182934212782 8.327970601584015
Ag 10.576768104546042 12.792671354795662 12.517668775367992
Ag 8.865991446927241 9.677895016257 10.554093010854428
Ag 7.845314423828833 7.829147720658795 8.608536623851753
Ag 8.758357771630983 10.335158805083001 7.7433434112565696
Ag 8.92385156849955 10.948436515527659 13.958901048507647
Ag 9.329811880246366 14.614591869793651 10.886752823213703
Ag 8.598171423003167 8.185759816190632 13.236813447970052
Ag 7.75332340654431 12.940736311081638 8.543783297048444
Ag 7.9214583861226835 12.305436708946102 11.605032185497059
Ag 6.78615982955232 7.822384296484984 11.149235506184974
Ag 6.4611087609106646 10.6445909005679 9.730835939758261
Ag 6.606761210276339 10.134791587335535 12.636226531686445
