31
Energy = -64.86978768 eV
Ag 13.637161356063913 13.224928016888915 14.343018117167027
Ag 11.663128353742078 12.72337917562081 16.371652427358818
Ag 14.882988414688686 10.935597260583258 13.215422082141734
Ag 12.630213281980405 15.112245328466502 12.52777275885292
Ag 10.860068317150432 13.43496812558249 13.822778837763254
Ag 12.399787244980844 10.696745819753556 14.663309662216665
Ag 14.72582718990266 13.542208460744815 11.651824048380378
Ag 15.41478883144375 11.15871175242783 10.477301402273662
Ag 9.593564075507526 11.238657724907991 14.974432072866358
Ag 15.497284952634935 8.637391293947573 11.447212895879211
Ag 12.457473263245381 11.803648562048703 12.032409371834179
Ag 13.020165219964795 8.976900345097214 12.530942656367285
Ag 10.667325158345738 13.781743650192315 10.979223088057402
Ag 8.828477866876096 12.173812651331453 12.256185593871002
Ag 12.776755219012363 15.14329794212184 9.775141188634844
Ag 10.376648184441533 9.7976553935779 12.688130164399059
Ag 7.64144909421925 9.92957590572471 13.330187781049075
Ag 13.179854049137136 9.510164913900033 9.721062677196382
Ag 13.30564453649268 12.49220973696238 9.361471649472458
Ag 10.868656043378689 13.352286166644115 8.219897393360363
Ag 11.162014248937593 7.822084722931324 10.82449152998668
Ag 10.670835894805148 10.96546775743693 10.001944817641922
Ag 8.394936897007616 12.812033824671412 9.550745884405824
Ag 8.417009892618946 8.291021932967928 11.25309873973503
Ag 7.004804508626686 10.655293569546352 10.703248737006763
Ag 12.087992233402755 10.88785974049533 7.461059983768686
Ag 10.700098823669915 8.646725344480016 8.221650142558179
Ag 7.8879798990540015 8.938119512019474 8.584583710676707
Ag 9.245700087824082 6.554006377703227 9.282098406403291
Ag 9.287597906443375 11.122646599493484 7.450944415553439
Ag 6.568210095355999 11.357942065142769 8.065529218488342
