7
Energy = -11.23464772 eV
Ag 10.292651635060688 7.10155476591505 10.424711773152175
Ag 8.801235478867328 9.421178712735081 10.434862542320335
Ag 10.670327789999877 8.922221874436097 8.374464617917221
Ag 11.462757798727417 9.548887495193776 11.041000353784892
Ag 10.792670904409507 11.537163802043494 9.228326914538968
Ag 6.375583760599534 9.75148944487438 9.393361252070138
Ag 8.511117365438945 10.68288526499195 7.973116073118982
