50
Energy = -108.65515038 eV
Ag 13.900818561718777 9.587966910116222 9.713620946527731
Ag 11.00212698892624 8.617422290428154 9.570577355990848
Ag 12.112745045909232 9.495072221674558 11.92696665882562
Ag 8.867555030935709 7.823357588867581 7.923504116242097
Ag 14.816684999571496 9.011588495126885 12.555544235340497
Ag 13.10110730125602 11.009993984454038 7.397923115396245
Ag 10.114519010381738 7.753199677605103 12.585448670491177
Ag 10.865429975362385 9.52306087969098 6.923019148235118
Ag 16.489002131024304 10.612183449261748 10.893811743928516
Ag 12.546822091029439 8.035713272442443 14.206864061365737
Ag 15.174118064870093 12.0562900012611 8.933161755765415
Ag 8.350006819081223 8.557274501396433 10.551645863041314
Ag 13.378226350139164 13.749029116361088 7.288639269347708
Ag 14.723432501825927 9.507441175354138 15.2371598945366
Ag 13.96176844857208 11.555236498776603 11.672865516091735
Ag 11.609367838919374 11.43331024032893 9.796681503147921
Ag 7.922610499498317 9.55176307599878 13.132751483877808
Ag 8.859904736701962 10.531200084274266 8.524335067490263
Ag 7.629194545858157 11.267519491343334 10.933874038892105
Ag 16.789850228622672 10.787036219726208 13.63165915030145
Ag 10.252001292605026 9.5756247204802 14.73675855651632
Ag 10.0400162310341 11.297740370805627 12.3482795447955
Ag 13.397015367774724 13.854281737084394 10.09899830803032
Ag 14.6964532670623 9.541734255212726 18.055503665355488
Ag 10.660975631388494 12.39333755702594 7.189937349890603
Ag 9.027195298313565 13.141677397063557 9.378561493115422
Ag 16.505474138304564 11.133154556913361 16.506892393110743
Ag 12.50213205113401 11.302983801169217 14.142858526364835
Ag 16.001792587114466 14.699773754007698 9.447105733075391
Ag 12.239242325208485 9.330148932787113 16.708159705058847
Ag 16.03310707903043 13.406117399678974 11.999634408388163
Ag 8.506190567630469 11.853230754027727 14.682155240359377
Ag 13.24264410236027 13.90414354952197 12.914236275515304
Ag 8.316061374180443 13.659218847203885 12.368605048982937
Ag 11.131513044728829 14.865248264093593 8.566517151962218
Ag 10.913502218608736 13.745893713793356 11.355581714904831
Ag 10.877445080518903 11.854676679101877 16.40571964924924
Ag 13.646008744711677 16.22713278855663 8.721227085023182
Ag 10.680770962986724 13.559144119300532 14.228894059013282
Ag 15.157801461073861 12.687798102524761 14.654538443106565
Ag 13.682672408139032 11.772844991197948 16.836227454249773
Ag 14.648524192740316 16.011414636793646 11.55152107002243
Ag 9.12697881784829 15.768686648422046 10.376792812369144
Ag 15.25608455213677 15.43023898594776 14.195830133985428
Ag 8.281868931031939 14.691105532012932 15.017522806878672
Ag 11.912336945994562 16.324031436866477 11.018090806021435
Ag 12.990584402675346 14.253240595435452 15.731131350183343
Ag 9.875774827686978 16.056254900166966 13.0712458946898
Ag 12.653257448798465 16.477080720960625 13.775468085947598
Ag 10.773796082302185 15.96089368268338 15.760464244326357
