12
Energy = -20.92775928 eV
Ag 12.062298210741677 10.292733130893605 9.467876870384085
Ag 10.852735553073432 11.389712491129858 11.983349903020345
Ag 10.97023791875464 12.741231016263365 9.448218415413196
Ag 12.684326402048846 7.66805647467515 9.646905909299385
Ag 10.684476313766387 8.687558129978713 11.324349307247955
Ag 8.473651943018783 9.909377450186435 12.434615070436417
Ag 9.134829848019324 10.627919114129995 9.858708696053604
Ag 10.191021122888172 8.317756619037226 8.551992859253968
Ag 10.312574649373245 10.903997829393878 7.3165896860123825
Ag 7.448409330552846 8.564898420996782 9.201557206246518
Ag 6.0758737494649555 9.178756677778624 11.438925212615288
Ag 8.410838660636532 8.99057801131372 6.61492024938628
