25
Energy = -50.97050779 eV
Ag 10.127217975928554 12.779362321188962 12.86227757322657
Ag 12.463638458525763 8.868984369503668 13.301117929492571
Ag 8.230103349196348 13.820903641907371 11.201204641823162
Ag 8.668968532119887 10.870977617877259 11.345992962336968
Ag 10.45387527340056 12.772782240763526 9.787391536783744
Ag 10.756738445584741 7.2098783789273195 8.96694801209364
Ag 8.018344818377267 11.863077656553688 8.910438883625062
Ag 12.789654944925518 8.475433522900516 10.440806426899844
Ag 12.63676836652448 8.840827833724244 7.72690681822001
Ag 12.771935323523774 11.375903413189816 9.02278085281288
Ag 12.660125612652742 11.712969841012768 13.982794541482956
Ag 15.09437924339389 12.576269688669445 9.902378841773407
Ag 10.249474946881445 9.979276315857712 8.994576837997414
Ag 10.933062400290224 15.09193661086235 11.417290702193512
Ag 10.459138572531703 12.631471076036698 15.559240622689211
Ag 11.95454684077247 14.570240034455088 14.027287385300443
Ag 11.651761001131954 9.972988983871836 15.830987219616595
Ag 13.054278129684176 13.230228890381033 11.758733754032738
Ag 9.138323467109958 15.123427446489503 13.718017377865147
Ag 9.881128068178018 10.117042343968802 13.753013484475188
Ag 12.763753261450406 14.258787983957047 9.284167533370626
Ag 14.966027001505097 9.682039494387434 9.049177841671671
Ag 10.100505904966772 8.341961751340898 11.485160619201215
Ag 11.486627699297568 10.770031580832097 11.50688065703814
Ag 14.237475278032255 10.611049877326359 11.71227985996257
