31
Energy = -62.99764849 eV
Ag 11.720867287203028 13.795881423176281 9.28746507836751
Ag 14.64478466755609 13.846201470561304 8.959358948570264
Ag 14.58017800038514 10.211354240122942 11.925031963320905
Ag 10.172467236910741 12.562382633122033 14.1681491356617
Ag 13.563707883178623 11.257488540534963 9.523835375997542
Ag 6.3192064531245675 13.404970338878694 10.666660381627137
Ag 10.585620589228935 11.84469335835979 11.038500105324758
Ag 12.403252790808565 11.452238232884504 13.138960534273838
Ag 7.876220337364295 13.964929849147863 14.89533151359051
Ag 15.049386854395348 7.832108878948122 13.303589470934899
Ag 11.841802429767027 10.150184781967047 7.640876608455915
Ag 12.499093036171327 8.730106449070357 13.09933704155561
Ag 11.677070556364312 9.347508580862245 10.454581750602548
Ag 10.516079963248307 7.057317432766721 12.107651997607082
Ag 8.69798245236773 8.539075230661425 10.576311285428785
Ag 7.260900529354582 8.918268164208879 12.896121082825523
Ag 7.73900996652386 11.078818056398543 11.063258097536798
Ag 11.589858431301137 14.093978270019102 12.262486696021943
Ag 14.141146242837564 13.110985238059273 11.686654874654623
Ag 9.333389771066939 10.544307651792689 8.765718854851741
Ag 9.917657403658785 9.847786089469002 12.929707917588372
Ag 10.348556991506115 7.930148028993064 8.392367515094211
Ag 9.162122775927175 5.96034687728557 9.907426258785467
Ag 8.821510579666992 13.269628104822743 9.399767880859534
Ag 10.328321721290436 12.562162273110328 7.173715389181822
Ag 13.121771103425313 12.581286063816245 7.064477101133292
Ag 16.180130199941235 11.909413053921345 10.302910269822137
Ag 7.617410846728565 11.44255349142785 13.871766205125454
Ag 12.885854069313934 6.068473855696249 13.172914485080064
Ag 8.584452221753844 13.635283411241316 12.198198686764785
Ag 13.356008830448227 15.585942151492826 10.662689716173979
