39
Energy = -83.36564092 eV
Ag 12.57915138168132 9.66372022190422 16.196392675450614
Ag 10.362643084786736 9.651305133940959 14.14009405636814
Ag 8.74874402543224 10.229452547790869 11.802191278211316
Ag 12.513093117385608 11.382944035912143 18.45226213144366
Ag 10.716803667271972 11.68587169036489 16.295426973220568
Ag 12.871641895421487 8.407973107776002 13.723255873927947
Ag 8.978623470677274 12.103440352571761 14.123057137277952
Ag 11.449661556210893 9.572996887409577 11.541361325727157
Ag 14.83689665701018 10.250682466130034 14.610481938527608
Ag 14.171881587357067 8.921905914831063 11.330982167744594
Ag 15.783655382630046 8.038900883979132 13.334219266835893
Ag 7.511092868963795 11.37925255625279 9.493774885294705
Ag 13.838675946609264 12.277427412846846 16.180844424108162
Ag 12.358117022035453 11.591447765923238 13.826330699331306
Ag 10.539991847170597 12.418959985679148 11.78010189065054
Ag 10.20612668361351 10.907374676683242 9.291371383812779
Ag 7.475311013697186 12.781445485375942 11.89286125838257
Ag 12.059662360049808 13.97480591701003 17.37881434550036
Ag 10.865014960099831 14.045526486403093 14.824353572299728
Ag 12.852667389029563 9.829270524186919 9.091423315206415
Ag 12.002777684448072 11.548648743316773 7.145759841925003
Ag 13.36504735539052 11.754906294500783 11.169075684159953
Ag 16.20079050518757 10.726345163759499 12.251994595578573
Ag 14.542166905097877 10.352206362014066 6.927328050094673
Ag 9.214228854753829 14.77846794401126 12.69779412922237
Ag 8.988138009669656 13.787575689310927 9.792775284343367
Ag 15.000735364257627 12.890906897071083 13.67734928083258
Ag 11.675281815292585 13.360629737447303 9.271588496186501
Ag 13.553747272051439 14.931643599546257 15.126633740111554
Ag 12.594645089594435 14.20139650352947 12.462074488407353
Ag 14.265511218822049 12.708058002646533 8.484024267758473
Ag 15.609483655480181 10.549308353324243 9.538136557115472
Ag 11.286899972851732 16.498038097869316 13.584497135707421
Ag 10.93775666171133 15.671126257582285 10.659722871471763
Ag 15.749415912082148 13.22361972571535 10.99317082700072
Ag 13.803916127938077 15.017015790318148 10.024058123183279
Ag 15.102740996663792 15.501840444145785 12.677802838352115
Ag 13.82292501239257 17.529093690856175 14.250706273387689
Ag 13.081017392124384 17.190323472839783 11.58485938804427
