53
Energy = -116.68208133 eV
Ag 11.066270406575494 12.0710140396889 17.242090515878857
Ag 11.822443442180257 7.59871340457847 14.11656212803361
Ag 8.789044685932158 8.344790449789926 15.147003426046492
Ag 11.139166473405963 9.769327533876822 15.676889920579328
Ag 8.70746106237035 11.271449827759858 15.905775417793114
Ag 13.421968300571809 11.35686633989004 15.93168920757761
Ag 13.093161690859235 10.038118963064617 13.54465258002794
Ag 12.584007846535771 14.117313142022404 16.114712817920076
Ag 15.702895412797035 11.37238891251166 13.682652189775954
Ag 9.468119347232806 6.7603129170575995 12.927543187710773
Ag 9.635313959764487 14.250447230766841 16.13273769579742
Ag 15.24382590135675 13.385976607991683 15.708098866674021
Ag 11.828828788557853 6.118710408471353 11.623585598962842
Ag 11.15207408159983 8.82637192799565 11.64619214276359
Ag 13.882361903717626 8.150950292931006 11.544577874868265
Ag 10.775973137242179 12.56443601876445 14.303916705779217
Ag 9.387300910697434 10.305693282146137 13.34608940939535
Ag 7.416537145418058 8.509059684143683 12.415750270074785
Ag 7.78380440508303 13.380374228519358 14.271794497971166
Ag 16.519716548313106 14.172984319411574 13.422953559224608
Ag 16.43846626072482 9.531133536999036 11.526690377667936
Ag 16.835253508258504 12.535381657675666 11.279618522213571
Ag 14.191769913031603 15.604577348245588 14.113115135038589
Ag 13.439251288429862 13.03919539388887 13.39078102397633
Ag 11.5744910672965 11.58861480291532 11.739425416991388
Ag 9.32287686226543 7.350133560507993 10.186098094719227
Ag 14.341377234063545 11.218181155689928 11.141081242812206
Ag 11.346889909509084 15.40493085429249 13.99692021047678
Ag 8.729185070405855 10.083059752645802 10.56086681083715
Ag 14.792597357372069 14.665002870568832 11.338426237178307
Ag 12.84048113470356 16.65958210254211 11.858338657467343
Ag 6.754384435749558 11.251442222494596 12.555853224078815
Ag 12.332815266984765 10.27161846277243 9.41434313450792
Ag 16.581646731366366 10.90130693039405 9.090283398161509
Ag 14.751541030441066 8.83045943547317 8.994810643918456
Ag 9.03899856944401 12.720594995404316 11.859551889468678
Ag 12.1326183982115 7.481710399633941 9.217206424651796
Ag 12.692773377722384 9.117744240455176 6.936943683987212
Ag 11.376234215578046 14.352420521619868 11.36848429242339
Ag 9.009380996766351 15.490061059244724 12.52360561852471
Ag 12.91282902972059 12.993538702336933 9.461848308330818
Ag 10.073826548994832 9.339315594014963 8.19130366459195
Ag 6.624309062416828 14.121931325580858 11.82113070808542
Ag 15.619581736700711 13.571366045654786 8.896677493651163
Ag 7.190617474324302 12.27737816139103 9.77079818348279
Ag 13.340593510094978 15.762093967773236 9.199139831782094
Ag 10.667738618265082 16.65366950174504 10.044807667012284
Ag 14.405885834926568 11.316430249507318 7.480608174557883
Ag 10.023537004210604 12.172113851524527 9.211073063214108
Ag 8.70165525341302 14.672453800747554 9.75939713226708
Ag 11.670364254773515 11.830935570503362 7.011384417262084
Ag 13.593900592683909 13.977393384086154 6.94090878713964
Ag 10.991431306078539 14.59442030084564 8.058767847175945
