16
Energy = -6.7311814 eV
Zn 9.975015376611848 13.26596530855732 12.776706450062338
Zn 12.215142833442545 11.729113803473128 12.527515779627825
Zn 14.303427944719258 12.828900076066809 11.143653
Zn 7.983878055280744 9.458405923933194 11.143653
Zn 8.173815647037163 12.097516355920183 11.143653
Zn 10.07216316655745 10.55819219652687 9.759790220372173
Zn 12.31229062338815 9.021340691442676 9.510599549937655
Zn 14.113490352962836 10.189789644079813 11.143653
Zn 9.975015376611848 13.26596530855732 9.510599549937655
Zn 12.215142833442545 11.729113803473128 9.759790220372173
Zn 10.07216316655745 10.55819219652687 12.527515779627825
Zn 12.31229062338815 9.021340691442676 12.776706450062338
Zn 9.48707274544317 15.384620650797082 11.143653
Zn 12.800233254556833 6.9026853492029225 11.143653
Zn 10.27845393710667 8.188399292817483 11.143653
Zn 12.008852062893322 14.098906707182508 11.143653
