10
Energy = -3.43954973 eV
Zn 10.99291285177386 8.158159514561369 6.261613323266514
Zn 8.94414622461871 9.185449072981012 7.698172926363512
Zn 11.376446708793706 9.965509773316137 8.467634160101785
Zn 10.552482975119142 7.4433846815776255 8.877580283861873
Zn 7.41480047851486 11.132104180806708 8.643010070510506
Zn 6.949739304291017 8.538036080481788 9.34596508272053
Zn 10.638041656742013 11.374507771809144 10.696244109613591
Zn 10.536936030996747 8.760156917786205 11.276634377746031
Zn 8.293024951556797 10.16307518186537 10.973847268417275
Zn 9.732466254177266 10.710614261398895 13.19029583398222
