11
Energy = -3.61757394 eV
Zn 11.357176896678762 6.671304401950876 7.690309207815652
Zn 10.27864213944568 9.107270157384633 7.161081077824354
Zn 9.601634704911115 7.457151069993993 9.483756532795741
Zn 9.122231759185427 7.109861848851445 12.193442333262594
Zn 9.126877106615495 11.405426004834172 6.315015591330447
Zn 9.603673332419508 9.565009457909925 11.009001167349192
Zn 10.320939749789174 11.23352113349355 8.744570854175247
Zn 7.321464378610666 8.290132187611349 10.530168842810209
Zn 8.034203953871492 9.92581498320967 8.386819192687426
Zn 5.393080262653872 9.359191021474912 8.869321145612151
Zn 11.422717317856097 11.48221346390501 11.21616896165966
