13
Energy = -5.78039334 eV
Zn 12.130769666019512 11.419907555619682 10.67926007638706
Zn 10.77657875448187 8.188712114760307 11.085522522867992
Zn 9.711578324070897 12.24310309996609 11.584820866145357
Zn 9.846310008767306 7.206863260879879 8.903826021229122
Zn 8.353610405061868 8.836555134113281 10.530026143090232
Zn 7.193662733508371 6.958722702329356 9.114715872645034
Zn 10.950617595343756 10.224749811951188 12.745823409673324
Zn 8.397782190541559 11.287869449224845 9.544805717891977
Zn 6.76886083565007 9.48885235156924 8.514035969279812
Zn 10.589014779384636 8.51227206904616 6.716985332667075
Zn 8.131612615058268 7.840743539748636 6.864812918477
Zn 10.660753611287607 9.805111287727204 8.98037012893041
Zn 8.879833327541343 10.441107643010211 7.161907296336626
