12
Energy = -0.59512401 eV
Zn 6.026306750915988 -3.6959182978599774 2.618699112422418
Zn -9.91422653293424 1.0338429495511192 3.5939713871105545
Zn 8.315863366727678 8.943892173135172 9.534908777041617
Zn 4.922414193193196 3.469331092243874 3.2162895646183918
Zn 2.2568276482542156 9.676661810126133 3.940729735419292
Zn 7.832544518267804 2.739727134854265 8.062952014995185
Zn 15.610405195562484 12.109388592037359 10.744211906191405
Zn 3.3514952569187635 8.819806199516455 6.486975571979945
Zn 13.181368125443464 15.022292406087955 6.0233291712038115
Zn 4.921954673170629 10.503279031647725 4.697275178341044
Zn 8.717088945732746 8.735159491454903 6.483031667854484
Zn 16.584550506348098 3.949171761768443 16.2296858567935
