10
Energy = -1.78208703 eV
Zn 7.474062397089144 6.852714992830084 7.437574756284729
Zn 10.022291593392003 6.852750742491215 7.437702656308977
Zn 7.409413089276342 9.2891496168543 7.425796835244486
Zn 10.08667692405635 9.289180701189483 7.425106876899318
Zn 8.74811617645328 11.456984864278677 7.43804698425505
Zn 7.4739813904632 6.85267884037677 10.058455192597862
Zn 10.022144082230268 6.852615594613065 10.058583264176164
Zn 7.409509757967536 9.289144048773782 10.071086889180336
Zn 10.086879754167427 9.28908694908412 10.070397573396368
Zn 8.748154812820667 11.456923693676186 10.058479015824517
