11
Energy = -3.61792216 eV
Zn 10.914954788915576 8.722460157142198 9.045702607528032
Zn 9.257066520661555 9.616630945657771 7.182702427401468
Zn 10.657787958706143 11.413521144319393 8.806179267390478
Zn 9.569600115631872 7.05087030297763 7.693291705492656
Zn 9.281035727769206 7.094094946257751 10.331743300936719
Zn 9.517841280926577 9.650615422081685 11.095286635278036
Zn 7.1025042816522435 8.690592718178834 10.497302047493775
Zn 7.71230890559918 7.668514795835026 5.76513126956744
Zn 7.1729098445311745 6.651993067766386 8.732579609224812
Zn 6.781558367485159 9.09728859670576 7.8867799972683095
Zn 8.047675608295787 10.82781591076374 9.22194513290874
