16
Energy = -7.39675114 eV
Zn 9.830001 12.833625479787182 10.349232081917291
Zn 7.6823398060683585 11.977662193931637 9.299371681649285
Zn 6.826376520212814 9.830001 10.349232081917291
Zn 7.6823398060683585 7.6823398060683585 9.299371681649285
Zn 9.830001 6.826376520212814 10.349232081917291
Zn 11.977662193931637 7.6823398060683585 9.299371681649285
Zn 11.73185162733916 9.830001 7.859651482495683
Zn 9.830001 7.928150372660847 7.859651482495683
Zn 7.928150372660847 9.830001 7.859651482495683
Zn 12.833625479787182 9.830001 10.349232081917291
Zn 9.830001 11.73185162733916 7.859651482495683
Zn 11.977662193931637 11.977662193931637 9.299371681649285
Zn 11.153060647367619 11.153060647367619 11.811748753937737
Zn 11.153060647367619 8.506941352632381 11.811748753937737
Zn 8.506941352632381 8.506941352632381 11.811748753937737
Zn 8.506941352632381 11.153060647367619 11.811748753937737
