11
Energy = -4.61320387 eV
Zn 6.810509777114528 6.986260055014384 6.512026956137028
Zn 6.332484619735123 9.48105619097993 7.033476642815227
Zn 9.227300636682468 6.206450179635501 6.297573382353662
Zn 8.850200459456197 8.943899101338758 6.329753128366492
Zn 4.207574944889544 7.115060303928876 7.2835835440894
Zn 10.895420356433291 9.9974492283793 8.208708893881912
Zn 9.977333494661378 7.589428758992083 8.409982454793491
Zn 8.05754589180813 5.758848931358589 8.668349478745958
Zn 8.246063196818202 9.69068090461992 8.824972606065971
Zn 6.21715037226705 7.7699722311600175 9.069916391471532
Zn 8.338615469807094 7.621093334265616 10.521855740952311
