12
Energy = -3.65835853 eV
Zn 9.39265468079592 12.308439477780125 9.470131
Zn 10.530299310388312 10.291497450428798 10.976034970354121
Zn 8.446969477876959 11.606154217877014 11.944076470107087
Zn 10.49329252212304 7.334107782122987 6.996185529892917
Zn 8.446969477876959 11.606154217877014 6.996185529892917
Zn 8.40996268961169 8.6487645495712 7.964227029645881
Zn 9.547607319204083 6.631822522219874 9.470131
Zn 10.49329252212304 7.334107782122987 11.944076470107087
Zn 7.467283948790514 10.491341716089583 9.470131
Zn 8.40996268961169 8.6487645495712 10.976034970354121
Zn 10.530299310388312 10.291497450428798 7.964227029645881
Zn 11.472978051209484 8.44892028391042 9.470131
