11
Energy = -4.71836715 eV
Zn 10.320058 10.320058 12.88980328477201
Zn 11.709576556372237 11.661605692582185 11.10152131591663
Zn 10.320058 13.965485902506149 10.353060185826617
Zn 8.93053944362777 11.661605692582185 11.10152131591663
Zn 8.93053944362777 8.978510307417958 11.10152131591663
Zn 8.080754364320002 10.320058 8.993508750649639
Zn 10.320058 11.686714370143877 8.765805873247338
Zn 12.559361635679995 10.320058 8.993508750649639
Zn 11.709576556372237 8.978510307417958 11.10152131591663
Zn 10.320058 8.953401629856117 8.765805873247338
Zn 10.320058 6.674630097493852 10.353060185826617
