12
Energy = -2.44820799 eV
Zn 10.19606356764339 8.35092753 10.19606356764339
Zn 10.19606356764339 10.19606356764339 8.35092753
Zn 8.35092753 10.19606356764339 6.505791492356613
Zn 6.505791492356613 8.35092753 6.505791492356613
Zn 8.35092753 6.505791492356613 10.19606356764339
Zn 6.505791492356613 6.505791492356613 8.35092753
Zn 6.505791492356613 10.19606356764339 8.35092753
Zn 8.35092753 10.19606356764339 10.19606356764339
Zn 6.505791492356613 8.35092753 10.19606356764339
Zn 8.35092753 6.505791492356613 6.505791492356613
Zn 10.19606356764339 6.505791492356613 8.35092753
Zn 10.19606356764339 8.35092753 6.505791492356613
