11
Energy = -4.6603198 eV
Zn 11.788896724875933 11.094629659765664 11.644310147945172
Zn 7.64631192303429 9.945583287055745 8.750482221016204
Zn 9.388893652610486 11.719163532723998 8.04769374951366
Zn 11.409351049204796 10.393735120370943 9.159987748115348
Zn 11.40957000700497 7.742067534782265 8.885282556990866
Zn 8.854331246204444 7.563499549283524 9.241022577796015
Zn 9.900492425938864 9.235227475405068 7.328934974745601
Zn 10.415352669982425 8.7704253565182 11.157375994691309
Zn 9.228074197371674 11.129363371716503 10.669310891474515
Zn 7.796354858144619 8.985291189184888 11.19086809388412
Zn 6.3363167461009375 7.595475712396819 8.096565888373954
