17
Energy = -8.9312088 eV
Zn 9.504629815378214 7.670431512731939 6.307094883319372
Zn 8.218837803829969 9.889018070564234 6.193329775989984
Zn 10.673189680018794 9.915265042333392 6.91909911295571
Zn 7.154411505345788 7.276142807969104 7.1633214173476025
Zn 11.316302469630239 7.288258219457916 8.007501857458042
Zn 6.255805185909346 9.557551749623167 7.796181185407447
Zn 7.953199065258468 11.514446314754776 8.173331961111161
Zn 11.908750546126415 9.461257949511547 9.158445433046108
Zn 9.030511554072856 6.216577754377405 8.569445060552018
Zn 6.675760780171251 7.638074351249485 9.675936401621142
Zn 6.46849807958775 10.14939053071408 10.2314837658575
Zn 10.424456604850675 11.525632865114611 8.897509519005299
Zn 8.61700886823167 11.39092974926222 10.689830296659949
Zn 10.809181935505954 7.450158355069627 10.534228185007068
Zn 8.512414966536406 6.545161236917709 11.020604439663344
Zn 8.2245820106868 8.952822558282172 11.701429167843385
Zn 10.599264022652147 9.905685825859633 11.30803243094757
