12
Energy = -5.18154153 eV
Zn 10.027119582258777 10.474806654660233 5.874097650867039
Zn 9.153879487408348 8.297393522628942 6.958767192704505
Zn 8.45417967946222 8.313750394670478 9.535803877488133
Zn 10.88829507127978 9.207547821281565 9.186473143837647
Zn 10.642928938696057 11.689562992437365 8.055487197667214
Zn 8.742998193929381 10.928457081386918 9.683088280039591
Zn 11.233150103746583 11.564174043552002 10.548740893885794
Zn 12.469462055649457 9.243261211018117 11.24451756392853
Zn 8.098985321822338 9.537695775359467 11.913133402100485
Zn 10.183782430099061 7.933782737004448 11.453472892812817
Zn 9.05654220353507 12.053885266021839 12.004626339842373
Zn 10.60279397530617 10.164307128679377 12.831675134788904
