11
Energy = -4.05222846 eV
Zn 10.8374671020189 11.28024343483157 10.918528325750747
Zn 10.210725197217316 11.022291643517825 6.207172524932682
Zn 10.389826886248954 8.347010170901362 10.739299553207175
Zn 9.61763853995418 9.927886555044559 8.72779011519899
Zn 9.962639381892027 6.333307170719895 8.903406883667374
Zn 7.658191475236445 9.727061333523947 7.021793998880765
Zn 9.836320173618473 8.120420083505296 6.78534318650738
Zn 8.1993714468104 9.949103122181315 11.025230073553903
Zn 6.164938312187187 9.13458780952734 9.289056440533912
Zn 7.387333389314426 6.96727935884137 7.815267006260104
Zn 7.8083345228657395 7.125314062363092 10.625742024562971
