16
Energy = -5.49168664 eV
Zn 10.53144 13.0516585910763 10.746733072007219
Zn 10.53144 8.011221408923697 10.746733072007219
Zn 10.53144 10.53144 11.874416357809695
Zn 8.447047378765175 9.174776577293793 12.988392015904509
Zn 8.447047378765175 11.888103422706209 12.988392015904509
Zn 12.615832621234823 9.174776577293793 12.988392015904509
Zn 12.615832621234823 11.888103422706209 12.988392015904509
Zn 9.174776577293793 12.615832621234823 8.074487984095487
Zn 11.888103422706209 8.447047378765175 8.074487984095487
Zn 10.53144 10.53144 9.188463642190305
Zn 9.174776577293793 8.447047378765175 8.074487984095487
Zn 8.011221408923697 10.53144 10.316146927992778
Zn 13.0516585910763 10.53144 10.316146927992778
Zn 11.888103422706209 12.615832621234823 8.074487984095487
Zn 10.53144 10.53144 14.51464613055876
Zn 10.53144 10.53144 6.548233869441238
