12
Energy = -4.86680468 eV
Zn 9.35252665025016 9.404860450911674 5.954174839383575
Zn 6.96403666924137 9.39236126647452 7.215382979974312
Zn 7.277374191216621 6.820761446911436 7.854830003648868
Zn 8.38642170175511 11.57332015458302 7.047480540138644
Zn 10.297841796338005 10.531545121996132 8.404575535901747
Zn 9.511918233012818 7.932475209382269 8.148915582134459
Zn 8.14436697463739 5.712744653088271 10.140645958282535
Zn 7.524645381761509 11.097746082466545 9.546163751458215
Zn 11.459607930484289 8.506310756150398 9.679764812619235
Zn 9.259147900165745 9.44894291350999 10.61191585219858
Zn 10.378939092396466 6.561906313660997 11.124005309274642
Zn 6.943421347420759 8.51727349954528 9.772392703665428
