19
Energy = -9.61741062 eV
Zn 12.144488349218067 9.50656935011806 9.684776552416263
Zn 9.870232909391214 8.423203660354575 8.750375586269064
Zn 12.439503175375396 11.894904982952845 8.779378787098489
Zn 11.186913774635027 10.090251024921637 7.29895423824395
Zn 10.755743517421612 7.895896694648514 11.176715858615806
Zn 8.386401473142529 7.150011981925742 10.458805609817366
Zn 10.570556134852742 12.675299429710291 7.170585196894783
Zn 8.265143110787978 9.378804056243332 6.869331187097504
Zn 9.119440464009667 11.328577553078743 5.685228153415641
Zn 7.027757040424128 8.527067735291721 8.85382053179217
Zn 12.73109330975486 9.473469187793095 12.15603511695162
Zn 8.137446446632852 10.946694538461758 9.238850239425446
Zn 10.83975336907291 8.634946972482783 13.85324219380988
Zn 7.1528704668485075 9.490497195799684 11.169903674376098
Zn 8.633109220450299 8.258179035390278 12.827017636488264
Zn 10.074757688531971 12.50685865696905 9.711478823818885
Zn 9.412342514876611 10.791845401132345 11.536828960884835
Zn 12.042653823003562 11.956885967689683 11.295266302978884
Zn 11.25711605289119 11.124084116900415 13.552061887168446
