11
Energy = -4.50072475 eV
Zn 9.088718209141497 7.2769923744501295 8.93240369427166
Zn 11.297256543988512 8.953283538374903 8.574547995983092
Zn 8.93325650122012 9.566041717964843 7.527639375213741
Zn 10.930285112624162 10.360868164829254 6.033559719958577
Zn 10.682881500330847 8.014797503233579 10.905249852592684
Zn 9.686462916498158 9.053965772334593 13.334421043204324
Zn 10.442264574060518 11.459324768595236 8.58524855671506
Zn 6.891857904137261 8.964561587904944 8.958033548855033
Zn 10.420316467866844 10.665411435213748 11.0411703878969
Zn 8.269010911990728 9.065707454047995 11.124137823099247
Zn 8.04865900787447 11.33227024836636 9.702845459647945
