10
Energy = -1.72632067 eV
Zn 6.602781291896592 8.008388799943148 9.915306264445329
Zn 8.69125761 6.535956525950701 9.912221805392402
Zn 10.779733928103406 8.008388799943148 9.915306264445329
Zn 9.963891868270473 10.429467148773576 9.90321791074253
Zn 7.418623351729521 10.429467148773576 9.90321791074253
Zn 6.602781291896592 9.374126420056854 7.467208955554666
Zn 7.418623351729521 6.953048071226418 7.479297309257467
Zn 9.963891868270473 6.953048071226418 7.479297309257467
Zn 10.779733928103406 9.374126420056854 7.467208955554666
Zn 8.69125761 10.8465586940493 7.470293414607593
