14
Energy = -5.95534343 eV
Zn 8.549449140478066 8.587495875903427 6.453541239125083
Zn 9.148766653605929 9.956150063415599 9.041827273910739
Zn 7.153710325914414 8.763152596752702 10.423399232368974
Zn 6.642917054457165 9.602921865587916 7.811093786086648
Zn 9.664352144285584 8.068262392076436 10.660423474998355
Zn 8.294074728889623 6.233373756462436 9.369168645883464
Zn 10.36439430582028 7.685306274971922 8.086184597935775
Zn 7.719451710170465 6.72941462502317 4.398534027345856
Zn 5.787891353447674 8.082146986665217 5.691314475348009
Zn 7.82699512602155 12.009314366247544 8.066404220624074
Zn 6.772786341043826 4.625899905242698 8.075242136017375
Zn 6.089716595186294 7.20480378031102 8.366230385764533
Zn 5.919880114828044 5.497952216780359 5.811156771162372
Zn 8.734465939532903 6.060689289720364 6.815374748038274
