16
Energy = -7.59028089 eV
Zn 7.417071078395973 7.898031110561011 6.318609255682756
Zn 6.9868167187980905 10.500244684562999 6.609471268980542
Zn 9.894283421797773 6.891803163374778 5.928828129662881
Zn 9.501801171182747 9.60990500958358 6.084785021039245
Zn 11.069413428879512 6.898764307263969 8.259970926606753
Zn 6.595764395387445 8.916358831858899 8.677694231576048
Zn 6.43996332699384 11.709328250178167 8.918477679798645
Zn 10.111048171100508 9.392306142878548 8.638750600280854
Zn 8.947175990464183 11.582964735646849 7.923758139915185
Zn 8.464350378580912 7.152443126047422 8.6945713777452
Zn 11.437554196766195 8.080810150130482 10.492737079817472
Zn 8.133259089599953 10.279021694424534 10.373144969978041
Zn 7.454956729504357 7.801073442142141 11.006103791761667
Zn 10.592256081479139 10.513577339908885 10.959775215787037
Zn 9.595434946210638 6.293389906551543 10.9195290771077
Zn 9.491849778184134 8.612977008211141 12.326792137585333
