15
Energy = -7.13186818 eV
Zn 13.052614875540591 9.588153162598402 10.214829899262902
Zn 11.069853489185911 9.092054998626015 11.899725212846112
Zn 11.250153913223981 11.567624678551734 10.934715677335454
Zn 8.860794358544448 10.438335844640445 11.22075211568087
Zn 11.593098991269697 8.815274089500745 8.092751840164993
Zn 12.228232931199413 11.3854271316199 8.549690703048041
Zn 9.416107555363553 8.096978722842517 10.15693925956565
Zn 11.881498481163835 7.2395485354261435 10.164223429646825
Zn 6.4657526807981 11.033669747174372 10.18509744828885
Zn 9.746360297447506 10.682909321693407 8.66685730883892
Zn 6.870648137429734 8.538609339051323 10.809109828949717
Zn 9.111111175873084 8.38472457067662 7.519737604625895
Zn 7.531311988651701 11.763298890912798 7.998834929459076
Zn 6.660474514257788 9.351479825218188 7.7994118254535
Zn 7.250117516355999 6.992139298034094 8.772377510742466
