15
Energy = -6.11245566 eV
Zn 9.54434390966535 7.356210054249761 12.747598358796411
Zn 8.029595908339354 7.667660075961456 10.538304786056939
Zn 11.422639804365692 7.9229509695721 11.045733975546469
Zn 12.328209362959207 7.383307079551109 8.617401256205254
Zn 9.027569356303543 9.745412677175736 11.654419369830558
Zn 9.713887581556625 7.9849817883654 8.588298412948745
Zn 7.136445818423423 8.820558049812176 8.346830104186369
Zn 9.61630204825149 11.529994375766902 9.834813556266573
Zn 11.671112148147632 10.618174524214286 11.607359271740213
Zn 11.464294345420244 9.90742974013789 9.067566213571606
Zn 7.197016341717588 11.479137368102611 8.605662984231195
Zn 11.387726671269922 8.982214427382718 6.360715501808449
Zn 9.225695067302187 10.357197562951399 7.128080098750459
Zn 7.224159981753852 11.64596978922089 11.273912985573851
Zn 6.725020878178518 10.349913469986163 6.266574677163558
