18
Energy = -9.14750788 eV
Zn 10.151851959357097 12.916307550464916 8.912735029841853
Zn 13.033229431200983 9.274331801847934 7.447577583164282
Zn 12.163745153544268 13.02563260870284 10.707212862913396
Zn 10.35048000691013 10.410546389778252 9.944212517209793
Zn 12.223048212494954 11.458966163196441 8.525288676374242
Zn 11.885728179447124 8.970554314550897 11.923147673860687
Zn 9.434093860171936 9.195690155504478 13.022277675960618
Zn 8.025881293087949 10.835883745246589 8.925285989596317
Zn 13.658409761282805 9.677937305056291 9.981330396930009
Zn 13.431008961966999 11.126276756483264 12.044363970596024
Zn 10.733301465274977 11.336638236286879 12.436379874438641
Zn 7.494726322082782 8.550122348620562 11.428896535182357
Zn 8.809638814906341 8.424276144905757 9.239085536014604
Zn 9.898518113277003 7.245133029607118 11.328341634616276
Zn 11.46062878516293 8.180505065920052 9.295142879657696
Zn 8.250197990984006 11.108322315938251 11.679956086451366
Zn 9.633260743729924 13.52782542826452 11.634845272982384
Zn 7.7843889054864706 13.179818204656671 9.884297865145909
