16
Energy = -7.7363656 eV
Zn 10.041243576160305 10.114234933987575 13.200289336321228
Zn 8.845220101413094 12.251816681069004 12.371957845156322
Zn 9.302392714098703 10.76355431846198 8.689679430202569
Zn 9.308490194477772 12.993598141703268 9.937048095394625
Zn 7.063650931263462 11.75480701602197 10.349870133330441
Zn 13.205818903615857 10.19414358021998 9.300129576038719
Zn 7.4105860338324225 9.284695172588872 9.58227282028094
Zn 9.555419579580915 8.261258257269418 8.122164798767907
Zn 11.107258246098928 11.289368073687692 10.925636523743329
Zn 9.86695012209368 8.837846781451992 10.782233006392435
Zn 7.720972780597464 9.807435786025327 12.115162941107181
Zn 11.549038187042685 11.926771008220774 8.356317952795752
Zn 12.406055354565277 9.39789959605577 14.045727392922991
Zn 12.511052623014042 8.98280974229872 11.473133880269678
Zn 11.869201522182932 7.856063001976567 9.245345620808015
Zn 11.569067618105622 9.604054186735283 7.181060814237928
