12
Energy = -4.28025994 eV
Zn 10.294654 13.968988453837273 8.510214554889735
Zn 11.604698764296518 8.922489338591708 8.799533145039947
Zn 11.604698764296518 11.666818661408293 8.799533145039947
Zn 11.654228445971794 10.294654 11.431362987122249
Zn 10.294654 13.0939221587313 10.978175400380826
Zn 8.984609235703477 11.666818661408293 8.799533145039947
Zn 8.984609235703477 8.922489338591708 8.799533145039947
Zn 8.935079554028208 10.294654 11.431362987122249
Zn 10.294654 6.620319546162727 8.510214554889735
Zn 10.294654 8.74645115286685 13.249104711565336
Zn 10.294654 7.495385841268703 10.978175400380826
Zn 10.294654 11.842856847133154 13.249104711565336
