14
Energy = -5.5408733 eV
Zn 8.065337983001816 9.374044915193851 8.58310471640132
Zn 9.115885586126073 11.548449627876144 9.566436053662219
Zn 10.094028826934734 10.406785359661914 6.2152344239212205
Zn 7.392339883569498 10.154991009027146 10.940760901131963
Zn 11.318754116430492 8.556102990972853 10.940760901131963
Zn 9.835369403621451 10.549066923535936 12.008931857745075
Zn 8.875724596378554 8.162027076464067 12.008931857745075
Zn 11.102983167844695 12.135693221228586 7.8851083645454985
Zn 10.645756016998176 9.337049084806148 8.58310471640132
Zn 8.617065173065264 8.304308640338078 6.2152344239212205
Zn 11.68688635649114 11.237527686442606 10.289252626630995
Zn 9.595208413873927 7.16264437212385 9.566436053662219
Zn 7.024207643508864 7.473566313557391 10.289252626630995
Zn 7.608110832155301 6.575400778771411 7.8851083645454985
