16
Energy = -7.54891917 eV
Zn 8.11743550559582 8.85793247802975 6.343427609864107
Zn 8.813864965029698 11.244219875278308 7.95432060801844
Zn 7.875780451301112 6.327968798809327 6.8847528174969
Zn 6.492485971709743 10.802244648763622 6.874659085802644
Zn 10.273412917655635 9.042688015504842 7.87030110412539
Zn 8.939822748086819 7.145515321688138 9.27054463685745
Zn 6.391262687991835 8.036412262073343 8.192331532175105
Zn 12.720604847223065 9.599365114247158 8.458291139526237
Zn 8.677220339817232 9.729113977730298 10.097347545996522
Zn 11.573772575523241 7.343595942845541 9.442194940436012
Zn 6.184046686500283 10.394114345736407 9.402006760872053
Zn 10.930361235232757 11.260670270366045 9.564493738723963
Zn 6.526857885354164 8.129700293580495 10.770200263995669
Zn 12.132284830246313 9.441713685812536 10.991563965268108
Zn 10.055931497821579 7.878853016371361 11.555926156083427
Zn 10.079746817455536 10.550783915707827 12.112530057303093
