17
Energy = -7.3689585 eV
Zn 10.538633 14.149853815908518 10.433886276077171
Zn 12.459184227019755 8.552482356023328 10.345578922096882
Zn 12.459184227019755 12.524783643976674 10.345578922096882
Zn 12.650555172617715 10.538633 12.368145627406781
Zn 10.538633 12.590860150873558 12.400978766215804
Zn 12.181283997414216 10.538633 8.21972439280554
Zn 8.618081772980243 12.524783643976674 10.345578922096882
Zn 8.618081772980243 8.552482356023328 10.345578922096882
Zn 8.426710827382283 10.538633 12.368145627406781
Zn 8.895982002585777 10.538633 8.21972439280554
Zn 10.538633 12.436964765777509 8.414237354168934
Zn 10.538633 8.640301234222484 8.414237354168934
Zn 10.538633 8.48640584912645 12.400978766215804
Zn 10.538633 10.538633 13.806299039474082
Zn 10.538633 6.927412184091479 10.433886276077171
Zn 7.139114316128447 10.538633 10.14710069141459
Zn 13.938151683871562 10.538633 10.14710069141459
