10
Energy = -2.94375158 eV
Zn 9.845743507043156 9.572349959256233 8.114973761921844
Zn 10.585061513708968 10.686689668842629 10.643479387145645
Zn 9.283353417770158 12.983556441908386 11.07036644638548
Zn 7.665328326709763 11.111692364267839 9.909778601540712
Zn 8.660669518658345 8.036745349563251 6.258967014157096
Zn 12.524849388837405 9.376735408913017 11.988431581161429
Zn 7.120796788393847 9.754666442488265 7.619347217985315
Zn 8.366284618154408 8.604336948023233 10.08278713237042
Zn 10.751856124815218 7.761197976104739 10.67850163867345
Zn 9.85050376841639 6.777832028843994 8.302088328684384
