12
Energy = -4.3777174 eV
Zn 11.37685810585394 8.681595255059111 11.27839739672476
Zn 11.171467606769466 11.63253285377703 11.209016232745952
Zn 8.850529690191571 10.13434118756359 11.20604860699814
Zn 8.953488290997761 12.650627435605672 9.8785695
Zn 11.171467606769466 11.63253285377703 8.548122767254048
Zn 11.37685810585394 8.681595255059111 8.478741603275235
Zn 8.850529690191571 10.13434118756359 8.551090393001857
Zn 13.044600570554307 10.228753450857461 9.8785695
Zn 11.55012820983755 6.3670872757117385 9.8785695
Zn 6.615605976736862 8.976431229126469 9.8785695
Zn 9.094920322002316 7.79639782661016 9.8785695
Zn 6.486379824241369 11.62659824525127 9.8785695
