17
Energy = -8.57122398 eV
Zn 9.269329669431688 11.334246656616331 7.075607888783394
Zn 10.150585014585339 8.786001125284864 6.459098974526242
Zn 8.079745176335804 7.106923114868972 6.290992960898572
Zn 7.835374188186251 9.628945075356794 5.517992234632494
Zn 11.326414497715604 10.147032158252824 8.396631683355965
Zn 5.750057568215042 8.50135113377588 6.7865773647202445
Zn 6.3361114878965665 6.132278296158666 8.002361135024817
Zn 8.90592292168741 5.876889006734703 8.525308306386405
Zn 6.9188850508648185 10.564581005924463 7.956533951139395
Zn 8.50963665946401 8.513411329685479 8.513148999625441
Zn 7.114467261430862 6.395096130711364 10.575850332292353
Zn 8.964075961857183 10.868216906656071 9.651145682790002
Zn 9.795029124993423 6.684346137777575 10.866504386434675
Zn 6.013451170100245 8.50129310732878 9.403052923226136
Zn 8.056692543539112 8.80340949593823 11.10009743187037
Zn 10.974618682341852 7.5579592193112655 8.675970390112186
Zn 10.64921991808352 9.247636996345637 10.852742250909063
