15
Energy = -7.03356964 eV
Zn 8.505862518477826 6.929352920627123 10.537639848948128
Zn 6.635212381409669 8.64775958482444 10.675573855947128
Zn 11.255988339859845 7.207652299221913 10.484780670748167
Zn 9.717140095087222 8.411357111605977 8.754856680621147
Zn 11.727507540462645 9.309004620657301 11.779709185374006
Zn 9.021190872919657 9.82162559670276 11.224287064897887
Zn 12.578452682982457 8.980682069096027 9.102896575078338
Zn 6.053610791444688 9.765339523800703 8.087260681218977
Zn 12.304808838057351 11.608439796790217 8.786020713568549
Zn 11.018585351234673 11.613263042772147 10.978550587921466
Zn 7.25823794228114 7.446104055333377 8.273624467302119
Zn 6.997224005842634 11.129006524304533 10.013725218152825
Zn 11.024620700754872 10.056865660685625 7.226977566035233
Zn 9.328512184048115 11.219364680167528 8.983100941156707
Zn 8.308027009650237 9.596807145086732 6.912576103445791
