13
Energy = -5.28989319 eV
Zn 8.715312953887418 6.817826366106769 7.148253700686842
Zn 6.746154291450656 8.234761331757785 6.261593722422655
Zn 10.73661903356426 7.043915368307892 8.612540157642654
Zn 7.708074898636598 8.661459632186917 9.076170266166258
Zn 7.250990148443166 10.583923294272175 7.161546600062078
Zn 7.505629114406645 8.220470016320734 11.656746407552639
Zn 10.032138059749308 7.987538988361537 11.03385962823406
Zn 12.478640724647695 8.326076091708135 10.284133778060674
Zn 9.932908935867404 9.356678077946453 7.700548628583809
Zn 8.998607573056528 11.490029105243657 8.879477792770153
Zn 11.276740374217553 10.535447763183644 10.070293944187512
Zn 8.795823556966798 10.440671226329357 11.329240912322568
Zn 10.189930063240626 12.656961282144355 11.15472527149414
