15
Energy = -7.18738508 eV
Zn 7.5446845077568 11.722528512680856 10.949539010025495
Zn 7.194248063679558 10.643708003798093 8.601878638563516
Zn 9.28867059019127 10.236972805828662 6.878391170514833
Zn 8.159951046009093 9.753024689713298 12.752848877844055
Zn 6.554896555454604 9.147994487405633 10.558556567085265
Zn 9.682880335098604 11.224901365524 9.312536088514738
Zn 11.729735017090091 10.87548610489857 7.528397925256019
Zn 12.162377359617402 10.944072394320834 10.111411592242673
Zn 10.905390620374904 8.272894503255054 6.972888751115537
Zn 9.947338213368546 11.366357349047345 11.919769985467447
Zn 8.403214834859709 7.586044483298187 11.414355379267672
Zn 12.89020303187238 8.82210951450109 8.881245217308372
Zn 10.605118325904652 8.949373798933749 10.974729482498567
Zn 8.802876066119573 8.418390017335232 8.915965305739128
Zn 11.07819408664629 7.053226466346719 9.218713672780716
