10
Energy = -4.35977562 eV
Zn 8.92988307392006 7.286371437307375 9.909614080824355
Zn 8.870363664038269 11.512441879606055 8.545264510552624
Zn 10.306456432533086 9.716155129177475 9.895309616805712
Zn 7.49185297291157 9.697325035610525 9.899597265497164
Zn 10.256312325433624 9.699207036301289 7.241624455496308
Zn 8.902661449895984 8.91440122892835 11.925786392228709
Zn 7.515202588408762 9.67198845813612 7.240941899043651
Zn 8.915909314345363 7.339474250384917 7.246477070764819
Zn 6.656518444786548 7.574939390917173 8.570424136601353
Zn 11.178594733726477 7.6114511536304645 8.548715572185058
