14
Energy = -5.5752066 eV
Zn 7.458880709995968 8.06604483551687 6.745923361843457
Zn 7.491712194578959 10.678074604697452 6.723387730522307
Zn 7.575838017311849 8.082753007833567 9.233157601757865
Zn 7.565688543392891 10.7206338887312 9.212509122078062
Zn 8.187645898684186 7.968108704045625 11.6202154249303
Zn 8.192079068241826 10.779737265169096 11.604525161016197
Zn 9.980470915347096 7.85429382219975 6.722163258338081
Zn 10.008143696809208 10.903223296583041 6.701587744061177
Zn 10.11273645236726 7.731987340883314 9.618731724549699
Zn 10.101947507474026 11.016298522440982 9.61730541671827
Zn 10.567591625369078 8.067845284742805 12.31987570986839
Zn 10.571443217173375 10.702518320073294 12.324802816219098
Zn 12.034279213334026 9.38140864371964 10.691645907440599
Zn 11.485332939920117 9.380862463363636 8.197959097298275
