14
Energy = -6.26703538 eV
Zn 8.811559938249376 6.038248607135339 7.371916190576275
Zn 11.008908312027552 7.290392926008343 7.0306468437760214
Zn 7.51662829093717 8.378874086524135 6.978961968105971
Zn 9.823287928141658 9.696327455069929 7.426860859053853
Zn 7.61844519876539 10.857252446173606 7.99657757608523
Zn 6.7343977733094285 6.602686010614016 8.75679538716171
Zn 9.239837370841144 12.374679996242905 9.330376476247517
Zn 10.804968676569583 8.488578710392444 9.431631509205992
Zn 7.6913551065166725 8.933978139344603 9.695573934934142
Zn 11.54929888610637 11.057868952403098 9.053622459146307
Zn 9.065392594291646 6.522667574475702 10.020210651051386
Zn 7.5957450449514825 11.155609808624245 11.13186051672806
Zn 9.433426739043345 8.67296023198068 11.558618315899825
Zn 10.295279283666124 11.118406198427563 11.404878455444612
