15
Energy = -6.9077093 eV
Zn 8.23499264179124 9.535638247949949 6.084564411604345
Zn 10.112679889155954 7.743836147840554 5.943325055900284
Zn 8.203451315836208 7.0422857470741045 7.734875131953394
Zn 10.696967862968245 10.290905002638606 6.623905009492341
Zn 11.945016737580119 8.588226701605866 8.15884722914628
Zn 6.433721194147602 10.700100097746526 9.05999137528401
Zn 10.6824349883464 6.341745399642832 8.06392510104164
Zn 8.6026151274344 9.551517721907873 8.544632104453083
Zn 10.79875973570097 10.403679728599435 9.568076619456404
Zn 8.361372890564102 11.828253227130395 10.460251091838071
Zn 10.002630441453624 7.746710590119746 10.144044241180508
Zn 6.942022848716967 7.906333860891017 9.841112079068735
Zn 6.711895698191183 9.994742002815531 11.544031422218724
Zn 9.693044351732155 10.057221967188937 11.841378000067213
Zn 8.251637836673613 7.942047117141408 12.060284687587743
