16
Energy = -7.13639714 eV
Zn 9.119826135366248 7.130303578566361 8.397504629545336
Zn 12.566337169323477 9.956975907847262 13.001959930836563
Zn 10.814193734050916 9.026273944692122 8.04776956777431
Zn 11.745374467272288 8.910697635103416 10.457681800999445
Zn 10.321637002948862 8.025100728330003 12.529900821665514
Zn 13.868696775230848 12.967806012343257 9.215744702422878
Zn 7.074512368659616 12.993838412249243 11.906039136180425
Zn 7.418155529064991 10.850270733179258 10.493455622915395
Zn 8.114902060070417 9.569134906883637 8.36244684001055
Zn 9.594678553969029 13.138581293421723 11.551409406973498
Zn 12.026554036731923 12.556409249120351 11.163932216311787
Zn 9.998132676627197 11.3115949420026 9.400262206770071
Zn 8.51631746398316 8.358320683706234 10.694549741257005
Zn 12.516729047184151 10.798688334413422 8.747883896331333
Zn 13.915749019797106 10.792658129156203 10.981923436670613
Zn 10.02093243016428 10.53782503248147 11.912311792906028
