15
Energy = -6.32091273 eV
Zn 8.879247516405362 9.756772885412698 10.827487062685593
Zn 11.866951160454148 10.013805168060994 11.627983527304917
Zn 7.793381357972139 6.872780251146647 11.402463570507017
Zn 10.296248097572208 7.806072128899724 11.776719465825936
Zn 6.455566990245585 9.061761516827564 10.020961536216229
Zn 9.273614627019658 7.33237132487833 9.134384770978555
Zn 11.267778748983616 8.786116503589751 9.255563626034006
Zn 8.01204087187362 11.07319443257021 8.97696699317279
Zn 12.563178059925608 10.971054554219899 9.195525451434694
Zn 10.314406431771827 11.913184413263544 10.262247701372818
Zn 10.397728334124121 11.166280780601216 7.696616683507572
Zn 8.396336499648314 10.718522064452454 6.024268579620093
Zn 7.328395546785163 8.845236577901417 7.514185917980503
Zn 9.95937967311503 8.630424230116166 7.010943938116106
Zn 6.824251001676656 6.680928168058982 8.902186092815443
