18
Energy = -8.75958311 eV
Zn 8.550334665579602 9.939816674763328 6.176209939130391
Zn 10.326746103975728 8.177885598664032 5.9662924388830705
Zn 7.801862685807745 7.50116339626886 6.919341237107298
Zn 10.016593693928169 6.153528775929973 7.450217964535136
Zn 6.6266126618266945 10.782581983365185 7.506174647874625
Zn 9.265599623356138 9.142597362380107 8.892636874147566
Zn 9.782673900681319 11.515884966103814 7.76333424078953
Zn 8.144255915724264 6.135641245622014 9.178541791887039
Zn 11.645167667417512 8.39101049220626 8.174391140108902
Zn 5.818533752120369 10.600351397055897 9.849593096205256
Zn 8.04067222955563 11.944895630264993 9.59228543452679
Zn 10.463589230419826 11.154728849901872 10.280288158845321
Zn 6.806469900484702 8.370156875213961 9.172056176575055
Zn 10.616750713024016 6.75224327964782 9.99905423294073
Zn 11.940546606041645 9.020787463100625 10.619079836458619
Zn 10.155505371759396 9.434265171667919 12.351234776744048
Zn 7.917827039976529 9.941052582225472 11.220917790894672
Zn 8.557307563298137 7.518457580594985 11.36539954732308
