17
Energy = -8.16105018 eV
Zn 10.587576286081402 7.145372170285472 9.336702290500277
Zn 11.426649855735565 8.960337249169259 7.446809071049748
Zn 8.732726593302184 8.623137890318866 7.892380833867257
Zn 12.80803385742722 8.403576855557812 9.553272192080948
Zn 8.27030780822466 6.074326539315616 8.52798492582966
Zn 9.695935421703165 10.851584062511197 7.095379226889075
Zn 12.258272383179976 11.539291492570099 11.660459029672374
Zn 10.475348890250574 13.071200139075119 10.181993486632795
Zn 8.408690730352838 8.219797738680732 10.508170761544143
Zn 12.32087930416763 14.230030305202074 11.787124309796647
Zn 11.563936030631144 10.938288137332274 9.217043778982967
Zn 8.032288508992723 12.718220000173027 11.19816279518085
Zn 10.962863730193385 10.273365759390414 13.629864505503779
Zn 8.897900492335735 10.741892089460803 9.686928928064068
Zn 10.78726997016465 9.23709579074206 11.187140817199648
Zn 10.126289124983177 12.666287864106938 12.819116685486243
Zn 8.621627169856795 10.4844742084906 12.456683201564411
