18
Energy = -8.60270094 eV
Zn 9.624305350642038 7.232670646014835 10.174222801885659
Zn 7.00568351163247 7.3455628197048455 9.271152243187526
Zn 12.230651814114994 7.55035105419694 10.065692469273287
Zn 8.859812861272262 7.494937917276762 7.664252384213091
Zn 7.44580851830678 7.902172719177098 11.690415308706305
Zn 12.186569606626382 9.011729571010909 12.132398791836415
Zn 11.22219233531365 8.446071018654504 7.9506554985455375
Zn 9.752653984184066 8.395326196130672 12.605434390279123
Zn 7.503657848106527 9.883203044867427 9.210732989329488
Zn 10.480945842582509 10.879736174800748 11.822245810084382
Zn 7.867359347161023 10.344322521134423 11.84472260100764
Zn 9.282166596588663 9.780507966780508 6.587133285795385
Zn 8.746148015750945 12.039415577040788 10.24953048319345
Zn 8.35696689888607 11.84162161492554 7.7281499745462074
Zn 12.687443798378284 10.092255510904643 9.716720255974801
Zn 10.89674913363146 11.133917942004953 8.050577896939577
Zn 11.583947042391266 12.419543321728368 10.094229086037988
Zn 9.851156015549181 13.778728602830693 8.638986519923293
