16
Energy = -7.57434352 eV
Zn 10.73907198187671 8.216601572411733 9.440569065561633
Zn 11.958883228964876 12.777783608552516 10.113728700127757
Zn 8.035867460503402 11.367331754055277 11.347102163822294
Zn 9.690090281597154 12.055132976405497 8.705592978666084
Zn 12.486822588492052 8.940952866199975 7.702088703085195
Zn 8.512244903094459 9.707028193123323 8.966119069787784
Zn 10.165696497700633 9.870030312141543 6.961663279458216
Zn 10.77059168431946 8.56337747166936 12.07293056378369
Zn 10.067985472152598 11.014647718694553 13.224684517544679
Zn 12.979763339966844 10.208629068735991 9.98127522244579
Zn 8.292031318239472 9.118667012918321 12.859154310786577
Zn 12.146300821597272 11.580066014981362 7.7801602808268004
Zn 6.742796969867468 9.121981929369797 10.729402181717447
Zn 8.657011122658385 7.342956760803804 10.762463704961043
Zn 10.467494928905966 10.60653662785721 10.627555093934333
Zn 11.590598781172424 13.068045310292725 12.675267419068623
