17
Energy = -8.31701615 eV
Zn 10.549239617027927 9.94967894065262 9.382585721418835
Zn 7.824317345605469 11.174505151483771 8.588644434975985
Zn 10.0821971427122 12.384388812078482 8.620205524831384
Zn 9.583370687716583 7.887643394159583 8.219251452200432
Zn 11.330859053004694 7.230392751068029 9.939576132648844
Zn 12.166017753695652 7.8931335076656515 12.302964862631951
Zn 10.6557646215251 12.411125870662685 12.614285021973359
Zn 10.43072551925611 9.764662096386136 12.512962969700112
Zn 7.200244221506597 8.730866551376717 7.966433782989691
Zn 12.64685834402804 11.30155895825694 9.049324536396188
Zn 13.320529577163 8.834302784605722 10.047564339456589
Zn 9.339027502437649 13.61200422821643 10.7921740284222
Zn 11.88119710342909 13.452615353557384 10.349397128860819
Zn 12.49973374816594 10.855056636869369 11.555993497140179
Zn 8.723262285854185 11.06874429787612 11.121433282872445
Zn 9.069882996809332 8.066344357991838 11.073860125066382
Zn 6.848078011645045 9.375096671342638 10.409295493723285
