15
Energy = -7.23805889 eV
Zn 7.325737484419749 8.304812851287918 5.8872371810352035
Zn 9.862197441778713 8.006337415996992 6.205482770883748
Zn 8.386104989194214 6.0515199948268315 7.02553944101128
Zn 8.847565583824949 10.009436099787976 7.6041225990269306
Zn 6.20570183688658 9.674524983246052 7.767460962457134
Zn 6.058431150846216 7.112604668972158 8.011466226605505
Zn 11.43203760778865 9.706395499179802 8.069400850156187
Zn 7.777048962274363 11.329159051344858 9.627889695255028
Zn 10.340162486308444 11.553855535798663 9.503220925133833
Zn 9.984042577963768 7.592705669464655 8.831563758806348
Zn 7.502378744070022 8.723460599917505 9.881815366324126
Zn 7.882417551399023 6.127828817364813 9.552557504455422
Zn 11.432005731688568 9.28211656337123 10.605586043763596
Zn 9.10036116139521 10.338819650492436 11.61549621692174
Zn 9.475574108471697 7.798190017257993 11.422927876474507
