12
Energy = -4.3053944 eV
Zn 11.79981730156548 11.288942809691395 11.29962335189727
Zn 10.408598167266545 10.928339202522032 13.595742914051744
Zn 10.768956813787634 8.812542128310136 10.255954001853015
Zn 9.096134046917095 10.953459007540232 11.252717663899032
Zn 9.3424478137285 8.625531141956786 12.748449912493625
Zn 8.635347563005498 7.390353981518742 10.509735070885917
Zn 10.778517896746822 7.705456659240683 7.772510319996605
Zn 12.263163845711304 10.377706577741407 8.83996919680947
Zn 8.099442211801305 11.373416444243635 8.883409762312898
Zn 10.089313494128453 10.453707473241511 7.3883869817768835
Zn 8.258012756111672 8.762349917755955 8.318877536798146
Zn 7.624124293579153 10.481489660883845 6.269261049860409
