12
Energy = -3.52891269 eV
Zn 8.858593 10.787604673288472 8.858593
Zn 10.299108133586795 7.418077866413207 6.40354096010446
Zn 10.299108133586795 10.299108133586795 6.40354096010446
Zn 8.858593 6.929581326711533 8.858593
Zn 10.787604673288472 8.858593 8.858593
Zn 10.299108133586795 7.418077866413207 11.31364503989555
Zn 10.299108133586795 10.299108133586795 11.31364503989555
Zn 7.418077866413207 7.418077866413207 6.40354096010446
Zn 7.418077866413207 10.299108133586795 6.40354096010446
Zn 6.929581326711533 8.858593 8.858593
Zn 7.418077866413207 10.299108133586795 11.31364503989555
Zn 7.418077866413207 7.418077866413207 11.31364503989555
