14
Energy = -6.2714061 eV
Zn 10.760180943173271 7.343861386392414 6.315137525175481
Zn 8.24805534102257 8.204502409093953 6.249805893444168
Zn 8.909511366317398 5.709467443265178 7.078232767883063
Zn 8.316719176789439 10.781945523399928 7.259065244664449
Zn 10.213450244579736 9.265269133312918 8.072280137644917
Zn 6.862425840231475 6.281327908615445 8.510703380591954
Zn 10.205727468271826 11.618717598721476 9.348173783341004
Zn 6.923320375713106 9.009506444323454 8.451097381402251
Zn 10.547594913911627 6.662642296302422 8.925021733007632
Zn 8.369233496489608 7.772366474266486 10.142353457904864
Zn 7.555201663239958 11.614535780850543 9.635871445891635
Zn 10.652332238034967 8.787915635106394 10.561111784096607
Zn 6.598839336417947 9.583058622617683 11.092323924402331
Zn 9.037727715142744 10.565203463067087 11.559141659886174
