12
Energy = -4.85483275 eV
Zn 11.43356404257189 9.764416820622797 10.990970492911401
Zn 8.879995624936257 8.497614903853815 10.742380221771269
Zn 9.645872971399493 11.731199012889688 10.68460838824994
Zn 10.818932960442632 6.625494395294067 9.972382942957724
Zn 11.612912695096318 11.342315010339588 8.855814884439791
Zn 10.759051392438431 8.858133093591807 8.435475430754837
Zn 9.093872094397778 10.990359602689114 8.120482931237625
Zn 8.139226523911073 8.429831747947594 8.309713401397406
Zn 9.387306968378308 10.046995717354857 12.661769446456661
Zn 7.09003133813259 10.471732362891967 9.790529628111614
Zn 7.778652899782795 13.036299482835274 9.39358220887286
Zn 13.204864704729502 8.049892498341654 9.886573590404854
