13
Energy = -5.69179478 eV
Zn 8.064525090546327 10.217600335884386 6.281298405034529
Zn 10.6431466599351 10.007918564012071 6.450487006395475
Zn 9.064906320421628 7.856862867208998 7.128318622744397
Zn 9.296099903005306 11.70168040449028 8.039296877909187
Zn 7.628496728728697 6.682227728036104 8.906815052350208
Zn 11.70567997166224 8.035965796362346 7.765901031881394
Zn 7.685919466775382 9.525580156771289 8.736003013866641
Zn 9.952743721390096 8.19088653930898 9.63945582092143
Zn 11.545259326516 10.372979767971067 8.939076597813271
Zn 5.652251061394101 7.730474102921149 10.473033383824074
Zn 7.518404437110168 6.215166044349502 11.490131999010213
Zn 9.367692444690825 10.591236175202978 10.434638391509965
Zn 7.816613422851485 8.813160072508056 11.65728235176642
