11
Energy = -4.40928321 eV
Zn 10.242131205967027 7.640071354745616 8.375222076892237
Zn 10.858290595142408 6.529337757425924 10.611301385597082
Zn 9.160121752991461 8.924593518242649 6.4148788603369
Zn 11.005333458407945 9.121522743161623 10.643047359333535
Zn 8.538293012429067 7.572019592790552 10.781849333756696
Zn 7.560119989841869 8.892387904575054 8.42980027001127
Zn 9.929819580037295 10.52990749555789 8.267150808110694
Zn 11.038054235877754 13.579744729071013 8.423169377416658
Zn 8.439480677068245 10.43688634730734 10.732260286234267
Zn 10.672647332253451 11.662913152675143 10.418685165586824
Zn 6.356920394397918 8.91718828976922 10.705071671346152
