11
Energy = -4.53000815 eV
Zn 6.398588368934028 7.33966941249653 9.28327453365499
Zn 9.029216844961452 7.418489431929712 10.06457874729829
Zn 10.525151238521866 7.306776963815706 7.918584028040005
Zn 8.584542136050871 8.219561031618221 6.373055180700785
Zn 6.043868448102716 7.189466603935988 6.622868256588417
Zn 7.422136150464189 9.465873469648814 10.435315208592401
Zn 11.327326758904853 9.35996606726349 10.756997137137901
Zn 6.744849145876199 9.57333536236779 7.893622572396928
Zn 9.480047846644455 9.661761909605364 8.698043437389464
Zn 8.591698385003596 10.799442655592818 6.534478749321914
Zn 8.228473442509086 6.0415558576987385 7.795080914851569
