16
Energy = -7.70704956 eV
Zn 13.26101316954384 11.39525349726983 11.157368899688846
Zn 9.804304469501322 12.832443645691223 9.630383510616136
Zn 12.886841071754384 12.182049677500673 8.618306348203339
Zn 10.812354593855273 10.644751006747745 8.434228955131015
Zn 9.68476218436325 7.899576147474228 11.21633476417203
Zn 11.899325621901331 9.27470249566102 10.375417695471121
Zn 10.449606259353256 7.995598903360325 8.690026652354181
Zn 12.042399529253135 13.775064978844545 10.443434510573328
Zn 8.983341499712868 9.424442964845365 7.045491693474374
Zn 7.87056757351622 8.294160227645978 9.08427412668389
Zn 8.09684700079666 10.958016812571998 9.02793341724077
Zn 9.761001461488066 10.724682796100833 11.174136184471955
Zn 10.809527274171588 7.820545837468067 13.570258384077084
Zn 11.114856015663081 12.468637212954478 12.535667305310831
Zn 7.574645614569134 9.500072115276552 11.312468425527593
Zn 11.96935279745108 10.06149984860659 13.064956647244754
