13
Energy = -4.23032033 eV
Zn 7.747179054996259 8.165155206830091 6.589299443217771
Zn 7.956421010144306 8.098839844146822 9.129948783922705
Zn 8.31473133303034 8.077266881086436 11.593041196136994
Zn 10.135024859079921 8.00944870272267 7.355332305475195
Zn 10.43051573433402 8.001240425302724 9.910537485014162
Zn 10.724948797190997 8.159041997213352 12.482576374659555
Zn 7.74043461998257 10.686996185302416 6.592889736614461
Zn 7.937627923896855 10.740610323561127 9.134497835292052
Zn 8.29565193821202 10.754466510687946 11.600660024317591
Zn 10.126890676163969 10.850413163882752 7.364600832246591
Zn 10.406881989160741 10.857904913799532 9.915637098756896
Zn 10.714806578853246 10.700260634441028 12.484002745545551
Zn 12.003986523275776 9.433456287665134 8.382077062158185
