18
Energy = -8.37277855 eV
Zn 12.655972797058391 9.389193067160893 7.376664926225367
Zn 8.285705962572738 10.515650464527326 12.04131450170712
Zn 8.333375854105642 9.086923513890188 9.868008713708857
Zn 9.705770961419674 12.52306740073586 10.999905680649482
Zn 11.467820875646828 11.55781191141791 9.140884454221737
Zn 14.604695674719645 11.116166602465965 11.706682030373242
Zn 14.186124057210334 11.436443578619972 7.227206144910211
Zn 12.744651614482155 10.048969404763632 13.203960527740843
Zn 10.449967100743976 14.306519997149291 12.877831119914665
Zn 14.024212527814667 12.39391115718207 9.594135717617812
Zn 10.33945701401385 13.091368383938283 15.26726899194638
Zn 12.188940906242884 13.329386321829162 11.097098580538892
Zn 10.892884162946658 10.117964065593195 11.472993413224037
Zn 10.184944198340698 10.580306875833049 13.943033679830176
Zn 12.26191749725143 12.483334036401702 13.547557000471937
Zn 8.531826852215126 12.544022963054248 13.531193022042869
Zn 13.203250803055937 9.575597765601392 10.16022797011536
Zn 10.859891234784223 8.91997338544044 9.1292124731371
