11
Energy = -3.23116835 eV
Zn 11.67837727305169 9.799793524744457 8.888314746326285
Zn 11.083740702176932 7.540694685579055 10.261848405061226
Zn 10.754416442206912 7.035016610437835 7.583694871916953
Zn 9.145074031860128 11.882099830689453 8.927799235754591
Zn 8.582389404420903 5.9213131557495435 8.788710368342487
Zn 8.914980500931867 8.903741788161637 8.909933997349768
Zn 10.168819396309996 10.452416908329747 11.04483265029568
Zn 7.661116487995385 7.423516623987766 6.7124758476193875
Zn 6.7277670163061085 10.272939031843764 7.648797720809227
Zn 7.083162167754859 10.77661565180913 10.299807350271028
Zn 6.131878643393777 7.9077141857557 8.908822383378858
