11
Energy = -4.29941336 eV
Zn 7.432207756278535 12.162236428710834 8.692354161181164
Zn 11.497802731781311 8.041831004535366 12.93244804385723
Zn 9.384684033385657 8.110879823192898 11.06519571209976
Zn 7.038450017519968 7.5040723876245385 9.987812914823222
Zn 7.678446163540202 9.983215808122283 10.051896746861688
Zn 9.827002796605692 11.587701385556114 9.811606354508102
Zn 9.661175689219018 8.53600267500177 6.011999773412072
Zn 11.426345512450041 9.71625072874567 10.629594336559109
Zn 8.859907470382453 10.467404701512166 7.455036961571899
Zn 9.022622687373154 7.756593278145155 8.38636688928706
Zn 11.256128374716807 9.24054367357493 8.082398488972292
