22
Energy = -12.2956171 eV
Zn 13.542326882364726 16.280525581695596 12.08515723201768
Zn 12.860016386541774 12.090931637580335 9.996254688551934
Zn 11.347496262761808 8.149138986080729 12.014910053705966
Zn 11.10303543639729 11.535667578678668 8.141190323504883
Zn 10.351301350450187 10.365208828829893 13.405084208032617
Zn 12.734309963034498 9.388545588180461 13.755534804596408
Zn 12.458205484992874 11.740108749885815 12.588266291508365
Zn 9.864528498943486 8.189045259971723 9.89717936566447
Zn 10.718570752622117 13.702932953070853 9.487228074906236
Zn 9.013600249426645 10.022352306381574 8.389697387617712
Zn 13.329016438813655 9.741663274979297 11.148573033658119
Zn 8.799334642990717 8.642997260644272 12.226384823208695
Zn 7.313856056489986 9.658874256957464 10.263051488786846
Zn 10.77097601124395 10.51211174062435 10.628870022446174
Zn 10.12356983562681 12.740348434974955 11.958786624089647
Zn 8.669935340439674 12.120711091213428 9.807086873583488
Zn 13.22602556063305 10.032726172873996 8.52714234883523
Zn 8.190087313128595 11.114699083340717 12.118454770841845
Zn 11.192101678552028 8.88992319141091 7.596684405691301
Zn 4.975155489371135 8.418191889688815 10.066939584786823
Zn 12.454317932929142 7.830376010137154 9.637285686168541
Zn 12.273089163897767 14.10005704182531 11.47682104040904
