20
Energy = -10.15399853 eV
Zn 10.650973865515585 11.259437203083996 14.040230838755994
Zn 7.660562525882306 12.232854180808559 11.403127697119132
Zn 12.236748782079388 8.37367044033007 6.800702756770741
Zn 13.075656717931485 8.88797967272739 12.100571706101901
Zn 10.195152292625965 9.935787469151785 6.902797592739194
Zn 13.929537518720359 10.557439509287207 10.314842446676698
Zn 8.11492772700462 9.415579702979786 8.378938797432358
Zn 7.898524235683 11.9112270842122 8.847218051698034
Zn 13.053886814422611 8.393505700952472 9.217091911074379
Zn 11.403111741367745 7.109158700614041 11.13761457385988
Zn 10.043913371684173 12.700303431413722 10.270202898272139
Zn 11.691974599648555 11.165088812884123 11.644838408449132
Zn 10.17410592281692 12.462736209759726 7.640922476956013
Zn 10.526150923642964 9.0089855253842 12.739796777313217
Zn 8.13844686137179 10.17659379281713 13.316675189312344
Zn 11.735878996347243 10.905406542988088 8.995296011312417
Zn 9.073014425437995 10.087236368866934 10.81972974314159
Zn 10.907380054884204 13.572140231992986 12.583595398070731
Zn 8.615165744973284 12.830650751419375 13.669926585536498
Zn 10.33197402594112 8.443410978466993 9.268145384669308
