22
Energy = -12.33039165 eV
Zn 11.021455001789432 7.936345194530017 7.198999009267706
Zn 9.940591380486191 9.831996062648884 5.572813066973067
Zn 9.123810067504033 7.428279217776725 5.66799606975634
Zn 9.00817635617673 11.893408484199634 6.766762054445398
Zn 7.63694639496015 9.637370301415919 6.892311424488131
Zn 10.962451620334074 10.491224684338249 7.880896412829789
Zn 9.107795981109332 9.017760227881643 9.040456794759447
Zn 7.341995258441139 7.2907023396898 8.018514235767507
Zn 6.508582470401611 9.462445982725844 9.248056280399375
Zn 9.462493252631138 5.735869358943304 7.516382767818216
Zn 7.111299191157308 12.200212469591925 8.393599427181083
Zn 12.48500761968459 8.75974113428254 9.303186182197008
Zn 9.332017778361386 11.835093537567506 9.461580721920969
Zn 6.518692182572562 6.9973020359145535 10.842149772211895
Zn 8.276341678183556 5.552024175722839 9.758270358859702
Zn 10.561091599596653 6.8817529142953 9.590244366356186
Zn 6.9328485141948155 11.54963612793288 10.828006760815054
Zn 11.57544910151537 10.834506705781788 10.484008523660814
Zn 8.852694675927992 7.56397194795895 11.472872475684492
Zn 6.677495505006023 9.261840892177348 11.920071378099287
Zn 9.112857898573894 10.16380089108086 11.443739651229588
Zn 11.319747455526628 8.544556297677815 11.568923249413995
