26
Energy = -14.47049536 eV
Zn 11.865998824957845 12.813176180323978 8.052623433167273
Zn 10.76886517219292 13.876695481218713 11.987002294732523
Zn 7.117121904774439 7.032662416754418 8.927908589902984
Zn 10.249281144730423 7.913891454000122 10.627064040970795
Zn 12.556154563208237 12.489623301323768 10.523421288646817
Zn 11.77801628554634 10.749638480020892 6.524977498213491
Zn 9.006087424518812 11.644178857788424 12.696757443505284
Zn 8.832526113319316 7.004797899444801 12.726242250579649
Zn 9.937998064315249 13.637457871183855 9.453176129843516
Zn 10.070285089516508 11.078387456445217 10.193383725099757
Zn 8.080018323678104 9.30232802171051 11.79088265207425
Zn 13.59393249134826 8.95085796839508 6.212606203184838
Zn 9.577347415482523 6.776785915937614 8.201771095152628
Zn 13.360274980043338 10.723793335223354 8.645665650582083
Zn 6.549839467898097 6.888149712694722 11.522766792429927
Zn 12.313190343211806 9.73034543555561 10.73488007349776
Zn 8.748314510961007 5.748706022443138 10.471784152818662
Zn 9.553753427836838 11.4113745762875 7.690405637521913
Zn 10.484479794975432 9.407130518929534 12.804922281500426
Zn 6.072637906229 9.071384545830284 10.259011058934227
Zn 11.66670241748392 11.667019201688856 12.835920506696448
Zn 11.048970163750745 9.206186010457301 8.482746404531174
Zn 11.687264162451369 7.260846188154218 6.7920439244872
Zn 8.269450990751904 13.740719489008466 11.396719772056388
Zn 8.378500169898233 9.3238215667929 8.879057574021193
Zn 7.385777167845193 11.502830413312427 10.51904784677497
