21
Energy = -11.46864552 eV
Zn 12.81349913455889 10.473062337445537 14.412537434065735
Zn 7.9580467451115755 8.518047885788842 9.971948891067337
Zn 11.888498655800086 12.255474599911173 12.930039300008396
Zn 12.376924728557173 10.60802346197429 7.690680073597199
Zn 10.857129093392142 12.388409373304672 8.636069910787304
Zn 10.95474637421604 9.103076202819192 13.308481128721331
Zn 9.451185410920257 10.161475597845504 8.737512295094874
Zn 8.499280750653167 12.036102989042618 10.267873227546936
Zn 6.997838519349236 10.360574083498669 11.431736274883066
Zn 10.629716605012296 8.274270895543332 10.717484760150692
Zn 13.276291873586242 9.570057935540996 12.063681239120724
Zn 13.16751075693686 11.560196769739024 10.193211470467336
Zn 9.699230379933566 13.529725306497319 12.178131957270327
Zn 11.155358099099296 8.394415134211785 8.10293755537361
Zn 9.585697515256427 14.35566506942989 9.732448396422887
Zn 10.82597793150201 10.823083518487612 10.869851561073085
Zn 15.297428435002134 12.950572342204655 11.175273714628394
Zn 11.886107664058434 13.765220358676205 10.740774141636914
Zn 8.622466924881898 8.572867377837229 12.468795175497961
Zn 9.217675987653688 11.10573767383974 12.840896383561674
Zn 13.11175217311091 8.967815587971831 9.631542304018401
