23
Energy = -12.52652653 eV
Zn 11.011753437646322 14.029320816487349 9.201841946656485
Zn 10.427660605235832 12.19073401460666 7.589205927360198
Zn 11.619285364580975 8.544749124458791 13.168736598591408
Zn 9.488022169923006 10.171865173098757 12.918066844069331
Zn 10.355204645488612 5.964005681604238 9.958390416591918
Zn 7.867054867231859 10.239394539089968 10.50666670775215
Zn 12.947672429747838 10.599988838930129 12.599696781819667
Zn 8.944025142332084 10.272745225659957 8.09995802581111
Zn 12.35874677638497 8.806444955687038 10.64897481006858
Zn 11.610993436543493 10.006983234469434 8.425790618734041
Zn 12.899083420631934 12.416473929222946 8.372167433964048
Zn 13.818143432406186 10.856395407897221 10.1561648757971
Zn 8.070195916542154 12.2115184172273 12.14018397911141
Zn 12.370177323743414 12.784196442958256 11.138789563245723
Zn 11.00124382504692 12.10350156461881 13.300004054167035
Zn 8.332948323257394 8.035483111226835 9.079079184226291
Zn 11.230314109508388 6.132506751479761 12.329073543444407
Zn 10.560794029591206 10.980284187399043 10.60840698249801
Zn 10.118773860407067 14.039647200860331 11.519731029342047
Zn 8.699744237737324 12.657522514927388 9.598556161832947
Zn 10.745283890935196 7.604967414811081 8.059854764418123
Zn 9.821177650976235 8.443170191197517 11.090267383502981
Zn 9.055091071338767 13.897434308751142 13.818358686532068
