29
Energy = -18.72944953 eV
Zn 7.095876371516415 8.668338513752143 9.726315585304972
Zn 7.035551712824041 9.5887969109677 12.07218990778615
Zn 7.378934043641914 10.453065991517454 7.784594325323576
Zn 8.061732496184515 12.86852129489399 8.448028788748507
Zn 8.750274377753156 7.7864936923139245 11.965861541439475
Zn 7.730924116161508 11.937779981204592 12.64024875567428
Zn 6.997684061115413 11.355769935099863 10.206911543110937
Zn 8.767536249458905 6.699961677855798 9.621999569090569
Zn 8.606884510380475 8.153310970166379 7.507447709977241
Zn 9.628012648018798 9.940586225294595 9.245697401165915
Zn 9.172174655851403 9.916566248536537 13.490715985449016
Zn 9.626394341246861 11.6286241236826 6.892898801979087
Zn 10.917699938391545 6.793317678234031 11.001329412582795
Zn 10.575080661348618 13.232553371220293 8.767027984180041
Zn 8.878607801737315 13.27004216752611 10.810603142413528
Zn 12.976549061902237 7.8594053052580755 10.1101437824706
Zn 11.006887253640565 7.371307778757416 8.437152951822142
Zn 11.046523291395715 8.126884779948416 13.13636591839937
Zn 10.875322221006359 10.649859992085691 11.135513938532007
Zn 11.674142141647009 10.537037229793881 13.808373634716247
Zn 10.176292949661722 12.502682759391591 13.109602882293686
Zn 12.980349105161412 12.774023891979374 9.592410843121415
Zn 12.076223790634378 11.375071577957776 7.7138729577676095
Zn 10.741975529712512 9.349933200696706 6.685321849369136
Zn 11.347947741771288 13.79554838025912 11.235286669475204
Zn 12.986599680832608 8.998258129151198 7.83509176545582
Zn 13.231934171762472 9.232383166205388 12.20826449797746
Zn 13.074822915518673 11.914865733376125 12.047130503985594
Zn 13.682131668104129 10.380183688390632 9.891377688879881
