20
Energy = -11.74867078 eV
Zn 6.255035050812886 9.908132495607902 9.524437387297102
Zn 11.633680191805722 13.040000694357794 10.124168476891734
Zn 9.81869824238339 7.602110279297658 10.702768331561693
Zn 12.337633245545325 8.364774508473314 9.918650218259677
Zn 8.229850547339229 8.469396764668332 8.603150313398285
Zn 9.064470338121202 13.273600446212038 10.012731716428142
Zn 11.714785931711475 8.28120558932604 12.393103833986226
Zn 12.461939594752424 8.703007600809908 7.349816462651432
Zn 10.397146048243341 12.582278505088853 7.881025963268032
Zn 10.064427423661963 10.123847090872047 10.071725011793012
Zn 7.865736407718315 11.12594701496042 11.205172968990233
Zn 10.504817668589334 7.338189263993546 8.207499895043679
Zn 10.166999615250285 11.956705556128384 12.03027512636981
Zn 10.130201714069907 9.936065248174296 7.406927887650194
Zn 11.374923125047397 10.415400265028845 13.695016447901681
Zn 7.374407745487271 8.362132269092976 11.178986586302878
Zn 9.220736739216123 9.346843496326807 12.690409245808498
Zn 8.206391004599556 11.261000626774846 8.552889875282897
Zn 12.377594226981008 10.702826846344689 11.269243179444167
Zn 12.240833979436504 10.884364762501276 8.703091653000506
