27
Energy = -16.54151944 eV
Zn 10.366322370184887 7.555020908625773 11.944200322409475
Zn 8.13631344323135 10.930254607313152 11.288501059157856
Zn 10.274435787852713 9.994533015066743 12.83016746361321
Zn 8.06383808441897 8.800614126343458 12.91868032994969
Zn 9.977405977159249 12.559243853995433 12.714848149870411
Zn 12.260124811872428 9.276767287881148 11.228948868939385
Zn 12.299967856649946 11.516940562634954 12.664545246809597
Zn 6.541368396000063 8.823111021211442 10.9024957839137
Zn 9.024803735935212 13.363392140142096 10.54777979467594
Zn 7.830261086795753 6.672070184336092 11.614303413116875
Zn 11.627734040498085 13.506129978543157 10.810436388255106
Zn 13.434345045320239 11.482414542051226 10.448568993883217
Zn 7.508934297910457 12.112708229734007 8.958711979403935
Zn 11.609458171084933 7.490275861775137 9.443285681547588
Zn 8.214692289319677 8.197164017340274 6.897919951409733
Zn 10.868600904520466 8.743219678631949 7.288853564158226
Zn 9.869367882114398 6.453288501822789 7.671650305121224
Zn 10.53524471419586 10.989421033339303 9.967590031948706
Zn 12.83667934104209 9.814197081502526 8.650801880014367
Zn 11.480792114478414 11.259218521622403 6.919402793979209
Zn 7.3084741876062065 6.940183728809486 8.992092335329824
Zn 9.03941989300544 10.578340808697849 7.5554815788407526
Zn 9.664280594555555 5.905131171463938 10.104118943125771
Zn 9.981100651746226 12.973192210386147 8.173146858914476
Zn 12.6031196661076 12.804091051301253 8.471253013243293
Zn 6.787153794042224 9.689274590674925 8.555988956852303
Zn 9.194970968131024 8.909011390533019 9.775436417294708
