26
Energy = -14.03408249 eV
Zn 12.996496107367587 8.633690627805223 9.482563317572597
Zn 12.513415227913683 9.600360944569385 11.931447708694213
Zn 13.249144275100988 11.315158846495512 10.085372370704084
Zn 10.109107206742081 9.837307864288963 13.118986592419635
Zn 10.976724620158704 11.585579188569156 11.535688555747532
Zn 12.631760859574923 13.007715218206803 8.318155007163057
Zn 10.66517323729246 7.448362254506407 8.510015638245456
Zn 11.27618333485168 7.56665857389119 11.085064286969168
Zn 9.34706510531986 7.43648379568958 12.75296830187776
Zn 12.872235486470318 10.611160821281814 7.327584997117949
Zn 11.272555267261804 13.984675564111384 10.209891567194727
Zn 10.901130495682146 10.225340470213636 9.223884288876315
Zn 9.455493219497392 13.866556723638116 12.036780732235465
Zn 9.142733331664447 9.41150207816709 10.681931320244184
Zn 12.525838799822935 8.184714519384034 6.828945988782093
Zn 8.75643299161449 6.62052821200767 10.130777779974236
Zn 8.05269791432245 11.9122104886529 12.739907362791362
Zn 10.431547967398108 12.251650550934968 7.4179023062264084
Zn 7.229853871393913 9.524379154168482 12.754668653257246
Zn 9.149681263182197 12.215449537249121 9.773611697886432
Zn 6.994059740387828 7.074985792810444 12.036707816473148
Zn 8.280664807665639 8.514820931223937 8.071638153302338
Zn 10.200244175622954 9.597653622021689 6.746837177987679
Zn 6.592008177307677 8.409596501426634 9.98569147774029
Zn 7.008481776966882 10.923174018954986 10.210752093970786
Zn 8.146152996877289 11.017165957191597 7.779107064006415
