22
Energy = -11.86677213 eV
Zn 11.423500699794594 13.936251388190652 11.491666706458327
Zn 12.792159377426053 11.79654930178234 8.104635883527944
Zn 13.3736603040438 12.77888118278792 10.366793979517787
Zn 11.696630598576803 14.078728919925775 8.85915789205739
Zn 10.211396076605805 12.069860270298895 7.926449078488261
Zn 9.388244351985902 13.420095228183412 9.979491404149083
Zn 7.65115173732416 11.970917809697895 8.61184503372907
Zn 8.969287293301266 9.776697925712453 7.8396434265060195
Zn 7.6642685306569724 11.991884508005734 11.306490985470003
Zn 7.698092641965619 9.805649399596756 10.028536680331404
Zn 9.70003999302224 12.520856303922075 12.761600313678255
Zn 11.502887177644594 9.575010565377449 8.131062169025247
Zn 10.563369223757412 11.134832309100618 10.318164067153777
Zn 12.226506124462771 11.545128839899474 12.333932085750053
Zn 13.064737314876728 10.217969044206349 10.248368230284592
Zn 11.667130926801258 8.875031702141378 12.166030147135805
Zn 12.384113307029232 7.772429766292413 9.814198942713398
Zn 13.812445997864613 7.6613249574220275 13.60363892330209
Zn 10.67625932849613 10.502491381164104 14.097235145094562
Zn 9.936250287568726 8.536458377110703 10.064028494475812
Zn 9.121654327332847 9.901117600976574 12.164865393962279
Zn 11.25621458831 6.128760304854137 13.237954139205964
