24
Energy = -13.73039403 eV
Zn 11.857663351579358 7.598544558663229 10.590880392997486
Zn 11.844309694716973 10.174330775504492 10.104216518110753
Zn 11.010873111459022 7.512998013814381 13.022693907873007
Zn 13.238074585961224 11.033883974476874 7.793649056761597
Zn 12.0231219084847 8.615090269278504 8.040099262433435
Zn 12.56810002418869 13.143164749931099 9.313612202708349
Zn 11.565544751167613 12.89391297704031 6.904799760078845
Zn 10.866761780689632 12.384145148572308 11.12543253659963
Zn 11.035757642629854 10.418957600046953 6.287612811526881
Zn 11.082563117499644 10.056915581383945 12.589387245625456
Zn 10.284734144625624 6.915517041661954 8.72683253372739
Zn 9.41462707345906 6.531289796665172 11.205481291261389
Zn 8.735844255267416 8.79362359210882 12.920574782135043
Zn 7.758152922713478 7.299995128413461 8.9201311075192
Zn 9.82885330555809 10.99648383618426 8.534372443962672
Zn 9.313644247611018 8.703088530436943 7.233600525840673
Zn 9.42139274255743 9.182905546844749 10.293552380006709
Zn 7.0383061622177125 7.501124758178895 11.480694202678952
Zn 8.939737639779343 11.368833339748306 12.367832173304564
Zn 9.941345120691466 13.644505591870908 8.798130508337163
Zn 6.9727364618069645 10.186563088456607 11.242475468204814
Zn 5.6215039927222845 8.587409363790442 9.668091265492263
Zn 8.156198937689837 12.25190439708599 10.121441308662503
Zn 7.4191261810681395 10.051710375014 8.593126067976918
