28
Energy = -16.85113444 eV
Zn 9.340876313038088 13.668546410171315 9.912265060479942
Zn 11.457815122749174 14.188758864182505 8.56303577033511
Zn 7.828234932656454 11.761166540460795 9.219540610834379
Zn 10.003007504009352 12.123621346895494 7.913075172823393
Zn 9.531506502714718 14.323346621753986 12.342589885477238
Zn 8.03250838079618 12.239946770308196 11.763828944668653
Zn 9.086401414989146 9.692223786290795 8.338711491628736
Zn 11.724799073239117 14.163084779497094 11.073655623079837
Zn 11.07730538370001 10.966583012849064 11.083116139690247
Zn 11.646272429272512 13.420656750192437 13.628109385759092
Zn 8.048794198870821 9.801134917626499 10.83498351291368
Zn 9.215310236643687 12.575684840169613 14.102445797419598
Zn 12.661591456452452 12.20756557655599 7.621448812086691
Zn 13.868166985617824 13.411295272746026 12.23055809067548
Zn 9.569977363232706 7.774035672942907 9.90489677830031
Zn 11.444418681406345 10.009415524115301 7.467332558863972
Zn 11.15418506570605 10.952143678546728 14.440433235066772
Zn 13.791299430999095 12.84679517776732 9.784495601719419
Zn 13.640481468182761 10.344014963301463 9.092891785760044
Zn 11.92741933326266 8.23803969764953 9.182779531305766
Zn 8.96953403016767 7.926320748845153 12.345927362458848
Zn 10.679463021259501 8.502281757303631 14.071558128803662
Zn 11.5146642003055 7.678825705025831 11.707358662856699
Zn 14.453448853807139 10.958279511020976 11.542355015238348
Zn 13.556919674385048 11.637477051260513 13.943624558426286
Zn 8.656472951626968 10.245959311520878 13.355979361424485
Zn 12.922293712145395 9.333393896995098 13.176281822139075
Zn 13.771650850512616 8.584220385754326 10.93153987151322
