25
Energy = -14.33574659 eV
Zn 12.954315621164042 7.627752379941541 12.477019771964269
Zn 13.581497934227484 9.556747582092 10.71546004722659
Zn 9.3099608627214 14.239260807275517 9.167581997568382
Zn 13.051479833975502 12.1895197294926 8.77921943123113
Zn 8.918414133658107 12.248074340570575 7.522958594227873
Zn 11.290210592756628 8.698207434897906 9.197613158696603
Zn 11.201573225771893 13.448731565765211 7.551364973228529
Zn 9.64718835057285 13.450919062086196 11.678511759440747
Zn 8.815169933448425 11.096703105507135 12.221155619261713
Zn 10.270227072318502 9.324129768942834 14.526184567468032
Zn 11.46721209635939 6.359973107865505 10.761208398775828
Zn 11.721135002063242 13.974322868073388 10.082103195251712
Zn 10.456201003645882 7.131074002225562 13.07073605793269
Zn 9.347251060597328 8.071549674673363 10.782921543101262
Zn 8.253034357269955 8.485850767387564 13.199504249544495
Zn 11.936779360180802 13.834179861231725 12.743982727493146
Zn 11.077319038678269 10.787990213300775 7.488884013096701
Zn 7.310929914455278 9.663931680741122 10.713383973890654
Zn 11.285140572183153 9.810969901808052 11.929852054823463
Zn 13.366106714312405 9.736078196565844 8.21894780983488
Zn 12.894490896552755 11.882948876664122 11.436925317272877
Zn 8.01304310857126 12.022483028952372 9.909312390749982
Zn 10.863097752414472 11.767972272136213 13.671383125867223
Zn 10.650508710196256 11.415339318118248 10.081637171940297
Zn 8.954973435546108 9.812551037325218 8.70940863375151
