28
Energy = -17.15191453 eV
Zn 10.700716254179802 14.474443239546783 10.35457436877729
Zn 13.173725908008436 13.761559855760218 10.70129933719772
Zn 12.306029953604735 14.143910026777553 8.267066456368964
Zn 11.56883342682895 13.31645068120833 12.69544779173862
Zn 9.808270153697586 13.927112098122818 7.931107770743042
Zn 9.011209527695415 13.787710487748406 12.164601579087764
Zn 8.034446617789744 13.861809688900172 9.799525822636902
Zn 10.542907453145457 11.77854570169089 10.089220239215098
Zn 13.387344523470063 11.92814290301101 8.74381921770057
Zn 12.937947364506645 11.234523766463965 11.189637495353962
Zn 11.085705862089522 11.847335482314987 7.197240136976479
Zn 9.613147469259124 11.333121419737576 12.605418989449804
Zn 8.384776547876312 11.851768879125808 8.042382548501193
Zn 7.637071308275422 11.664312670070476 10.982521733686774
Zn 11.869025886038159 9.874273642780633 8.555226135400348
Zn 8.737521466494394 9.852334076579258 9.470682538784848
Zn 11.947818932991325 10.821811465786617 13.570645780590105
Zn 7.80008898528607 9.267143929138147 12.183624839334986
Zn 13.6058003740351 8.908020171442422 11.826669926072508
Zn 10.134298552639581 7.989658193914594 8.401114874641474
Zn 10.844262436661475 9.491619888488248 11.068188714887508
Zn 9.620454611044096 9.287685073020404 14.143592852002255
Zn 12.6570162770774 7.672076183915174 9.492713071699443
Zn 11.966500583605205 8.315848571777417 13.898807123803252
Zn 8.258931363358364 7.480932404589148 10.317833051964397
Zn 12.223656416292103 6.797472755045653 11.83768284794428
Zn 10.472279434089046 6.160695553140134 10.11342797557514
Zn 9.761403481233604 7.393745803696796 12.420326493362268
