28
Energy = -16.76572718 eV
Zn 14.761782398371563 11.378345050129257 10.325253441152034
Zn 12.994077205097486 11.421681481728584 8.26982262015293
Zn 13.326832797052838 13.380103636125979 9.999418548202037
Zn 14.203337429444357 9.707390531236932 12.120285872787703
Zn 11.877476370347585 9.236555128765549 7.43542142247689
Zn 13.975650653395546 9.169658804898557 9.384526570558869
Zn 11.265107146690669 13.747781343262616 11.389066295073668
Zn 13.050804211032096 12.059896677671093 12.319229740203452
Zn 11.12863003293154 13.383663657618996 8.792067945655115
Zn 12.289430283147938 7.339726166550772 8.983832018545169
Zn 10.28170528660649 11.118732374691172 8.075571196637677
Zn 12.590635720930706 7.880416557098418 11.46002441219066
Zn 11.954933451660676 9.929143270996928 13.393188090391462
Zn 11.676357236923504 10.49827159615869 10.49076033010804
Zn 8.623614800001885 12.956022412860708 8.85581148309404
Zn 10.141684952157306 8.048924561128453 10.211441249292088
Zn 10.323399807917136 11.867619715702665 12.811317085712323
Zn 9.28986910189447 8.780440856564653 7.842540989116193
Zn 10.428513515102463 8.001214132261492 12.811905774447279
Zn 9.261417761009884 10.648450384361452 10.629411767828707
Zn 8.056327135533076 7.82465470078453 11.882618570053921
Zn 7.472330061106144 10.658919002455903 8.437691165018
Zn 8.748151218719666 13.702558587310095 11.404567502068804
Zn 7.608795600864193 11.986123488201773 12.937033629313328
Zn 7.404809539450109 8.314108585795443 9.497392995011065
Zn 8.859655857599968 9.851801150189475 13.447706730814916
Zn 6.763108523038214 9.966228035105265 11.511795673262723
Zn 6.7911448557428 12.291151064114713 10.42987983460122
