24
Energy = -13.17580083 eV
Zn 10.154277866645444 12.761190285303238 5.261827708732316
Zn 8.931570765585366 13.019707061206882 7.659848488492987
Zn 11.523429736360896 13.07565804026426 7.727775530609947
Zn 10.177933199640423 10.669438119073707 6.964072305714803
Zn 9.134424444976656 11.130814014289081 9.438961353721488
Zn 11.941973471550877 10.528954109140813 8.819051220360434
Zn 10.094238525504975 8.775181516449425 9.491777919092874
Zn 12.508856601988256 8.351107255697249 10.327310145851879
Zn 11.11113657816988 11.011212569437857 11.25607321397238
Zn 14.132637265765442 10.415909408193063 10.19484915412265
Zn 12.820228648600814 12.74186160663573 9.9420706177336
Zn 10.220458209347408 13.387881862302482 10.38372735301308
Zn 10.614522900352073 8.475341405354301 12.15814812567035
Zn 8.38561444491903 9.506012063365896 11.3881985676615
Zn 12.994129956952882 9.623311283114147 12.531441612754326
Zn 12.178243328175197 14.01988185763101 12.147884926791884
Zn 13.956052177725727 12.06757103192852 12.167488890534562
Zn 8.187592762391542 12.140985853824143 11.58583677458853
Zn 9.87211576764405 13.307476797347528 13.083549052475156
Zn 9.473003056446414 10.667869003098975 13.430003927466018
Zn 11.848848210635694 11.701039382377664 13.655523921002922
Zn 11.128502271028015 7.919310167030204 14.59528912884182
Zn 13.061630587563267 9.602419920921253 15.145604941014602
Zn 10.639589391607068 10.190875555589793 15.734695289357647
