29
Energy = -16.11568514 eV
Zn 12.021145774914634 10.105062086534332 12.555826231493109
Zn 10.844560922985307 12.893635159772527 14.887096404585925
Zn 9.943127051849844 9.170906031481577 9.767698306950459
Zn 14.60551413953916 10.453125014175097 13.02310993744239
Zn 6.244096889114611 11.249038582900997 11.567964034600593
Zn 12.206467462565438 12.513524709041942 10.959288589265618
Zn 15.089799169878884 10.265549147317218 10.48999949085466
Zn 9.989798768615374 14.12536229264987 11.199205707363792
Zn 13.68927978354932 8.424023848635603 11.398975922707448
Zn 13.311022110710221 14.632608501924315 8.30200188066719
Zn 7.845712148128351 13.074898131612688 12.141668054572134
Zn 14.167505796876503 10.462916481349007 17.382722976708163
Zn 10.107275958188664 11.837846550437058 12.511417940910867
Zn 7.785558327698967 10.723306791408213 13.58955788201689
Zn 12.380344103420835 10.860585659622819 15.52119063800676
Zn 7.7131916212615845 9.387807263603868 10.957223023462904
Zn 10.677440321326559 10.991972767030783 8.07275808177042
Zn 11.340938311413547 7.547111968477678 11.16311111555157
Zn 12.044148778752005 15.433527787015516 10.39094097346586
Zn 12.659318344021008 12.406421885012879 7.109029836525966
Zn 14.533332007803253 14.978486326082455 10.648852020271784
Zn 9.046836893439227 11.707910456770513 10.012113224170141
Zn 14.208915636362814 12.19207750661237 9.071826389860508
Zn 10.804679337022007 13.514349357717292 8.804023340404433
Zn 10.011449299319914 10.358028872993671 14.795922862456417
Zn 13.002310169452374 12.472559342525733 13.447332738122753
Zn 12.4532179019844 10.122499861056241 9.746466462874588
Zn 14.914438580689259 12.673853558028068 11.579839301379206
Zn 9.653154922977265 8.928123021193075 12.616710304511091
