24
Energy = -13.75252899 eV
Zn 7.328951804409565 10.151360171056863 10.25336539668142
Zn 8.019980403895623 12.537333398544543 11.093121128963835
Zn 8.036042422799941 12.058866302850332 8.576615797780498
Zn 7.381850873424108 8.488226942303461 12.391404948534277
Zn 8.724340834293493 8.01386967831778 10.06446889287223
Zn 8.50226135440531 10.70248295643562 12.826743591007276
Zn 10.08872369145177 13.088199665059115 7.193863355432118
Zn 9.664730047057782 10.046478057580202 8.50778173672493
Zn 10.31783922120276 12.546419721401792 9.850949383310946
Zn 10.279750645728999 12.640045251357165 12.43702662921649
Zn 10.856746904970471 7.6492054268257075 8.764291776689756
Zn 9.058341403857497 6.635585030784616 12.357701489857142
Zn 12.123580985953357 9.56262372508151 7.630578751232933
Zn 13.483322232512077 13.822553478717307 10.731344135246257
Zn 12.15644565121241 11.815479639800689 6.488408010437493
Zn 12.770118176947198 12.265247959557461 12.601451419013511
Zn 13.016317229232019 8.517990868545175 9.819962257594923
Zn 11.234020535572991 10.732685563697327 14.044868869237419
Zn 11.204665195805626 7.677331257058956 11.451079145604476
Zn 9.925190496071831 8.648641308755813 13.723044126155672
Zn 12.507001188002086 13.57279898083148 8.374734439442468
Zn 10.270566507964181 10.117537373960534 11.021219604134824
Zn 12.389513290082688 11.057289185647543 9.80323564297095
Zn 12.762304074312713 9.754353226997141 12.09534464302587
