24
Energy = -13.25918857 eV
Zn 12.296724201357991 11.467887384904092 10.295030434937853
Zn 7.974679060352521 8.796136833769632 9.985543550625733
Zn 12.26738723377988 8.926756103930911 9.50386450578308
Zn 8.988327322103547 11.67699615604444 13.051936112041574
Zn 7.780022045744777 11.048582895699141 7.358902362187944
Zn 9.99824211383291 10.516412387115755 8.95319249077114
Zn 10.1127231827056 7.385813970275614 9.272876942694802
Zn 9.69995264031024 12.66527697226304 6.641897173309261
Zn 10.246028956397065 9.753609630672546 11.321780691307234
Zn 11.754163770653648 7.2454719749479315 11.341352055408626
Zn 11.763966671693659 11.784072506810775 12.758966658872769
Zn 8.994028411866854 7.160269158745872 11.653930429247774
Zn 10.601822729628411 10.20647679243568 14.439321732508642
Zn 8.545613929532617 13.055663536567724 8.913240526265742
Zn 12.489061045872312 9.249886448174754 12.913196078169427
Zn 7.992499787868044 11.369451757735638 10.736214880550497
Zn 8.491838753042801 9.0919882403705 13.393822292160293
Zn 8.488436662462576 8.497293423157585 7.518014232307327
Zn 10.609224149482612 7.5957349773548435 13.620466277666008
Zn 11.294233134448204 13.10114770581361 8.623521571485892
Zn 11.79537146830345 11.141623507747587 6.909749830373962
Zn 10.156006222072564 12.887035882043488 11.000257759172396
Zn 11.249064630531283 8.558460038627588 7.205762905054483
Zn 9.665090270704447 10.072460109540401 5.8416669018456995
