28
Energy = -15.88496765 eV
Zn 12.254596689978062 10.30047621473901 8.196951812144608
Zn 14.059714977661397 9.20957987356789 10.105901837351151
Zn 11.837581249261357 8.032706106793109 9.290082048910921
Zn 10.123189424647636 11.410480093157783 7.0508853292494
Zn 9.77742913072919 9.16700395858251 8.255096698360008
Zn 11.457874167146832 12.788695945412332 8.703491671944507
Zn 13.234883579955682 11.687612488372835 10.212349179303368
Zn 12.184430617956949 8.351419231592619 11.845878799309425
Zn 15.285877872008726 10.991214948789937 11.679111264742723
Zn 14.61815199743647 8.716154359295142 12.666224768954187
Zn 10.443010734009107 10.818761137641722 10.34491574098566
Zn 11.960217823652277 10.967081740106432 12.457256765489976
Zn 7.70514416490454 10.598763876833372 7.447910199970781
Zn 12.387364268114252 14.138700281214323 10.683482249758395
Zn 9.790303562329333 13.455812940037104 10.721009599058187
Zn 7.713717916340075 11.825702233750155 10.683173816851367
Zn 12.549461078782176 9.056683097337636 14.354993921073133
Zn 14.231739997407919 10.979651675941275 14.069059319381461
Zn 9.746665896665577 8.28647971493136 10.900310203328324
Zn 13.83663095987147 13.003654419049878 12.517958312924213
Zn 10.069563415011514 9.192948821481032 13.322125788211258
Zn 9.419156379877522 11.7080745339311 12.814940637977395
Zn 8.524606453831872 12.886770955621229 8.490557401126217
Zn 7.656905793228921 9.2784115602982 9.697524735105508
Zn 11.263566996656932 13.468190287793497 12.884443193894706
Zn 5.429361926062871 10.671495125105093 8.44474537507539
Zn 5.469407530134744 10.221033548210867 10.923139022368334
Zn 7.784195955053041 9.764226152858711 12.29928656857219
