26
Energy = -14.99748587 eV
Zn 6.661528827339919 8.775846191731782 11.660940930902125
Zn 11.350242675315878 10.07601613991516 12.891279611017383
Zn 13.583123176242854 10.292718312386965 9.19964058673942
Zn 7.5550471106089825 10.683119528900392 7.13571664494655
Zn 9.94631764375931 11.932653571992873 8.115022816473935
Zn 9.97014144878383 7.154668530097598 7.954285938109245
Zn 7.703672336453793 8.170440054456014 7.713862777474207
Zn 6.452029202618952 12.047387120703057 8.990064224018301
Zn 12.32117552096765 8.322883505663254 7.7023862385589235
Zn 8.904589868807006 7.9444835246457215 10.153616143555498
Zn 9.174586291256107 8.888843948003133 12.529833524396908
Zn 6.096295411951483 9.430691851744884 9.226862813702187
Zn 12.298760029704102 11.683462059952562 11.036193372285902
Zn 9.929714954504256 9.606929665660317 7.100546919956097
Zn 12.373554547124936 12.740316918176628 8.694070391444367
Zn 7.6718194636086166 10.912745664452583 12.86362265673054
Zn 12.22088400024884 10.804924037337397 7.069715404800515
Zn 9.88369645820684 11.927321170558294 11.660957263105773
Zn 13.647620224697215 9.491829545534571 11.899473415580655
Zn 11.277385200209567 7.65023197402858 11.640981346092694
Zn 8.589185971599644 10.56489888545273 9.850992333845374
Zn 7.565608696964828 12.89416728949253 11.109831352290879
Zn 5.60909365677113 11.082802165173394 11.276774291126088
Zn 11.701858625127805 6.124876270736853 9.431357723615584
Zn 10.910020487429145 9.692397684603282 9.80227196761881
Zn 13.369777001133501 7.871073220035058 10.057428143047778
