25
Energy = -14.30089087 eV
Zn 9.962777534611652 8.47083472342354 7.4117075093328335
Zn 8.075169694405846 6.932502255338469 8.116915064627161
Zn 9.768994539646457 11.140219730024409 7.822258237476009
Zn 11.965125791212435 12.374685011916158 7.817739570609762
Zn 7.689796133088866 9.543627636870582 8.123072688512437
Zn 8.777769419410056 5.473502162585778 9.949710054728946
Zn 12.005305033259356 9.76839181832361 8.205763461868916
Zn 10.794786734862736 7.763865890536621 9.837069388241249
Zn 10.300965810002717 12.98806798159794 9.803624946382707
Zn 13.0889803898345 13.949592457699463 9.420150303151823
Zn 13.726974424343895 11.352211297842986 9.432061209204585
Zn 7.948508067300667 11.569598383063376 9.646637379063142
Zn 12.323320086906683 15.229584815641653 11.3721928779197
Zn 12.881180491779244 9.293053873805095 10.652862824516502
Zn 10.390991815907828 10.402965350818054 10.495323155643332
Zn 8.43300289100481 13.19600147540855 11.62388198536815
Zn 8.31820211846726 8.608949293996341 10.517755408870425
Zn 10.54575826476951 14.206277901324345 12.743644831519411
Zn 7.936140278370178 10.763336686914482 12.101019300049703
Zn 9.541976932089696 6.486225103653303 12.083539015983893
Zn 12.226815768693644 12.221283005510255 11.488421631847821
Zn 11.899956664159628 10.039361763102407 12.980811792119637
Zn 11.862026590361337 7.614335147513249 12.334597651753764
Zn 9.549101163506338 8.939693008769451 12.876231601341507
Zn 10.07309305933907 11.758552921654152 13.229727807200662
