20
Energy = -9.10412204 eV
Zn 12.049799553465688 12.05575467982568 10.829769861407618
Zn 7.956330446534314 12.05575467982568 9.176360138592383
Zn 9.397966138670919 12.727503895637224 11.214689612480587
Zn 7.854546905354445 7.848524813750224 10.69948423364239
Zn 9.926504726200081 10.17355741086967 11.26175748463472
Zn 12.151583094645554 7.848524813750224 9.306645766357606
Zn 10.505446240288832 7.548199210228367 11.271777221978365
Zn 12.57537049148328 9.477280704553873 11.260441566112272
Zn 10.07962527379992 10.17355741086967 8.744372515365278
Zn 7.351920315897876 10.553892620282102 11.229265429577373
Zn 9.500683759711167 7.548199210228367 8.734352778021632
Zn 7.430759508516721 9.477280704553873 8.745688433887727
Zn 12.654209684102122 10.553892620282102 8.776864570422628
Zn 10.60816386132908 12.727503895637224 8.791440387519415
Zn 11.500462685166841 8.728726049039887 7.043681609852611
Zn 9.110088803367537 11.739558696270496 6.77517647491137
Zn 8.926350479764613 9.177651919542473 6.493042844405373
Zn 8.505667314833158 8.728726049039887 12.962448390147388
Zn 11.079779520235384 9.177651919542473 13.513087155594627
Zn 10.896041196632462 11.739558696270496 13.230953525088628
