23
Energy = -12.24093617 eV
Zn 6.611380838848572 11.262087296892881 8.974857718358392
Zn 5.878394011026205 9.782122919857013 7.023833530030354
Zn 7.467990634190715 10.286009713601446 11.231609959239346
Zn 6.994364992153795 8.64847775552673 9.29070096357724
Zn 8.712039956576508 12.332048971523012 9.927258006654132
Zn 9.085896972796675 9.62861174706905 13.124266125572793
Zn 8.859865679118235 11.14985191354816 7.621541904440007
Zn 8.342878467576647 7.755711363501244 11.38193119109894
Zn 8.98406330058945 12.071654237279496 12.4805032176582
Zn 8.117803029118457 8.736411407673451 6.741386193069213
Zn 9.205334828055507 7.521355433893873 8.714447243201882
Zn 9.943645084510376 9.907180869176841 10.064062990546237
Zn 10.25658896756184 6.128009757608731 10.66867711850982
Zn 11.455136090803553 10.68518747726742 12.949005755210614
Zn 10.638301579314561 9.332856921656937 7.2569127451259945
Zn 11.04347745254068 12.470051468395685 11.008547066918341
Zn 10.940200129925632 8.194152738681845 12.001021464960457
Zn 11.275094106582335 11.73710433486542 8.562921663450403
Zn 11.693166999953405 7.852684074893861 9.236115006041942
Zn 12.610141765787265 9.718283733626372 10.772356562494132
Zn 13.436740870265698 12.021937840452894 11.98277491293447
Zn 12.968378778197323 9.924140325757465 8.0999491292424
Zn 14.198222629406978 11.571867337458952 9.652771127678616
