21
Energy = -11.23851541 eV
Zn 12.416106368581254 10.020487870165482 6.868125796640481
Zn 10.132066835032242 8.748116041443888 7.042112205296845
Zn 10.27035479364512 11.353531007453391 6.743494218916325
Zn 7.840157904895437 7.786049417697963 7.876411493183561
Zn 8.035234895734261 10.418184046900516 7.709422899713004
Zn 6.851625979606595 11.723536990851157 9.550945496441663
Zn 12.205241930799087 8.848973270653309 9.133502837789178
Zn 11.84837805149976 11.479336582464676 9.012412894547053
Zn 9.406389802844197 12.552201268586673 8.80475308940148
Zn 10.13512131813206 7.33938893257794 9.200248388594401
Zn 9.763521481418977 9.921668103949884 9.663597471209448
Zn 6.999576492563276 9.17364978115991 9.902603746502534
Zn 9.781758647613605 5.685954376579289 11.357884340525965
Zn 7.622095431692636 6.588229034978325 10.126412150185633
Zn 12.580302212437255 10.226220088308587 11.277777885669721
Zn 8.32594312319239 13.286997903634907 10.994693097515382
Zn 8.28080632949566 10.81583005208738 11.720544388349664
Zn 11.48290329689925 7.821646262832487 11.483489295804151
Zn 10.63084878447105 12.054086092711662 11.220153148445997
Zn 8.89493830678602 8.349527492412337 11.611898982440287
Zn 10.621344087963791 9.931101457853234 12.824232248130526
