27
Energy = -16.01862686 eV
Zn 9.268728584526485 6.913651662244555 8.95668804688434
Zn 9.035782890997202 7.11510593636792 11.44204796998687
Zn 6.981670572673455 7.849812982260149 10.12654800941071
Zn 7.840842100829285 9.550086542514439 11.891936895328785
Zn 6.9609085053451984 10.626085918965664 9.63395353983815
Zn 8.516474249185842 12.037436324486078 11.20751501128217
Zn 11.441027826022983 7.845845930146861 10.701009800662451
Zn 11.560773078556032 11.069888122049022 13.704935884619442
Zn 9.995540241342496 13.22625503856779 13.104976068020417
Zn 8.677303905369875 9.62956910867601 5.572809383085919
Zn 13.869529176615503 11.058664834446551 12.486560070820348
Zn 9.629178968818405 12.462800938116176 8.827977476148126
Zn 12.926582019812109 8.752113608807633 12.792255899326861
Zn 10.148290630166633 7.981751092753141 6.876574640250383
Zn 9.640212602081744 9.721525664672082 9.537423325662505
Zn 12.00387457633002 8.835092531425092 8.388363248290995
Zn 10.5032290953904 10.722165355259714 7.001490815564484
Zn 13.651588948282438 12.537941539451595 10.371969146018085
Zn 10.696709234177094 13.772109936104188 10.676073206256094
Zn 8.957545454079044 11.025028982024772 13.721246395177243
Zn 7.8326606484550405 11.348713496749744 7.327162460195695
Zn 13.449202362215416 9.634019063953678 10.333565963124883
Zn 11.08699570973026 11.022424350163588 11.04844966217686
Zn 12.230639713694812 11.478559205935316 8.647054021961342
Zn 12.472350622445923 13.290353842552776 12.480884369805803
Zn 10.266272209975122 9.051093965726588 12.632039849043775
Zn 7.704244953338539 8.790062906035402 7.856647721513775
