29
Energy = -18.82536228 eV
Zn 10.302186126669467 10.302545059960696 6.5765507644913725
Zn 9.012898081419358 8.51130855970605 7.8437742885691835
Zn 6.6739560700455645 11.501252783118698 10.153341688897822
Zn 10.308241550450989 13.851173299671624 10.331327329175565
Zn 10.327798730058417 6.7752419333340645 9.065605364367324
Zn 11.490641979679515 10.40752013635694 10.052636645466901
Zn 8.159497083342771 13.091676180613021 11.597171474217093
Zn 6.862208116387712 9.16320292870862 9.026412810990724
Zn 8.215094937914996 13.230857634811018 9.033482536584629
Zn 10.299804481995633 12.55808258895469 12.835701951456864
Zn 8.20407947826601 7.433946813780834 10.387256336183068
Zn 12.486292810512388 7.449310834949169 10.277840906731111
Zn 11.675250648358718 8.523567986213745 12.818516137678872
Zn 6.862898591894136 9.293857097207677 11.643639992963148
Zn 8.128914399909133 11.023234812154751 13.089196287653905
Zn 13.973250061999442 11.52695038378057 10.50820210728739
Zn 8.159327936807877 11.019560193672428 7.792555149704329
Zn 9.001065402965317 8.475686078565044 12.84950583906525
Zn 13.819750710092135 9.187207078943787 11.636619842948003
Zn 10.334607132135087 12.567082219526089 7.831128005448816
Zn 12.403816269722093 13.240641646800134 11.627640523455558
Zn 12.49848759250808 11.035083491591989 12.864863971918231
Zn 13.814410512054755 9.31907868988552 9.019312390359815
Zn 11.687151145911471 8.496683105039848 7.815024371895336
Zn 10.37289855719087 6.773467922428099 11.596890555312852
Zn 9.170205495360578 10.401509334698444 10.607198040113436
Zn 10.363038802553605 10.298876494454824 14.086406596083108
Zn 12.526380529408351 11.046915055872374 7.574761518077899
Zn 12.477751764384958 13.106384655199701 9.069341572902118
