22
Energy = -12.37194187 eV
Zn 6.645470572327319 13.971184825309283 12.647866964214595
Zn 8.7310431499096 12.445556835357825 12.544599055913055
Zn 9.771093711996516 8.670039743579787 10.360148666058759
Zn 10.839612789282418 13.208550087696574 10.947609337918287
Zn 9.39163655512493 9.887393651256085 12.75288084285336
Zn 8.508988429379077 10.836164945675648 10.515754090911049
Zn 12.60031686062668 10.993427078534442 7.419082127535067
Zn 13.633552000005798 11.330012707698115 13.603169557254471
Zn 11.509864103707109 10.606135148350454 11.076752371233646
Zn 10.721878965383574 7.549250033437505 12.559548788302855
Zn 13.206822061204145 13.33189712827453 12.055926365248618
Zn 6.653805813737301 14.66244350514777 10.123347833125326
Zn 11.325604422224568 8.962515773978625 8.31373862351048
Zn 11.766638973274604 9.531846065109137 13.785818297728543
Zn 14.681538039148462 11.410483442758114 11.230090183843602
Zn 13.61329084511411 9.741738348448374 9.501267349711311
Zn 11.137747986998198 12.052726303987427 13.253623321605517
Zn 12.893056211083403 12.375182445564928 9.587603428869253
Zn 13.50732842252953 9.144190077695438 11.99723844409472
Zn 12.162620738444344 7.630372148486019 10.376611692430949
Zn 8.702793624083043 13.229514599064174 9.570637476112125
Zn 10.401156640070166 11.415020470024473 8.835541256820258
