23
Energy = -12.56865325 eV
Zn 12.701368533434335 11.396361300237526 12.144208589575529
Zn 11.766837397835255 9.370961402195409 13.593317803090466
Zn 10.26840488193907 12.303773023194085 11.569304210478153
Zn 13.566524020274167 8.91502637256897 11.734917050313607
Zn 12.125462780482033 11.860004764192642 9.600883916943785
Zn 10.513319115483117 9.867003758315494 10.44397455697974
Zn 7.808876349781994 12.488778442014635 10.78925705152671
Zn 8.639975655102372 10.381166208153527 12.20635262574509
Zn 9.965571416372107 8.044801165328348 12.331635821891055
Zn 9.369764876399834 12.018573255432365 8.88943309050921
Zn 11.882939984731767 7.584269376943561 10.32237120831716
Zn 6.604377701282326 11.225371296924017 8.273119035685546
Zn 12.199098269223072 9.529971696036988 8.461752566436939
Zn 8.692070370033754 9.571894448754083 8.821622475859588
Zn 11.17085926929559 11.660341191567008 7.207757425184364
Zn 7.838833266012442 8.200302907687346 10.913056116248379
Zn 9.562828751849882 6.3420763735146055 10.367854986881806
Zn 8.422297462452063 10.798235383445599 6.408364907227743
Zn 6.454283758605642 10.309794264907593 10.644405552423654
Zn 10.362140259647234 7.622271824541613 8.259639569053387
Zn 10.498854927163634 9.323011961081653 6.387621237318303
Zn 6.60260010484359 8.851340025667724 6.933609127236708
Zn 7.756968353176563 7.159498866106052 8.463997695616097
