24
Energy = -13.12282372 eV
Zn 12.500281192453814 9.265799600848585 14.937688018227428
Zn 13.68636276911081 10.990252914549483 13.323433589395119
Zn 11.722452566294939 7.692017073960714 10.689658900264087
Zn 10.947036076176424 13.73272522294852 7.922660071686562
Zn 11.32082476963427 11.818938715419913 14.41896116576429
Zn 10.829786614204819 11.238710553242575 7.064166727377308
Zn 8.170390053667187 9.272325095527568 11.19730836701127
Zn 12.69433986836705 11.005660694956914 10.89971153830663
Zn 10.307776054538111 8.532330825879413 6.967415075868383
Zn 9.570061850424079 8.085774060497858 9.401112690181131
Zn 12.716714245832158 13.308180551599476 12.869864228725604
Zn 8.660528881297042 12.344028189086652 8.115356168966652
Zn 12.823655284123909 11.973985027421913 8.57141040024705
Zn 8.405100572025624 10.137218457001774 6.729106388806569
Zn 11.86623711996027 9.523391452393902 8.823313312549248
Zn 9.508772657418403 13.718214322365622 10.103190823440224
Zn 9.909099656091016 10.981282407454314 10.05133248696919
Zn 10.607980728686616 9.80151691792305 12.329138599552007
Zn 13.081761747557545 8.625364607159545 12.556186444098273
Zn 10.184392420681338 12.474998658181994 12.201813820113093
Zn 7.338094747219038 10.089158192110192 9.023771297926254
Zn 12.070757459377024 13.669717114019235 10.384718586868884
Zn 10.03441121193673 9.769402204956847 15.209768414476061
Zn 8.295459694502092 8.914759512726656 13.623084160015804
