20
Energy = -10.18437156 eV
Zn 13.831852493862787 9.884707456597114 11.32500305028996
Zn 8.543464821741757 9.61289376971271 11.854281429242793
Zn 6.949180363984352 13.113577736220277 9.000905301848565
Zn 8.140799268638288 8.610999986969082 9.4496057873591
Zn 10.320980747501238 8.995897742042644 8.28078337270699
Zn 11.563231675712128 13.457933805827157 9.053744948509856
Zn 13.262634291658895 12.345665388842944 10.70999871313735
Zn 10.887275031205382 10.358310342074477 11.056983905659722
Zn 13.143846306572726 9.152077554255921 13.789561017786118
Zn 10.19798220999166 7.680997084510283 10.82486024229761
Zn 9.391749194932732 11.394095308813794 8.769526303441772
Zn 11.142696877910938 13.617784672692002 11.645179858455222
Zn 12.696343765492339 8.439978911288668 9.506470371095814
Zn 7.078668322722011 10.90279900911584 10.199202535855118
Zn 12.243615041456174 11.436767224115659 12.982802136268232
Zn 9.002353628697573 12.22391307637177 11.436439173878062
Zn 9.151526684122866 14.306728954461583 9.044433329812197
Zn 11.976508740544471 10.936806978291688 8.726131195297253
Zn 12.605026720504354 7.453130736542937 11.902206684209025
Zn 10.667236631323876 8.871907079830036 13.238853461425958
