27
Energy = -14.70268198 eV
Zn 12.110441568879837 5.971651488833933 10.222665863497229
Zn 13.777824855425388 7.986459358625081 10.566324252388219
Zn 13.999652447756237 9.9868850603783 8.812927363906978
Zn 11.776776921356213 8.574364512229876 9.06869986045103
Zn 11.905703838825463 9.07917588992494 12.115077946067023
Zn 9.753627540267127 6.714588849131385 9.055801877385946
Zn 10.107865270267046 6.769025789873427 11.745855836013776
Zn 11.618809104660633 10.806089747500558 7.878744775757024
Zn 13.998376687389188 10.553102311880282 11.37489138129473
Zn 13.289842667608447 12.313351317450598 9.51437524784291
Zn 9.829426684372038 8.820004415124622 7.5070728232879596
Zn 13.587304523766147 11.854741967026222 13.4571389111496
Zn 11.226180751858672 11.218962326428345 10.69804435474002
Zn 11.400122941526533 13.341471410351266 7.984074746023324
Zn 11.044470256299709 10.917842754627946 13.859389147189104
Zn 9.652605510491778 9.112149981238112 10.894188777230516
Zn 8.650745343456503 10.579493060862701 13.229564623119302
Zn 7.694807653014424 8.722399306958492 8.82229389017727
Zn 11.394055092109326 13.184864089947274 12.710745996335044
Zn 9.038351354535758 11.05872674477217 9.177709511872221
Zn 11.274262173618794 14.225750485993004 10.450437482821375
Zn 7.211479975973812 9.152796185901753 11.401646604585432
Zn 9.167778045787077 13.74021292730358 9.002285169166841
Zn 9.06642092733867 12.656275413558669 11.492695405919147
Zn 6.654002370656217 11.576006079343847 11.87188665913364
Zn 5.878759501770522 10.436618980902525 9.557655046739656
Zn 6.959086820268466 12.715770373111699 9.596587275184985
