21
Energy = -9.85956324 eV
Zn 12.79501266033263 11.872026146521524 8.341385569557062
Zn 8.31139585000654 10.478541932925124 12.026678793574693
Zn 8.428414705214117 12.347456778479591 8.88098747908324
Zn 9.993411382470201 8.591833079519343 5.935703948021906
Zn 10.345518749652332 8.07378495606657 8.463606743223504
Zn 11.482722957802878 10.608932080317853 13.393179310006134
Zn 10.127441126181196 8.641958965775952 12.325960276359796
Zn 9.040815144568153 9.95777873836709 14.520906200752941
Zn 11.676274471067739 13.142473379432866 12.810881359328299
Zn 12.526824487231119 9.34672495111593 9.304311783962625
Zn 12.071665720645244 11.438580912989432 10.828868066300098
Zn 8.662785115054337 10.190028435327692 7.534360915089779
Zn 9.43741301701686 12.389259046058365 13.815715432081818
Zn 10.457070911566195 12.251985364777902 7.384868714364215
Zn 7.067311427262082 12.54016177374736 11.117058971102969
Zn 9.194661423906071 7.002699019841367 10.554976656822824
Zn 12.96346795027154 9.113184746901245 11.88481990448672
Zn 11.958617891564318 9.96757188771177 6.80006213380856
Zn 11.774242461699416 7.166329317227484 10.690843279356724
Zn 9.826759600057574 10.16515341029232 9.959354679519267
Zn 9.747802415369554 12.711474494818455 11.142672261371318
