22
Energy = -11.70271239 eV
Zn 9.61017703561033 9.384887692113148 10.115231337388751
Zn 8.040615269398197 6.836924998527082 11.192180787741155
Zn 11.566745626619372 10.768974595388654 9.034166795675553
Zn 8.892358590106424 8.856778374257367 12.82192734465565
Zn 6.409538287951045 8.548079716451767 12.22265534361325
Zn 9.748978730780001 11.223259186956563 12.21257496211108
Zn 7.356236772391924 10.579259666046902 10.982726324599904
Zn 9.117856224888744 12.07164092447116 9.572542077628146
Zn 12.617951728313855 13.928094909940896 9.029717344437897
Zn 13.28680975939757 10.438089802345745 11.331525568937868
Zn 10.852154723488827 8.66829686061412 7.661436702146988
Zn 14.30027984106573 12.56703135313012 10.475317659400561
Zn 12.299138782259265 8.399400032773007 10.00636711457265
Zn 11.483960732238346 12.562145932331756 10.967610785579923
Zn 7.306997158990242 10.729516536076396 8.319117989690909
Zn 8.38975258966074 8.691413518429412 7.0529973537076405
Zn 10.610601812553208 13.431979563901601 7.6215888652184685
Zn 9.255127236256392 6.917414314790816 8.895913783516692
Zn 11.393538375731948 9.178102569556117 12.348878880883266
Zn 9.59534347527827 10.99013949345714 7.195085313597094
Zn 7.077755530676046 8.408076570124834 9.384147118272667
Zn 10.545286247530317 6.935013353044472 11.362834105535704
