24
Energy = -13.50897127 eV
Zn 10.760580849229026 11.127646262539354 8.097279114071524
Zn 11.126608848594106 11.047348659215148 14.070881726208532
Zn 12.527067029945256 9.794881391616089 9.256233872692377
Zn 12.28910090279659 9.642900711700026 12.126337445850572
Zn 13.210445041079751 12.24257137863983 8.504072353978636
Zn 13.119428703844457 12.127005977724679 12.837584772454186
Zn 11.07869860770311 13.696548953165415 9.105609891313549
Zn 10.498868223459075 13.460449825167634 13.315612112822661
Zn 8.788806013872732 12.627676020851538 8.426467974987771
Zn 9.006752666211188 11.33964310253797 12.58432734800078
Zn 10.144501312980815 9.64063822877046 10.352265134174939
Zn 9.895346906727617 9.003973629076345 13.097202521795726
Zn 11.314565393440546 11.857170740205595 11.005434622948679
Zn 13.076403457005725 6.681868903082493 10.818565937160365
Zn 14.416902861325593 8.799393903198109 10.617771798742648
Zn 14.295484795639194 11.29631034455617 10.663308607995221
Zn 13.326336956602823 13.782375943668777 10.621516911353694
Zn 11.03880869933963 15.157898801863169 11.277518464276897
Zn 9.164417774718965 13.350316363276225 10.974437493166434
Zn 7.903137827647617 11.069983897870767 10.254511170032451
Zn 6.775880294856336 8.833497194754496 10.74562565939183
Zn 8.196098830048344 7.321894047608207 12.131779792295662
Zn 10.767073841940872 7.014315180359582 11.654029530083465
Zn 12.818420029714073 14.688986120204106 13.011615668268464
