27
Energy = -16.37950529 eV
Zn 12.21296536873325 7.665841110159566 10.50086931219194
Zn 12.309058296043998 8.69105197882488 8.127827325980482
Zn 11.84654620285377 9.09557682656465 12.638410030528542
Zn 12.663840684841803 11.565139855006523 12.548955875431808
Zn 9.982196536266445 7.443722136723417 11.741871333799399
Zn 12.42628551772681 10.222005336828644 10.23514922868055
Zn 10.30428193062564 6.839307862568384 9.03729859889061
Zn 10.566963552207369 11.113068098077084 13.958545155736402
Zn 12.284133070207188 11.555490074179561 7.906977864585589
Zn 12.263186139024292 12.897645833067351 10.479287081652156
Zn 11.503145317470489 9.985422165152919 6.04572453162165
Zn 9.534409425228953 8.721595804975259 13.943913312903497
Zn 9.829047240399955 10.214870879266751 11.133460695565129
Zn 6.727628736763175 9.062679204868948 8.028053978658145
Zn 8.63241577341527 9.661512009986703 6.29520085408937
Zn 6.853574278882496 10.160450714779461 10.415382672962801
Zn 7.995273547598431 12.409070395730609 10.730663895459832
Zn 8.127336152171583 7.929775526906759 10.007751137705565
Zn 7.889777436887882 11.378257487700445 8.25942100227169
Zn 8.165967771909582 7.081611896853125 7.489575121311947
Zn 8.146120315248737 11.276354426742774 13.014419406227141
Zn 9.981373519115914 11.911059399289423 6.719869417412945
Zn 10.10136153778119 12.425691953597177 9.239926560672895
Zn 10.470007169409158 7.676669560747479 6.542015826890032
Zn 7.46993280490472 8.848104892664477 12.547726579863888
Zn 9.898640410493627 9.640774314082881 8.769657407096027
Zn 10.17622385928284 12.888942850149629 12.003738387305335
