28
Energy = -17.12976044 eV
Zn 11.961001963774715 10.175205478446669 11.664564881056489
Zn 6.904713209591039 8.34631611999676 11.80905546176516
Zn 5.3966370304995035 9.37337884225663 10.04749687008772
Zn 10.88095918391864 5.28239817925482 8.22421552245627
Zn 6.751981896765103 10.88053237043884 11.906574756415038
Zn 8.700081889087308 5.711248678728807 9.40930178436137
Zn 10.509908102227989 10.644222091137834 7.687797663760619
Zn 10.659256741933623 11.653196667934667 10.053444277341878
Zn 6.304066780176164 11.915931101879286 9.59005326609438
Zn 6.739880954389523 7.230753780425993 9.389891571212488
Zn 11.990883736077162 7.712865051478792 11.60448499636716
Zn 8.466128002202671 12.47774283100166 11.001983331844231
Zn 12.457080754697877 7.333712235976772 8.928842680358684
Zn 11.24806736368892 6.923107212867961 6.4558441153640596
Zn 10.626138438032868 9.152456451841536 5.574361060997855
Zn 9.170385886115511 7.336489178750703 11.422766153589071
Zn 8.105196405831355 9.787605288393575 9.17023467441559
Zn 12.715925577943034 9.132603996435142 7.00880185757352
Zn 8.792197388145759 7.575559574452543 7.461112000538254
Zn 4.596099907938795 10.643553582474466 8.037266478816647
Zn 6.758552239477956 11.657814070737464 7.015792488656632
Zn 10.23676174003135 8.603951493303626 9.377143532436712
Zn 6.299601892517402 8.813251960325811 7.358599623956729
Zn 10.992736376339801 5.596906714352583 10.730924599981483
Zn 8.327078446768061 9.905096594006384 6.166433584589321
Zn 12.809686210293293 10.098372898427606 9.28943507181589
Zn 8.720846663520826 12.488883845159625 8.364581831954093
Zn 9.296928466911014 9.965626958411601 11.66777911108905
