22
Energy = -10.40293717 eV
Zn 13.734783983352981 11.41345253434691 10.350213740427261
Zn 10.421973052540867 10.832435209404828 6.845667544184681
Zn 12.487830417220831 10.558167873543546 8.25591276503795
Zn 13.365115984644852 8.799674994085505 9.88375137592641
Zn 12.038919886241908 12.973383239671058 9.1326605327886
Zn 13.467412869536279 6.1747512290746265 10.16913159607932
Zn 12.502318226590878 9.99791053353687 12.137824443569873
Zn 9.61294489488095 11.74919048705163 9.445391694457236
Zn 11.843364652471774 12.677713222577141 11.663956037916686
Zn 10.627139562541714 15.058067691734038 9.004729558849414
Zn 8.845431581739868 9.349021085355613 8.130082949648626
Zn 10.837625029952163 11.316348721505163 13.714097927914311
Zn 11.64377825110566 7.471788723670797 11.562018860247262
Zn 10.745311492334048 9.520710721264907 10.124035241398026
Zn 9.470805220996132 13.048521829748598 12.490550134245542
Zn 8.607718098231201 14.148454707760456 10.201399379733276
Zn 7.0282026005585765 10.468087962682018 9.477145895113212
Zn 10.684707966886661 8.680826269533746 13.551607500070883
Zn 9.260370109441435 6.942503361723013 12.241881778226535
Zn 7.4177057290812405 12.167072831900414 11.24975823649476
Zn 8.326328127443782 8.37196584803893 10.417511334618924
Zn 9.03581596543126 10.291052818946799 12.102792178341103
