20
Energy = -11.74380886 eV
Zn 10.993767297218463 11.326684611736647 7.388100953640977
Zn 12.697097515636516 11.813948939865158 9.350076187494842
Zn 12.062931958169576 9.301924823648184 8.775349489331646
Zn 9.48000224680582 9.428025011524598 8.474257812415185
Zn 8.632985697316043 11.910100362657921 8.277504489781736
Zn 7.940987849289922 10.401415209273686 10.40951109931549
Zn 14.371136804814052 9.92558162497195 9.910041188870164
Zn 10.649085213166998 13.431768016395676 8.854729601599306
Zn 8.019709969740171 7.824892051034049 9.890204279813368
Zn 10.614810341412895 10.634812831346897 10.588895574803997
Zn 8.975508787228533 12.754152413049605 10.762531431376408
Zn 11.567996175054905 13.012397620846015 11.347155050974889
Zn 8.64662516917977 8.439191137303437 12.26549118011998
Zn 10.55990455718081 7.810119208703012 10.42724792919421
Zn 13.09259997090657 10.884638934003686 11.953232478760329
Zn 12.956901183808776 8.267774620995237 11.202368866701823
Zn 9.676508095957148 13.402243416860236 13.150878840021429
Zn 8.932737399009785 10.920240306314657 12.84735282349367
Zn 11.084979799540243 9.226228706524324 12.751043735120966
Zn 11.399453840977879 11.639590025359448 13.729756859584022
