25
Energy = -14.87456973 eV
Zn 9.049827897232303 11.312921713560208 11.909748496252066
Zn 11.648402143244871 8.452058864046016 12.56645051844164
Zn 8.8509074645887 13.535579565647337 10.378397079634206
Zn 8.436062563815106 9.059028447990814 10.381912725418925
Zn 9.572822478214055 12.309677621249529 8.129782940966708
Zn 9.677808705526006 7.351016001155606 8.808995103031027
Zn 7.73389019465268 11.32570870474297 9.516652750307166
Zn 12.194347813295531 7.627518697853094 10.11562210241015
Zn 11.76316841428865 8.387596738660758 7.664428301453629
Zn 11.906173664222047 11.079862303016396 8.10021184774226
Zn 11.950157555101104 11.560432830791335 12.463424343497147
Zn 13.885933218170269 11.778780943359791 9.922000730179553
Zn 9.51994947852413 9.762272091065396 8.009127906089175
Zn 10.930523764228848 15.061175082414612 11.255863616578718
Zn 10.039294218696979 12.396139693239391 14.495895060108266
Zn 11.818028867464438 13.950305745317866 13.467148136470756
Zn 10.75506054442786 10.016273435696531 14.322310490026352
Zn 13.309774540607398 13.858613775752612 11.390150990047426
Zn 9.102964431586745 14.040264205279465 12.857468070424293
Zn 9.051618091126995 8.818541724082117 12.863516530084068
Zn 11.335706688109752 12.734781164506527 9.96583472366314
Zn 13.737120753917788 9.410417119545684 8.86738132843339
Zn 9.937886907478251 6.88242211557849 11.2606414427772
Zn 10.88508847724289 10.133297500609443 10.453540407878986
Zn 13.497315667944013 9.745148458545993 11.42332890179159
