23
Energy = -12.42780267 eV
Zn 12.157994954368192 8.15690144210757 7.6647096680984115
Zn 9.700650437020562 9.224954128232364 6.251246751540823
Zn 8.10065071387762 7.299635612316395 7.0071066020471875
Zn 12.34514003091885 7.452199502591557 10.158759409018584
Zn 13.441051866694611 9.648951763820763 9.43292147244912
Zn 11.290109962759804 10.580784338090265 8.141632436443171
Zn 9.90313367151793 8.172445491858547 8.907366910456373
Zn 7.487118771620514 9.96510726277242 7.182223120869087
Zn 7.431858197980234 6.572399129006707 9.368924610287351
Zn 9.364532927042221 11.793174652222106 7.094277890981838
Zn 10.211674928737054 7.677381800728416 11.483056848594872
Zn 11.99897147469047 9.661969424736952 11.708387485009418
Zn 9.946869204715943 10.282056857378715 10.342259994781841
Zn 7.734985824594611 7.7889768616723645 11.82228928943012
Zn 7.915008535510817 11.780081359251174 9.255663626243155
Zn 10.263124879242215 13.025173499813919 9.212105860413672
Zn 7.56037655452306 9.194349133448668 9.585699861774925
Zn 9.465470731523501 9.229453622128489 13.461999551865842
Zn 12.372473587250132 11.850322778100443 10.227078559763507
Zn 9.004521143262167 12.611116561533706 11.541421809443715
Zn 7.727463466148035 10.397844183886887 11.871455381384525
Zn 11.386563194731613 13.381231950626924 11.968452155575966
Zn 10.454242750874709 11.519641682602524 13.589930568939124
