23
Energy = -11.45219178 eV
Zn 16.254729743077387 9.110762596629883 10.085406579356023
Zn 8.533467437560542 11.695144172264698 9.644392478642148
Zn 6.967626159228327 12.272852950992107 13.588098504320973
Zn 12.764923112054475 8.132606350082979 13.122681044263784
Zn 11.830221122506071 14.887915979733565 10.129266852552291
Zn 11.264534886614664 8.952799632584247 10.71695788818136
Zn 10.68042041588929 6.92436884248315 13.844543038973015
Zn 8.60602357453212 9.167528415729645 10.043490155526872
Zn 13.051959666499094 13.183565523064676 11.591939956368575
Zn 11.10425697291724 12.413755704364412 9.520447001325836
Zn 13.541720874775807 13.05051640913972 9.022781135292696
Zn 13.86940135018718 8.71997945387845 10.913434045992998
Zn 8.686555788558856 10.746464921403826 12.25868079321497
Zn 9.7668291982986 15.633911865318465 11.417227500202012
Zn 10.700780078093189 9.760318708790885 13.59506078407696
Zn 8.451769972430347 13.394110107259715 11.690746084139493
Zn 10.376876080979276 10.169161874742217 8.545689631099439
Zn 10.772205329034538 12.319929329149101 12.358067789945443
Zn 9.117208950262066 7.971254649333115 12.219426520138104
Zn 9.208695423489559 14.275775758049097 9.312582959815604
Zn 14.679658534303185 11.237703521238489 10.447805149085807
Zn 12.871615061174259 10.355988531934617 8.804957715289119
Zn 12.869720932678595 10.727725848226514 12.37339009392014
