26
Energy = -15.21284183 eV
Zn 12.896916324894331 14.148469105703597 9.909350740179208
Zn 10.0372062031163 8.569804786717855 9.68922391324269
Zn 10.399571867082363 10.608041207125503 15.229677736415377
Zn 12.452125956665807 13.10131223932265 7.672319800147882
Zn 9.296703770365353 10.004622838523492 7.4402797190940495
Zn 12.71424322550218 8.818719450765528 9.228136398526324
Zn 9.885298489326836 12.946750595580992 11.384928026029973
Zn 12.982864038691032 9.905983201330251 11.589508993471672
Zn 10.409789122952535 14.111954925485819 9.13874631778144
Zn 8.463485706172888 12.235459827107881 9.081793066827597
Zn 7.685050174871525 11.44300264404183 11.428134150922638
Zn 13.4327677148507 11.35283231214626 9.439723921397112
Zn 10.107932653923083 12.435458382305617 7.02556743829935
Zn 8.025144122867582 8.322658775075977 11.591099680973732
Zn 10.156288033088446 10.258703276404752 11.838628180346799
Zn 12.192297044224704 10.632817151957324 7.128226547043798
Zn 11.218626576366788 8.314353703720062 7.231971296156869
Zn 12.620682105869394 12.488243016962993 11.728902892383813
Zn 10.87125056476324 11.142047100309814 9.630045068918102
Zn 11.707684003670671 8.795205404057741 13.701219064260107
Zn 8.705910743792531 9.263831904764762 13.88614876266944
Zn 12.400585829846907 11.301230559226836 13.87999242157372
Zn 8.866038792338383 11.976396034327959 13.675358474751071
Zn 7.7491719987589605 9.791062817392293 9.526859459572757
Zn 11.863219042510542 7.567174318680003 11.346931513787633
Zn 9.89578904045664 7.114513803862519 12.932209530257092
