22
Energy = -12.1757681 eV
Zn 7.7534631100137625 6.390863721887079 9.182303209887868
Zn 6.9539996737951 7.664561724646064 11.373867294481895
Zn 6.265283863587782 8.552121915835436 9.068441333987163
Zn 9.578050432304583 7.235987434046752 10.75862548495789
Zn 8.929714600090579 8.29524381273815 7.916823074538843
Zn 12.04931298217235 7.161501199612319 10.149061519658842
Zn 8.723016965104327 9.089186096894863 12.461405774851766
Zn 6.935871601280338 10.37552317115788 10.866403156750456
Zn 7.5167033999546815 10.540149853057681 8.189773897670342
Zn 11.433639251633357 9.013222600418752 8.370571147329727
Zn 11.34573563867094 8.838138494736457 12.064821005915208
Zn 9.455153190250275 9.793158581253094 9.975333092242142
Zn 13.31103890672494 9.376427103763538 10.295140585296279
Zn 10.358892114552296 10.95997963159673 13.303438799779375
Zn 10.008702094095437 10.380557636578278 6.6598834455935005
Zn 8.183550268831599 11.994900320823772 12.52442919667899
Zn 8.828584669077328 12.458343460868962 10.120052622793796
Zn 14.556516502982811 10.843058859358347 8.682236357875862
Zn 12.762763013769595 11.357025966725304 6.965015518221823
Zn 11.42271845096 11.269266078598793 11.029562351200756
Zn 10.89621655170509 11.851483397492359 8.672930879496494
Zn 8.746819467067375 12.556408681593009 7.429936896613317
