27
Energy = -15.2381411 eV
Zn 11.197615108392133 7.506902940094613 8.32187886299063
Zn 13.201187479953486 8.99481396282643 8.907507608131558
Zn 9.58893457663625 6.34723105251194 9.868288998010538
Zn 8.448180151945751 7.771788831356265 7.974043884178231
Zn 11.572514069511936 8.475543925277666 10.876313644217138
Zn 15.058567558131099 8.85706684621909 10.659184573467222
Zn 9.994826716347504 9.529614213485345 7.119647123670421
Zn 9.223923011490262 7.249710085656385 12.138617103590462
Zn 11.920417723608134 10.933038186597994 7.948973616335274
Zn 14.691374077459736 10.683282761409918 12.486213299156411
Zn 7.831007733512137 8.519497180717606 10.317557001168682
Zn 7.4681818851768975 10.15373650115122 8.077203556003173
Zn 13.477129939780141 11.34576963860672 9.894157620196717
Zn 12.050631197074791 10.744426143014772 12.16110955789915
Zn 10.141933865493735 10.625469412539593 10.283058101171848
Zn 9.582952756816425 11.965839356602697 7.979773228560765
Zn 7.356229735302726 12.739037561531887 8.813798983104375
Zn 10.72786298389782 8.811378525597814 13.373172831919025
Zn 12.995069380111351 13.212855931801522 11.535859356113184
Zn 8.444832797861297 9.781687684850398 12.680018184193655
Zn 7.507709100275461 11.090422127640778 10.732158545953512
Zn 11.349667926829209 13.122536718855184 9.43448369696815
Zn 10.142166285191193 11.068859674262054 14.329913049936106
Zn 9.192004661746262 12.396587713981107 12.281823188666017
Zn 8.337490177826107 14.357729682408683 10.505877673486
Zn 11.504841978172005 13.009997533926176 13.573171108812303
Zn 10.680055871293165 14.443770966972272 11.508340623003573
