22
Energy = -10.07300482 eV
Zn 14.271586547271932 12.621096354229888 11.0433341727932
Zn 8.831269187157046 9.106605756429795 12.563854941758766
Zn 9.498044403942561 9.548153547153865 9.742010136417257
Zn 8.760834339133314 11.424121954834998 11.400279475085183
Zn 9.765904186728541 6.74661696894542 13.699560524025724
Zn 10.44206414198469 15.33281545004628 10.81863399078554
Zn 8.945212458279372 15.827434811291857 13.065643129278705
Zn 14.662113117979553 14.491596438302304 9.18181621685153
Zn 10.692434722938662 13.381053520927031 12.70536155341428
Zn 11.51670257143546 16.068777483708548 13.146835510385932
Zn 11.998293591174809 8.772774704204272 10.226252384932227
Zn 8.102678580858155 13.835716534895713 11.720945708597496
Zn 15.243149262528544 11.480281583257186 13.250436961971596
Zn 11.536601494235592 8.497214842631607 13.03147741623503
Zn 15.241816647588937 10.232114165276968 10.72794934884492
Zn 13.247494316638084 15.012833561065436 11.62814528624501
Zn 14.319717843116619 8.273022768717464 9.320517925380823
Zn 13.006342953960258 10.451208793702161 12.331026612348047
Zn 12.178597970866274 13.600703821489022 9.686074177206837
Zn 10.01168117324076 7.32433474515389 11.062821816511251
Zn 10.591575078091424 10.902839908953876 13.327757576477508
Zn 11.34003598582609 11.319312760847158 10.459909111986113
