26
Energy = -14.93802973 eV
Zn 9.436960789467534 14.041905096717576 9.542091202619313
Zn 10.275777316560195 14.141312688098001 11.94953312393275
Zn 11.805109874461767 13.150592198968384 10.012314515750312
Zn 14.153558580909497 12.104739442868366 10.50792942090684
Zn 11.014767200610892 10.773840371350822 10.893525577192143
Zn 8.676353359715058 12.222638133632143 11.28978503896302
Zn 10.348616244381425 12.472831589517606 7.687904968115636
Zn 7.836334757149655 12.271081037229864 8.724067133870994
Zn 12.488089827296013 12.9508207989283 12.534094104617989
Zn 14.321727173942389 11.194519858578648 12.906624400736527
Zn 12.923674735133059 11.535180616296994 8.30612243214482
Zn 10.63730672199928 9.900115613679395 14.785087370100783
Zn 12.540073854908124 11.516560457787156 14.715708537517981
Zn 10.251611526994447 12.134147001272664 13.547765828308524
Zn 6.085287995762942 10.232595292691322 8.930458204757082
Zn 13.806515969243366 9.631847631679973 10.992408146940061
Zn 12.807997673431492 9.157210004701058 13.439235425719405
Zn 11.243454473013625 10.153667121604618 7.016800116788798
Zn 9.024709305242569 9.923999517244072 12.691303457609054
Zn 10.531339696217499 7.845586002612821 13.303204221355195
Zn 8.723392175628414 10.25925080228651 7.476927286107289
Zn 12.798394583379531 8.979388432695746 8.713327046942199
Zn 11.714186435905628 8.218629715589302 10.998700015031615
Zn 8.307529557445996 9.89590971420565 10.151850190599474
Zn 10.17723987180627 8.69824097319483 8.879331287517418
Zn 9.195162043729098 7.718561630905449 11.129072690191112
