28
Energy = -15.99114385 eV
Zn 9.35929361479973 14.670875967568145 13.488869202531994
Zn 11.286250746110367 13.257244036982472 14.289872652157708
Zn 12.184384315233878 11.115941495205377 13.340944362542851
Zn 9.355044526829909 11.329576919068725 12.618622246428576
Zn 10.811954066694645 9.037980819954516 12.500515007954217
Zn 13.989205005972716 6.989042487586652 10.993176708122737
Zn 8.23802344994547 13.65867630547889 11.458574016407434
Zn 8.364057286283678 9.19149775951688 11.688157811329518
Zn 11.75976512689688 6.661779749935385 12.043759412234527
Zn 10.870160461290439 12.726625423553932 11.238083185388161
Zn 7.329007974665734 11.33226397807159 10.669055344141988
Zn 12.70871732398911 10.773820899883832 10.75874558079759
Zn 9.4232546922145 6.679139566815012 11.125210271715886
Zn 13.401651094825697 9.001424724880987 12.49704524540695
Zn 8.986936287585438 12.873987528477262 9.082982432743004
Zn 7.125113351076791 7.599140484404975 10.173492701473917
Zn 9.836143754147377 10.187464750992046 9.779468418227305
Zn 7.010837903610541 11.550726125853618 8.194738825811662
Zn 11.445550422062736 12.037018054875745 8.887480921147818
Zn 5.985192119595574 9.24380966460256 8.65587175178775
Zn 9.236646520148287 7.7022039977984065 8.774466638330194
Zn 14.281877377065582 9.029002021045724 9.622987514101549
Zn 11.78338998362307 7.967505315261467 9.697301972865171
Zn 8.703086649355956 12.024953148846542 6.320232744629275
Zn 8.212578267346892 9.533328516393038 7.13560237920054
Zn 13.074048539551628 10.16811974259433 7.749507600080472
Zn 10.820333497174797 9.013460929823456 7.429787815055388
Zn 11.101140100762619 11.357898670438221 6.469193703009513
