29
Energy = -14.48800087 eV
Zn 14.160748762139153 14.048524802648478 13.010227883107722
Zn 15.682769700363695 12.375317652133798 11.73998406481669
Zn 13.507902454819105 13.962562729268154 15.432124563320752
Zn 13.971595817287234 13.958410206030203 10.478867453344497
Zn 16.984574485855408 10.260103249059734 11.224512914332145
Zn 13.512359950953819 11.178534174612583 10.473389049711498
Zn 11.73379036154021 13.503671284419735 12.194790257341234
Zn 9.648192270982282 13.38693219518702 10.685019228121563
Zn 11.884821286537887 12.974011014963857 9.44646433266497
Zn 11.512489665697485 12.459459351678959 15.012106318307092
Zn 14.824811638386391 8.933639555352176 10.938211805747041
Zn 9.906336852611956 12.539282914138305 8.027877847321498
Zn 11.872944171769182 10.542286031496936 8.612976135640915
Zn 10.943290101468058 10.9437630030406 11.276432481964175
Zn 7.805440545778779 12.343373474559849 6.532193119913298
Zn 7.313146959649124 12.576723181414911 9.084534310219176
Zn 12.575155967405324 8.023339231811237 14.5717387073404
Zn 9.556145058473628 12.424784294409632 13.261551872989871
Zn 7.823764369135039 11.747842707381674 11.483382498218889
Zn 12.56207322763022 9.184337919894842 12.117799795231445
Zn 9.21412947999069 9.99374923310868 8.35790261421797
Zn 11.0567982896352 10.234559342230808 13.964961379971331
Zn 12.822365429932654 7.461599567855105 10.247459983365284
Zn 10.937451778259089 8.1732944496143 8.845906889672381
Zn 6.406535677334842 10.464109250010976 7.4803324459396885
Zn 9.451500868683498 8.756348114242353 10.8931468561298
Zn 8.623063034848519 9.961504770516472 13.202425543944111
Zn 7.050476248482236 9.784774313505553 9.884415776255302
Zn 7.109701638791555 8.257538079854367 11.97363996529151
