24
Energy = -13.01241329 eV
Zn 11.115039386076592 12.619964240801792 7.254221550357671
Zn 13.458033098296546 11.784753480025556 7.727970950077091
Zn 10.421287085595173 7.965421630469343 6.84525858710761
Zn 12.170841629859689 9.628683495651636 7.386512196983972
Zn 9.595874489521849 10.517149281395039 7.233379596628308
Zn 10.520973370671236 10.01037087958428 9.660902208704464
Zn 9.354047321240712 12.52348948243333 9.062833099160256
Zn 11.931585313385138 12.238256511612128 9.88504142464544
Zn 13.405306226315432 10.034044931046317 9.661575352145606
Zn 9.508848060638295 6.34301265901382 8.548128161771416
Zn 13.084971353025313 8.1923548799977 11.442577665137007
Zn 8.060733607773173 8.411200044472558 7.711759009836313
Zn 11.658967317311271 7.649698565820525 9.33369596782553
Zn 7.4595852134132725 12.40576419641063 10.769578962087552
Zn 12.403098204105381 10.644702209118078 12.022480893017397
Zn 7.702834877958271 10.393365598516686 9.219273109216688
Zn 8.777782530721204 8.101006745147814 10.23393936406291
Zn 10.604294822292449 8.542155234957074 11.972198226483838
Zn 10.070656999120361 11.851016351604972 11.683364241361467
Zn 7.6010992237683315 12.821361126693036 13.220443709621886
Zn 9.825686248761048 12.41513392061945 14.47442470501972
Zn 8.081484956967612 10.507875813937128 14.435593890231102
Zn 10.76206419627164 10.112335438092446 14.008736727822612
Zn 8.079213324580419 9.974510213192424 11.878711247495293
