23
Energy = -12.76597921 eV
Zn 12.639305122143545 8.67094277715128 10.396629720499558
Zn 9.957114230995186 10.733972794002893 13.463464948717872
Zn 12.30866288039506 10.732943737427933 12.109645302272494
Zn 10.621293950041517 8.575508403417377 12.087405049508474
Zn 11.177818524089995 6.568689773996449 10.481308693536864
Zn 13.88658092455032 10.848878294044763 9.950333847219035
Zn 8.599490670606228 10.198170293031701 11.293715656354388
Zn 8.772933503627193 7.382912845157696 10.159320110113923
Zn 13.349749205918666 12.05331782511743 7.808108944838304
Zn 8.2818377118614 8.097026311045509 13.408048278882582
Zn 10.630308919863921 7.975542307233944 8.42327803341395
Zn 12.099678682843614 12.681754923874434 10.178783069882149
Zn 10.836880982166809 12.365431918818276 7.882952270031287
Zn 10.718082708357391 10.31355562348925 9.789774905778428
Zn 10.728680654800632 12.831188968648496 12.36890876735197
Zn 6.617975377879824 7.698953490860353 11.46150073285764
Zn 12.678652197579511 9.531749625647397 7.765263342895603
Zn 8.281121337289433 9.406339752814466 8.66493191453872
Zn 5.532498843769129 9.834330648865068 10.737727247535009
Zn 9.386011098465374 12.588650174578753 10.155727084620688
Zn 8.418543624673982 11.799873272225431 7.5949215418335205
Zn 7.037627886688862 11.61530960582905 9.700204067386224
Zn 10.1699159761524 9.98227602335612 6.941372778303435
