22
Energy = -11.89534247 eV
Zn 13.527230982371137 12.441378755416174 10.379884317373506
Zn 11.96991246675165 12.053630285594652 8.227915259004787
Zn 11.729323266873939 14.195156536205753 9.93642594876597
Zn 12.092606477436707 13.435417254520614 12.443336938579282
Zn 12.956352164363652 10.017125936799818 9.896099231179937
Zn 9.894667141069243 13.68751440954421 8.27632808419279
Zn 12.947538055962067 11.048171663503942 12.516871849311919
Zn 9.719261091246393 13.644851330207421 11.467641935001591
Zn 9.295153137812218 11.12946384660734 7.991968935208186
Zn 10.567107605089015 11.36272136719446 10.419909768444855
Zn 7.964152090586531 12.934862013989854 9.687064297284657
Zn 11.385550427001402 9.585749296036635 7.819436723866341
Zn 11.37913730447413 9.20262243772144 11.836989417823023
Zn 11.935853292552778 6.986188265140952 13.200946021111665
Zn 7.978410015443389 11.874215668031528 12.196685021885715
Zn 9.306193544925973 6.866210220889688 12.604955212288646
Zn 7.6418065644229065 10.4519381723579 10.026159121393823
Zn 10.384920015038412 11.473978009041108 13.12426865597085
Zn 9.615008060336582 8.935898506102403 9.689547912873278
Zn 11.869069708429764 7.69629005617886 9.540158252536651
Zn 8.805733381954234 9.422330824498298 12.21684186897705
Zn 11.075501024640392 5.746811986425595 11.018188744574777
