27
Energy = -15.62156473 eV
Zn 12.20139839482445 12.350483184734106 11.983305969062064
Zn 12.441339474097019 14.212269362977365 10.341591260981161
Zn 11.194445121594642 10.196567439195793 12.993472818233228
Zn 9.519020078784758 11.844264347524033 11.806444825018318
Zn 13.924645749145842 12.130168629262945 9.88318118178144
Zn 8.82787254595688 10.34224350846848 13.953786612583096
Zn 13.204538264887859 9.989364481794906 11.164976426414228
Zn 9.40511258483911 7.792839849312357 13.026699819156672
Zn 11.739976937194022 7.946721828885939 11.866949120912603
Zn 11.007253771188271 11.245939309984479 9.688830579078727
Zn 12.205928796133325 13.055212280843282 8.010824173494221
Zn 10.041653134970085 13.982040238447135 9.738956682878667
Zn 9.524639670434748 9.411197340846135 10.598365973448931
Zn 6.933700892349158 8.834139141610205 13.403385849977989
Zn 9.786233388065758 12.77956539932515 7.449507079356145
Zn 7.922192081900504 12.44609794286412 9.937939673637823
Zn 7.096648131117558 10.465573866658843 11.375229729022031
Zn 13.214378639741254 10.601486011299356 7.999830171296864
Zn 11.982801731195515 8.60731117770195 9.428432027042739
Zn 9.872817322617678 6.5222301860317025 10.799650776888877
Zn 7.798464493629234 11.205436795546515 7.735472333526852
Zn 7.468269241856776 7.771064794906258 11.191833415587512
Zn 9.864703109568733 9.747456685840874 7.91814072436983
Zn 7.312971499286848 9.074722926990296 8.95302004822374
Zn 12.091816578127903 8.72450517368164 6.719164199527447
Zn 10.341323886115726 7.1022875945989785 8.08193987298477
Zn 8.039851800527886 6.649358948570438 8.952504025886594
