21
Energy = -11.95558159 eV
Zn 7.238844255679771 9.998077968699087 8.672868803497662
Zn 7.30934495572113 10.056032814183142 11.251734800861906
Zn 7.112429088735645 7.68837866063912 10.048945396239692
Zn 8.728887331512443 11.939298576725673 7.349515889409122
Zn 8.106022537898797 12.245577594285724 9.819226945067433
Zn 8.267587685315602 9.698912621311376 6.257734182239689
Zn 8.873885229524875 7.996127993502553 8.101186608614471
Zn 9.62956520980857 9.827575965171773 9.882085917673527
Zn 9.454830631555172 6.607784007557948 10.27170325605023
Zn 7.8551257052247 12.3366472601633 12.441320429430892
Zn 12.070781867724627 6.541075303462997 6.695926279134982
Zn 10.977098403368743 8.280574919114125 11.575103947480518
Zn 8.433603369582835 7.902868707449155 12.26439707987376
Zn 11.376814249625944 7.960949124783911 8.901576117960058
Zn 9.59774750402135 10.293902379317089 12.538118025769691
Zn 10.176984542709965 12.801666770744317 11.50770288243611
Zn 10.702253702976853 12.075009079655919 9.058364818236711
Zn 10.640624637751396 10.004605094934128 7.266432137797201
Zn 13.274800045040461 8.808088164793444 10.565062660582198
Zn 11.851917410442317 10.886890529015195 11.244219512742275
Zn 12.69292425281517 10.422751583974364 8.72033389917364
