26
Energy = -15.47870957 eV
Zn 7.91419408534964 7.500544329350199 10.986393549263651
Zn 9.5952784488831 10.30930813380287 7.853525486342015
Zn 11.804911493453345 10.540970880412743 10.524606321445646
Zn 6.419033136200944 11.804667986486617 10.53042767858261
Zn 11.695779571279568 9.301650245704884 12.916899367758207
Zn 10.275461160505253 12.795898884195235 8.894261154005548
Zn 12.064174451234758 11.038626297641738 7.8870451407770075
Zn 8.157086658180068 11.819895340234526 12.492876094442408
Zn 13.30491851591145 7.617977257085906 11.568224031392662
Zn 9.343229967829608 10.492620976851951 10.500161352191563
Zn 10.546738446938578 8.009983671340176 10.990534649294373
Zn 6.747616425510638 9.643806025323999 11.833713922413594
Zn 10.485339656029174 12.661343571510189 11.570365032768013
Zn 7.174456435204253 9.578592008467062 9.182347423548524
Zn 9.073035074433745 9.12881570863125 12.853821446943874
Zn 14.363012455720368 11.330731919078826 9.02878336739441
Zn 14.261047740618608 12.743046960914949 11.217252701052114
Zn 7.843952763288787 12.040247888746661 8.440265203093213
Zn 14.34619944722135 10.05695476467021 11.5480847403568
Zn 11.41794433670786 8.505275858452555 8.524053333668988
Zn 13.86739514199685 8.78095683609836 9.235540953941861
Zn 12.738968295835907 13.418052392511372 9.234354622398753
Zn 8.986378422685467 7.8462005416439675 8.705847334005531
Zn 10.288101310521617 11.22754330626071 13.807187906310974
Zn 12.609791526918158 11.793599776729577 12.864449854139892
Zn 8.281352031541228 13.61808543785349 10.41437433246794
