25
Energy = -14.87260852 eV
Zn 7.184405618407567 11.11651901030504 11.618523977488879
Zn 9.777987107240694 13.47315091869537 9.094690412145598
Zn 11.399338737121992 13.934482202583924 10.949186377133286
Zn 11.622072218510173 11.507350244681831 9.010153105178132
Zn 8.43952765682378 8.749281367682315 8.534971662415938
Zn 7.941119386965696 8.877419593720875 12.81906488167888
Zn 9.421003653680764 10.970713297451079 13.266035815690246
Zn 11.650573898959133 11.424747936710165 11.9902254812285
Zn 11.717493497767206 8.856406626789713 10.830819511713234
Zn 9.181669588896083 12.918997483608477 11.63287084042997
Zn 10.76725554045428 7.66749988463702 8.738564687718263
Zn 7.31049841073314 12.815251984455703 9.660227902886078
Zn 14.2196091268985 11.157051397045295 12.210979275205652
Zn 14.420705850339017 8.895780362092312 10.83052962456708
Zn 13.682551252579891 13.046818474884219 10.565743211156612
Zn 10.738511824542842 9.642974221856008 7.217274661178872
Zn 6.636166925295035 10.565616074768217 8.777725997949045
Zn 9.362206100852182 7.812685380514461 10.931869204437534
Zn 14.503969848379887 11.048835340266708 9.323148830991535
Zn 13.065756697893034 9.08597730922305 13.141547799862337
Zn 9.656626247976059 10.47215020240982 10.445618913992337
Zn 9.022775877728497 11.311331419929694 7.980705453192238
Zn 10.508460894341658 8.672340752867697 13.267423056361041
Zn 12.956872969294382 9.194163695317176 8.523017761307305
Zn 6.766416068318038 8.736029817504258 10.592656554091388
