20
Energy = -9.83574475 eV
Zn 11.387397712520569 13.26113273573522 10.211482576372108
Zn 11.512810444444362 11.966724376482867 14.096629573554102
Zn 10.539674066382066 13.878493607103147 12.554724478961031
Zn 9.09630954428907 11.54986986391152 13.043915551841181
Zn 12.955217516418303 11.815412227736626 8.713407012888176
Zn 12.750030624958654 10.846693448775563 11.113100607611976
Zn 11.177210832571076 9.674218542490378 12.80946935104277
Zn 7.570753040911416 10.60699765256513 11.140117460770245
Zn 10.1565196976843 10.987114884129493 10.614377677328976
Zn 10.494420385435319 12.200022285186606 7.980911385381789
Zn 8.624560587330258 8.975639088278061 12.972116078881708
Zn 10.38998420026208 7.236939972244735 12.244095877008991
Zn 11.344288372283069 8.620281603232595 10.171660545747049
Zn 8.654478902734356 10.503802298079131 8.657678518593631
Zn 11.440864421709959 9.750968605405626 7.7798527742537065
Zn 8.745400382344458 8.141647969691142 10.445044598489952
Zn 13.668713813282132 9.345831098831782 9.10965980030394
Zn 7.197724089366452 9.677507169866319 6.713818262955332
Zn 9.564605389358034 8.482641363452192 6.53533960872359
Zn 7.817221591844161 7.550187895933241 8.161228941817434
