29
Energy = -18.10866719 eV
Zn 13.036063357021272 12.793051245379795 12.927386126579613
Zn 12.548026881852122 14.340393022937686 11.018315916127763
Zn 11.195387133782967 11.755948871291304 14.30597285724391
Zn 13.629272440082525 11.733533281596566 10.639166775269203
Zn 10.578345333894909 13.734896884692397 12.606528484319776
Zn 12.196719863674826 13.122799329837264 8.835805801551567
Zn 12.49168953060908 10.24988190213806 12.580703027957648
Zn 10.172858755863317 14.208765728836605 9.895998697449786
Zn 10.019005241266477 9.743423160237848 13.211559039746307
Zn 10.835938774832705 11.600366676288777 10.966375980488198
Zn 13.279471357773836 9.08704529725217 10.407072033762313
Zn 8.795619421681897 11.999328585199981 13.5163098354713
Zn 12.846899668414245 10.695600173307918 8.399227569913027
Zn 11.470374904475296 7.8826622868826846 12.068287832353853
Zn 13.070799707060058 8.15737594204919 7.974699788060539
Zn 6.230388156855902 11.638990858234122 13.779294545258715
Zn 10.624453634794722 9.39669172409413 9.8818574062982
Zn 10.215879241119662 11.436863278965083 8.2944671887099
Zn 12.363662453630894 6.699924672183229 9.900609990047485
Zn 8.233956010570637 13.39159576989198 11.509543187721292
Zn 8.470971386117839 10.533411302448968 11.118166139128503
Zn 9.920752522918368 6.385476768157136 10.455150470772296
Zn 8.198359269223149 12.817544309045248 9.103146476691393
Zn 11.198402707499618 9.456281493124592 6.855645908780474
Zn 8.725448426525242 8.000310076536598 11.963430380910205
Zn 10.521359419221572 7.271380835472192 8.12422854576119
Zn 8.170878624017307 8.083543883930348 9.482852887462647
Zn 7.63216790954706 10.427263826799326 8.649722565338793
Zn 8.768422137266015 8.896116287642043 7.056549299973983
