20
Energy = -11.5468329 eV
Zn 10.602614551787406 10.142997877491295 7.534836322297148
Zn 12.809431985460803 9.351214841019686 8.580731897670457
Zn 12.391653829905863 11.850282039403705 8.565669496656856
Zn 8.301450478491514 11.19505739968191 6.9865827726214835
Zn 9.926753365615843 12.562737729671207 8.527151452592047
Zn 8.582922958799466 6.7022315499549485 9.746043634513867
Zn 8.37512262664674 8.889642463353443 8.280569289636638
Zn 7.799640476365655 11.182010159839917 9.520178573042266
Zn 10.740640936367063 7.869722822272584 8.930715974103872
Zn 13.584573966928158 10.66010816504439 10.652616172824505
Zn 7.935166609589772 8.93618962117265 10.90543127799804
Zn 10.188675541140606 10.186308871871963 10.180479941078659
Zn 12.604569721824621 8.177704225987005 10.82243419003825
Zn 11.532186731765291 12.269569098317898 10.970784410596247
Zn 10.210117831321904 7.651980460454786 11.577512042170332
Zn 7.798950726811064 11.231513548486893 12.100250890862315
Zn 11.634346075518641 10.050976261679338 12.325844108327782
Zn 9.077623767898498 13.056867679881757 10.897365238503971
Zn 9.25841688236377 9.447452908436567 13.156313035872293
Zn 10.039263224807485 11.979554565388352 13.132611568003673
