23
Energy = -12.55944117 eV
Zn 12.192436085185992 9.681528321199506 10.602785823359236
Zn 13.171192287821963 6.767241044116145 12.94765512755157
Zn 11.803989594931053 11.125928462642564 8.38987559806802
Zn 12.305920256083672 9.132265236010284 13.373731007605837
Zn 12.085485628953235 11.835844878413162 11.920442385992985
Zn 12.032182860743672 8.275853553783728 8.300917288848858
Zn 10.24029361464057 13.553206391280437 7.448363256021877
Zn 11.120272106516682 13.07596334134242 9.856344798112296
Zn 12.037986961472807 7.052813558707001 10.562737520041443
Zn 10.978073969723985 9.60158713673545 6.465995031579939
Zn 10.510639771346343 7.1840387475332514 12.782396133525655
Zn 10.096546240197792 10.245153546304204 12.518230635064562
Zn 9.607174199105604 11.715176293441475 5.924027072808002
Zn 9.766913738992974 12.951111471298178 12.062371958769816
Zn 9.749431241135397 10.241591572629595 9.863464699288475
Zn 8.624711932299892 12.448662831558183 9.133951172658456
Zn 7.868782139663788 11.31787718992173 11.471305369068734
Zn 9.761799547764141 7.555011471476066 9.267438139069238
Zn 8.518005717215885 8.481820650253022 11.464024937233939
Zn 6.5709899354152626 10.989529013580196 8.898810266313701
Zn 8.655352955570025 9.847134959883244 7.558337282489698
Zn 7.298696284898456 8.306577470599374 9.094440597980546
Zn 6.120334150161594 9.518382407054773 11.011228954996364
