24
Energy = -14.03154739 eV
Zn 14.211189706546488 11.441315784828952 11.69747736412686
Zn 11.717582046548905 8.428853352832991 10.394708600030556
Zn 11.55182882147014 11.610364197130435 8.987758711975392
Zn 12.917357347387407 13.339639283350238 10.388024274208865
Zn 10.488508067781396 10.055585557690566 7.093272955788391
Zn 14.252530062916765 9.136477154530636 10.401805495154575
Zn 9.00582942988844 11.785052545941154 8.384071295034891
Zn 10.454706045326233 10.05789551672663 13.71416037446266
Zn 7.853225388748297 13.00923580576014 10.389078657062916
Zn 6.563333740521601 11.070804169559668 11.657619817803916
Zn 6.574426185128788 11.070640929793619 9.125004632317166
Zn 12.792978680986447 9.47336797731263 12.57360415743818
Zn 12.81999385391717 9.470222617229057 8.214272840103915
Zn 9.771402389340254 10.28976508803971 10.399319007526216
Zn 10.513346571036262 7.7446071558337835 8.106185178395565
Zn 14.23795713110992 11.434810692542339 9.119798357908286
Zn 8.982674143686474 11.779774018662007 12.412494657310399
Zn 9.193200063105348 7.747306078327842 10.3943071416946
Zn 11.533928441362592 11.649463180481526 11.85167722361399
Zn 8.224172136910104 9.267848735122937 8.23132174148104
Zn 8.218509838112087 9.255879060969589 12.522724745572
Zn 6.762411689606568 8.757792810144073 10.385901683003077
Zn 10.28702291161507 13.812034342525674 10.31788034385805
Zn 10.514709306947411 7.754087944664111 12.680354744128806
