28
Energy = -17.42122788 eV
Zn 12.992873131705396 10.41080184339158 7.474001869800846
Zn 10.803860547122182 10.652242041244326 6.141621452969085
Zn 8.916700996665812 9.65171593394981 7.817324993235114
Zn 9.193136738451084 12.371744621952823 7.056438209010868
Zn 11.081866212212194 8.339888065762407 7.300806002204427
Zn 7.238759367694501 11.505988019805628 8.542623064068387
Zn 13.650361004361722 12.061969246194225 9.348976298993591
Zn 6.772730725911952 8.59094249798899 8.968494567627806
Zn 13.535590624373278 7.939798160235821 7.937581910265213
Zn 11.512451799322232 12.698007192019524 8.011676732880996
Zn 9.230650103861619 7.287738250390183 8.961733176988094
Zn 5.397717546742561 10.550361953865593 9.908628663918496
Zn 13.678559844492314 9.510203496177985 9.979481685036793
Zn 11.0594577216153 10.23504863021569 9.372409263993875
Zn 11.713449579144404 7.454250882310279 9.725230363031148
Zn 9.40887702162827 12.281342346818969 9.762349842745692
Zn 13.066048353550217 11.312016763658342 11.770338580795773
Zn 8.984390430785709 9.666275947044726 10.625069509346726
Zn 6.550886311466416 9.291870245200645 11.796429740364172
Zn 11.651337980886174 13.059146475335478 10.603321613447664
Zn 7.4874377035135495 7.037537526983404 10.86771606820621
Zn 7.311433832205198 11.828149453185832 11.32680995565194
Zn 9.9656428780581 7.163570962093409 11.643682166024693
Zn 11.642039519466955 9.184590846680143 11.705969849039288
Zn 10.330926242154327 11.553196178088996 12.27077172134847
Zn 8.081950706417974 10.703711379660323 13.435667958485727
Zn 8.018841577740917 7.824744245767948 13.28097270385268
Zn 10.078330523144603 9.189455818671075 13.72018106136086
