26
Energy = -14.78063691 eV
Zn 12.579233108480368 11.353642571234602 6.709062387524316
Zn 15.173202422794668 9.824278450613127 11.00432254792648
Zn 13.9750547575701 10.782465905016506 8.817699220521845
Zn 13.021578936300958 11.67802213502707 11.1759448510748
Zn 11.886246647796584 12.581320546327156 8.98918927897589
Zn 11.10877517199307 13.352607114238626 11.358418018894314
Zn 10.036986836687376 12.068150664997118 7.029898138792384
Zn 13.5883517839569 9.982680234398613 13.113180911381406
Zn 9.378809154769868 12.605905031849701 9.612751583367604
Zn 11.474684516058213 11.709377883985551 13.462063787185382
Zn 10.892870551440057 10.06982281381182 8.780071945359285
Zn 12.62504299207615 9.039510479544056 10.497876120101436
Zn 8.993034939542888 12.466559621575382 12.382736698486438
Zn 10.486894744130334 10.46857127568375 11.28547410503498
Zn 8.435124428574197 10.114980503677693 6.4117682620329495
Zn 11.090625162916837 7.358335228837265 9.383330210813027
Zn 6.936195232542433 11.003125168318283 12.999932190528105
Zn 9.247920374803272 10.609269255181417 14.440698679123711
Zn 10.904662139156105 7.7584263231455095 11.99269820276706
Zn 7.483160560408234 12.021660252295266 7.951135642362079
Zn 9.122730750848255 8.261076858841928 7.952450524959823
Zn 8.569770119494766 9.038125735979746 12.392632828451196
Zn 6.9714302215689115 12.038659058640201 10.614122828715393
Zn 8.353050734009004 9.963775183479969 9.858410070177749
Zn 11.344593975256672 9.134951192905623 14.091787947763374
Zn 8.807016424281125 7.412811002519873 10.437156736753934
