29
Energy = -15.26822691 eV
Zn 12.518375881510401 10.177225923849656 10.133838274221139
Zn 9.703592412059765 6.967874057046535 10.10869877135596
Zn 11.76814745803028 13.781443659861255 14.146017663024054
Zn 12.139287971489654 6.736409799444768 9.408942393193946
Zn 12.777858820657514 11.24778642445424 14.003988812254708
Zn 12.25101491847968 13.395976535866556 7.301258189403103
Zn 10.805586862977377 11.871587275232928 15.557267730272299
Zn 8.26253624732628 8.926962373207996 8.892260059034022
Zn 8.683766469842071 13.111324119834629 11.174920710351781
Zn 11.164140202222402 11.228425432852019 7.9213144496229555
Zn 11.495437968117178 8.567538460633912 12.016911108542471
Zn 11.18278048945345 12.133071137498913 11.882521830454277
Zn 6.736428177833542 9.961505299218487 10.555392708060022
Zn 14.884966729327603 14.094757260278792 10.436586746044318
Zn 13.996187047522819 9.51587063088913 12.650006183471163
Zn 7.826165169975555 11.048432614656226 12.683303552588807
Zn 9.644340787524401 10.872626776495462 10.111784900763404
Zn 10.19055819526397 10.193256441356377 13.590458957492686
Zn 14.002748253160679 11.924222556196723 11.81161242263075
Zn 10.840789863022149 8.826436334116353 8.494401843146338
Zn 9.283958918132676 12.846011190447959 13.76143602473675
Zn 13.599383890538654 14.46918843938085 12.637612188208156
Zn 14.47639861043709 14.322344332408907 7.948257476463917
Zn 10.20528432125321 13.375608653922692 9.142516680768793
Zn 12.649627546987649 12.769594519068624 9.831388801254619
Zn 13.785048885271687 7.813905320231596 10.86787544939119
Zn 6.111695616030027 12.432901970497404 10.839177817962996
Zn 7.8394513049805985 6.446098806469282 8.186693936918088
Zn 8.926141713451518 8.836266741859868 11.698427919434065
