29
Energy = -17.9670418 eV
Zn 7.389842108723348 10.141072744613261 6.5409304077131285
Zn 8.777053435944842 12.238172325825882 6.248358198464703
Zn 12.309360282401757 9.62051481138332 7.678045756577211
Zn 9.024123099015256 5.877395404148445 8.909389849020343
Zn 9.998268804623642 9.8060606660043 6.463474200546245
Zn 10.88090123855442 12.026850474562575 7.698198013119355
Zn 6.574154131798913 12.1795673730295 7.8210011892457105
Zn 8.425143707440881 8.325445830241666 8.046670510830715
Zn 10.921162062368126 7.4377400831046145 7.833527611948141
Zn 11.101544524201577 13.339272284633754 9.99496368555684
Zn 14.32299148137435 9.75035590619146 9.57455679339435
Zn 6.307030139022947 9.74949925664865 8.880844790031702
Zn 7.412554136791396 7.437939565135463 10.275419122368609
Zn 8.780886936036394 13.278244504953422 8.685022652827433
Zn 10.034858235741485 8.657935916390109 10.198454410753543
Zn 9.021231871258067 10.659050271052742 9.126177505793319
Zn 11.35245568741338 5.696489888303764 9.885748758226256
Zn 11.585457681017465 10.742891311173176 9.881450889577591
Zn 12.68912057598388 7.8092674801697095 9.865658511065089
Zn 6.562375847259428 9.53075467433344 11.393216235554231
Zn 6.981355040853641 11.980112763646778 10.361725250757216
Zn 9.232666409060048 5.83590624536659 11.465007513088052
Zn 8.998941700489464 13.228500821466469 11.378950558547741
Zn 12.832927143234187 9.520855951187373 11.888349302564505
Zn 8.725067327334337 8.118903794426542 12.587797669577876
Zn 11.273401867933433 7.309061553734068 12.09736693463777
Zn 11.113047706395129 11.780392738551727 12.169586637544532
Zn 8.822727200155724 10.625250307068061 11.840095788359855
Zn 10.779416785197922 9.526562220279049 13.440078419934629
