24
Energy = -13.29925771 eV
Zn 12.09453648286423 9.770904100347895 6.485596626439247
Zn 9.720451722641263 10.43910493783967 7.510167404122161
Zn 13.213633262430589 7.941385412609791 7.76963657636748
Zn 11.974117291027962 11.97599929366678 7.7913842029125675
Zn 10.63932724545921 8.05223730337948 8.210400815530278
Zn 9.456968313128657 12.943700080289613 8.295408784582584
Zn 8.205989349299404 8.681856433574511 8.769322510766424
Zn 13.626425676396426 10.229222650733591 8.946517125406675
Zn 11.479778507240827 14.148117930825848 9.20320882105228
Zn 8.24522534461286 11.221512334600838 9.676464602818724
Zn 10.978248773050622 10.413451420491864 9.825001481771919
Zn 13.677122790088138 10.030282443958397 11.616701424856341
Zn 12.449756242391224 8.183996491626496 10.256394137800383
Zn 10.162765892850784 12.79745209921936 11.010623322501631
Zn 9.88856937793301 8.125901346643333 10.791474314729292
Zn 7.37530483787283 9.19085198983175 11.130849262894277
Zn 12.803614210300948 12.248099635930828 10.384180047089295
Zn 9.442287534751708 10.4717898415796 11.97075516220813
Zn 11.886590216153218 11.557715988500217 12.720075459378572
Zn 11.57515197639138 8.97816289498453 12.695069827454141
Zn 9.020499926030457 12.838544188968665 13.688779430274375
Zn 7.4840340075831415 10.622252089651676 13.80437265134554
Zn 10.006329366248057 10.543629334057222 14.698769828470848
Zn 7.960491344062609 11.961049447496919 16.116065870035204
