28
Energy = -17.33256356 eV
Zn 9.17336605918157 11.999703266900434 6.928041765062717
Zn 11.628972061965621 12.286926038290595 7.0224032893572605
Zn 7.600365056546526 12.630364870986085 8.931639867478596
Zn 11.99359472899003 7.462525246971007 8.57759234933821
Zn 9.903954853988369 13.787908262276165 8.711994621926776
Zn 13.340870492462145 11.447310233086487 8.730873745250797
Zn 12.50643168052978 13.834788443199347 8.937396133682665
Zn 10.495019477440973 11.537295422569073 10.03152722443349
Zn 8.651336965286628 10.05612989099803 8.483513697920339
Zn 11.235906279134705 9.852956090324039 8.067796420860521
Zn 8.549906945600407 13.590815499156339 11.108230524785638
Zn 11.746364832121207 10.981624590147552 12.75986041785054
Zn 11.027420740196092 14.807714478978461 10.802714468276426
Zn 10.594021969296053 13.314947802425063 12.73456776822188
Zn 12.802733755758435 9.748898042923118 10.502920212871738
Zn 12.772886412781308 12.728474953727066 11.207114966905893
Zn 12.67763045702552 8.693272639378188 12.931228670740042
Zn 9.17078885905121 11.22700636894607 12.451102870378088
Zn 12.788138356727154 7.131913080434733 10.907317282984563
Zn 7.449276517581369 10.762868563163217 10.610742267999328
Zn 10.24738870744976 9.252887824380537 10.827590946128812
Zn 10.060370670748176 8.97529077708466 13.626469907399205
Zn 9.474051774143849 7.668209063391634 8.125147389339308
Zn 11.108247471544477 6.7303520509641634 12.784674200464034
Zn 7.530863485315846 9.179304394115835 12.564169851707168
Zn 10.203848054310528 6.560582907408502 10.322817826938472
Zn 7.817529723208063 8.067708793464947 10.112853596067794
Zn 8.657167252827103 7.004049138935606 12.347900843113417
