27
Energy = -15.10266264 eV
Zn 13.987209797720137 8.404462517908096 9.683204015718617
Zn 13.704594082232875 10.331727399644677 8.055670717361894
Zn 12.037709130344837 11.364728644624423 6.509617399564386
Zn 11.599579015193408 12.039736219151834 9.026884324215663
Zn 13.218310928753324 10.740909441422213 10.619832665746388
Zn 10.591682477647396 13.476209428238999 7.128735011285035
Zn 11.843010988241424 12.82070415295548 11.36101722619038
Zn 12.930708622846415 8.596764481447666 12.270873974281812
Zn 10.883779651663982 9.414330934275512 8.849362789235759
Zn 10.75034542850018 6.758969729065233 9.643567593218503
Zn 12.939119124255006 6.4481900698478 10.827110716013744
Zn 9.46016047070754 11.488533260723857 5.979130828601559
Zn 12.374118499554399 10.882907092661608 13.05363948456892
Zn 10.956464974679138 6.784172072605393 12.37447530171549
Zn 9.93773273381587 10.706187938428226 10.813509626346868
Zn 8.72892071965145 7.902408673500221 8.656841894855152
Zn 10.268295060282023 12.308424374399626 13.271333998082273
Zn 8.396180798427697 10.439620144208446 8.116646588392568
Zn 8.408311522018833 13.062762632565189 8.36378986707221
Zn 9.332676682942315 13.38413627059723 10.930631668857222
Zn 10.251331079993282 9.43848262652414 13.16102690235712
Zn 8.986719856203509 8.037423683747956 11.259530021502906
Zn 7.030336165226434 9.224752559280498 9.897462714860538
Zn 7.683331590586417 10.054812386131953 12.235033963272452
Zn 7.2903186489412475 11.79252562823837 10.2355034402501
Zn 8.395247083913368 11.103091266001636 14.495295576615039
Zn 7.475002412062905 12.730765285795673 12.673450795980715
