28
Energy = -16.78949495 eV
Zn 12.152999900957573 7.242558603029212 9.610516570660923
Zn 8.890321726228581 5.057304822004231 6.775487286592119
Zn 7.990510788568049 10.944480148266255 10.22810598599118
Zn 6.837201197802276 6.791293347556988 6.693255517298104
Zn 11.680878257072136 7.615730221044754 7.134556494650605
Zn 9.874141105758639 6.577508335752849 10.73063428986276
Zn 4.852938606813215 8.791527415189798 6.647627564241337
Zn 7.033996530990967 7.043158422294829 9.669020883492724
Zn 5.822002885962219 11.14972660141114 6.45059423827097
Zn 7.17081873349044 9.04291157368827 5.3204165611720935
Zn 4.065003398318904 8.945073009954672 9.103358588696448
Zn 9.81052132114237 9.2151240994917 6.086505433300018
Zn 10.351554324216252 9.119680553637243 9.956517833147318
Zn 7.4670590343056285 12.420357876671812 8.15355087359691
Zn 8.343736385142707 8.539875312869384 11.37869442043783
Zn 9.111457049625235 7.539306864977079 8.071325096968547
Zn 9.510212618804369 10.703504994645668 8.172375745562867
Zn 7.201512966586821 9.155255473222656 8.099712803374553
Zn 6.059112948350399 4.705164616054672 9.264115071412846
Zn 4.709532576291242 6.6968698054086815 8.203416037636844
Zn 6.91776202715706 3.6377903104172096 7.220153702298315
Zn 5.473241010607622 11.096786832004778 8.987395024230235
Zn 11.08844813992964 5.602470010851907 5.6671854117166935
Zn 8.601395029687449 4.588478320777009 9.726967429451669
Zn 8.327799727168577 11.31687792290599 5.962907019051232
Zn 6.002419626379272 9.250767861851585 10.68359401910512
Zn 8.874478719077175 7.067964071233059 5.056942090354705
Zn 10.831266440352987 5.329511232469429 8.498073201959418
