27
Energy = -16.43922871 eV
Zn 12.21502983600388 9.848922511872967 6.8322572381372595
Zn 10.983565856990099 8.72934189338256 12.536609866882436
Zn 10.138443088360729 11.359550141928315 7.197418200824489
Zn 8.679134130373699 12.221787089366085 9.263488895651584
Zn 13.91304183290977 10.366182641163858 8.78646928677479
Zn 12.832449817989284 7.98994881677372 8.447254269443095
Zn 12.062410546914467 11.0994950932899 12.30692564446281
Zn 12.869880730835886 12.651355528773871 10.123076879870695
Zn 8.42687246609354 7.564906899058929 9.29533034095336
Zn 7.843229747920178 12.671741333811813 11.74580068649417
Zn 12.600029551326905 12.312171037097645 7.485258033738487
Zn 10.842992678806468 13.57798084976806 8.736635020977275
Zn 9.037475466317742 6.869515362255548 11.766359933325717
Zn 6.878479214810499 8.332337085583081 11.510880628949588
Zn 8.06284554865554 10.070342406997101 8.064807246505838
Zn 11.207679931017065 10.46340827388383 9.634616896811952
Zn 14.373034552462105 10.95111827753065 11.26191667111407
Zn 10.898136805768475 7.576362699276573 10.114793832669037
Zn 6.99981213089687 10.617301020573946 12.900988500084026
Zn 9.615066668616901 11.078176896908921 13.187104365972683
Zn 6.567892949166794 10.898109889182258 10.285902608765772
Zn 10.385429293794276 12.624568420414445 11.168635779900042
Zn 6.152745050828948 8.716553045948888 9.060162915493494
Zn 13.02556422295407 8.805299773103734 10.944067429742027
Zn 10.202030900675554 8.588218925685702 7.726729896473669
Zn 8.61885685753297 8.704982570802365 13.473258237819234
Zn 9.124167252361028 9.866618645948163 10.699547822545652
