21
Energy = -10.49832463 eV
Zn 12.870759883058478 9.134888592843128 11.992981295817838
Zn 13.533866975142942 10.26594737773889 9.902022398737058
Zn 11.467716260463368 7.676249359844093 10.391585266256097
Zn 13.654983553654429 11.102018914948275 7.577240869884776
Zn 10.53906507734081 8.796162018790488 12.777725421307025
Zn 11.351607135129731 11.21803014548209 11.825662276050398
Zn 11.594941704466285 9.28008503260866 8.290245909808108
Zn 8.861475119625359 7.352291627341097 11.085124278197002
Zn 9.335828598241028 7.919133517498804 8.46076316670787
Zn 11.5133770795753 11.366203931575344 6.359558941094922
Zn 8.315496789079459 8.429975909971489 13.770515417285248
Zn 11.289402444878265 11.79542967691009 9.18884724161046
Zn 9.538848511233423 9.639178484401437 6.578309298171991
Zn 9.659952188197977 9.89153044674773 10.24312668638136
Zn 8.573929689425757 10.959325168210034 12.437172077556983
Zn 9.31899979338675 12.184705008076657 7.324515224813335
Zn 8.769694909002869 12.38194714298775 9.79154380266899
Zn 6.966140809400962 8.395372447514843 9.523754940343954
Zn 6.648444237291393 8.917358595798012 12.00361206695772
Zn 7.591129589276321 10.419863716668756 8.078745069252626
Zn 6.729072971794504 10.94554298507343 10.482499021335308
