20
Energy = -11.72880193 eV
Zn 7.859341623386004 10.970599340821785 13.364445217258565
Zn 9.82204450267143 12.554250755722492 12.714274482178668
Zn 13.315732803911613 11.86942436439786 10.397589548140596
Zn 10.251965249939047 9.59672329749509 7.714328080990614
Zn 10.72224354540517 10.747993516074562 10.733492801902559
Zn 12.224753456749943 11.225671205615384 12.820574336705837
Zn 8.77926484360701 11.665076826455294 8.252632055723588
Zn 11.409345041782625 11.887594065259046 8.400210758976083
Zn 9.90181065063858 13.228430113443991 10.139241689404939
Zn 12.286673075801476 14.072114865051809 9.457896576615703
Zn 11.459342571756864 8.642955655852798 12.462039872183102
Zn 8.128570582761837 11.452289584592753 10.832240780512587
Zn 10.428990789263478 8.20056715950853 9.931264354240355
Zn 8.893779089579546 9.110672705267103 11.822899703934388
Zn 12.820966876194776 7.501384420829615 10.563202717928947
Zn 10.163664504255502 10.176956177922156 14.052410109808129
Zn 12.540796481644119 9.663552058722228 9.100747561772458
Zn 13.836956830298819 9.613498603050871 11.533280268519219
Zn 8.16651384747291 9.35933216448712 9.235652450403443
Zn 11.993542963362179 13.673928787756497 11.943747514503059
