23
Energy = -13.03576282 eV
Zn 11.008147769544191 10.871615753929602 6.687928657308634
Zn 9.609483081662805 8.896242741930356 7.468668358811763
Zn 12.146139439413465 9.448176105926867 8.504475714402483
Zn 10.32482688982003 13.3418708882531 7.110540408694664
Zn 8.505959941475878 7.415416345332517 9.349301026709211
Zn 11.767401353739473 12.013341469731602 9.028527715907364
Zn 10.962302752451123 14.538215645447819 9.26856371959236
Zn 8.826704946150066 11.250097008333247 8.289848030224526
Zn 11.142021202083324 6.995275899949284 8.34522304969476
Zn 7.005257413292703 9.385132002324085 8.541065330403008
Zn 11.191903916543037 14.187101521085937 11.734495515312595
Zn 7.107211968547092 11.294980551316346 10.337806715503547
Zn 6.758245995021411 8.911507889051737 11.039160095974246
Zn 9.98204957756564 9.620206346712127 10.112352363395114
Zn 8.99479664268935 7.937535573651741 11.87784568896135
Zn 10.32722181767407 6.039667136323943 10.552691340043255
Zn 12.189709378400966 7.9897244980934055 10.677762348039806
Zn 12.353540872942206 10.568679925893731 11.027061726996411
Zn 9.584505011219587 12.177873984925885 10.58383820484473
Zn 8.601297928298383 10.513978990656899 12.373124099007274
Zn 10.961447473425416 9.404722584842872 12.972371589975358
Zn 11.169668479534426 6.860606413933576 12.828545559043857
Zn 11.040405355612078 11.898279929461017 12.849051948261215
