28
Energy = -16.97005382 eV
Zn 8.574729853263252 11.195750451973092 7.045323727936054
Zn 7.2621368212071395 11.439683055450269 9.250683883625399
Zn 9.597394794571649 13.257236528838039 9.387318890603447
Zn 9.241466602536214 8.520462533945068 6.763459214940934
Zn 8.005301594896531 13.051281359651172 11.298346859266163
Zn 10.79158929559116 12.664072407021642 7.277812500216795
Zn 10.823347437363964 10.396289072005336 6.035399020450404
Zn 12.097477219617712 12.297288988620888 9.705022481028115
Zn 10.450121221135845 9.923657762332885 8.844807330846503
Zn 6.540630123702422 11.04070854022919 11.725091440001771
Zn 10.55557170088172 12.486169488915841 11.845653688598915
Zn 6.916545662586694 9.318567270689702 7.745610509397926
Zn 8.620316720904427 11.536865796465248 13.309933576364742
Zn 9.332631067845428 9.962046912259673 10.965473788259088
Zn 12.385893342875972 8.609928408111676 7.234528603801684
Zn 13.161834588687393 9.821924315419402 9.680399566161581
Zn 6.744852830979588 8.951828303782705 10.32851206567695
Zn 8.411497519387366 7.5151470321903595 8.9885487236702
Zn 12.759331801466297 11.134586645001251 11.932426715437641
Zn 10.67580860274759 6.781762216069529 7.9755030353347305
Zn 8.029010784007687 7.022731305658489 11.491547831704136
Zn 7.745759537119878 9.07674835776854 13.034442213084851
Zn 12.881148759275487 11.162937511580875 7.520982988184802
Zn 10.75595695328812 10.130942068814756 13.333174369040423
Zn 12.648560957260553 7.321998045810249 9.478822438503382
Zn 12.010586273492507 8.600059725235372 11.648779749482365
Zn 10.431635936933606 6.50796099468781 10.603580132012175
Zn 10.007717723151256 7.656864101423029 12.987632444187426
