21
Energy = -10.73236504 eV
Zn 12.44456284572704 12.862713357559416 8.042688971726738
Zn 13.042144451599226 9.60464301627254 10.79555132500407
Zn 14.348359593168563 10.967063785823957 8.84108938860137
Zn 12.410149119372242 9.11003266719273 13.266076580773023
Zn 9.06098842887239 11.907725442390918 11.478298550365926
Zn 6.774998939874271 10.944749746648158 12.911117957100528
Zn 8.307080744290271 11.180164030354314 14.978230606559762
Zn 7.808248229219217 9.726698101424994 10.716522359646433
Zn 11.058922456900376 11.38677491326964 10.083328171239815
Zn 8.482363769282838 9.358529314812483 8.208544786912775
Zn 9.10108047177834 7.530304867007811 9.96303290258455
Zn 10.201175481841025 11.326178236647337 7.635937109164119
Zn 11.053903346737798 8.998681439023313 8.888434396783468
Zn 8.083097019762864 11.820444423993035 9.06916943854154
Zn 13.276775745840567 12.537069676141856 10.542663582490224
Zn 12.53369567462618 10.41113422694671 7.010921902530101
Zn 10.509040514590216 10.830032060440185 13.72787899919834
Zn 12.738719050098565 11.69384056381521 12.886925468677216
Zn 10.297896468607588 9.244349952179515 11.532315955460632
Zn 8.043623020025676 13.38323053015076 13.507100454270558
Zn 13.61826429462579 8.495915282749747 8.511984028542393
