25
Energy = -14.71290729 eV
Zn 11.17490851907236 9.881175428052297 7.1623460772015255
Zn 9.39746852829238 11.502381485577722 7.8200033263184014
Zn 8.941296923423739 9.064353271075168 8.69719635266175
Zn 13.111053755213646 9.928983301141427 8.762437345926818
Zn 11.584382615666518 12.129663214833352 9.407261774053012
Zn 9.126724695114545 13.355557168799663 9.51400226020134
Zn 11.288142045900798 7.890363959997844 8.936384894360632
Zn 14.240886974984702 12.044764083887355 9.798171847072027
Zn 9.311938267817961 10.724873183867802 10.61272733041817
Zn 12.853763043801795 13.854354803426151 10.984267131551672
Zn 14.34940262193488 9.888677855120712 11.13539104375762
Zn 9.532418010764758 7.876731436570836 10.9390611305237
Zn 10.415095436501703 14.611303716261173 11.237999021019341
Zn 11.427792742409903 11.806261630819304 12.005938104507164
Zn 8.673570194961448 12.837578517385428 11.995988473541756
Zn 11.785677084616779 9.40041456444196 11.024902974734246
Zn 9.03832259782925 10.667092151854 13.246824935630874
Zn 12.821335943909142 12.358022822489879 14.773627317650972
Zn 13.890474429699816 14.360427974350916 13.433935085304855
Zn 14.174835254438396 12.034199689991961 12.496445062369348
Zn 11.502346588809491 15.071513277725913 13.505861426401786
Zn 12.86774875704488 9.891052268384724 13.316935095044546
Zn 10.528078252993323 8.638751237667995 13.301176981948366
Zn 10.268859129538143 12.939611506614733 14.164214570296554
Zn 11.028486663793569 10.576900528195818 15.06190951603721
