22
Energy = -12.3470337 eV
Zn 8.665546172017203 6.69388008978606 11.430575302480836
Zn 9.668104937021083 8.734224643247618 12.612750636468267
Zn 7.456265116388112 9.059962467749392 11.275840448796439
Zn 11.180032323052524 10.733231981927345 13.14198115504876
Zn 10.656686410133592 7.136030837710022 9.921007234791846
Zn 8.825190289089994 11.266304416301963 12.23780924926559
Zn 8.240360943143697 7.661513184161873 8.994626981874799
Zn 11.684140521919227 9.268219218046898 11.044819937021646
Zn 12.707740293830302 8.265471767274471 8.87524897829317
Zn 9.54668461653207 9.941567856359455 9.806790065076262
Zn 13.482449097543022 11.314361549074748 12.106398380717847
Zn 6.286291915947723 9.480053025998627 8.908367907891423
Zn 14.093346344916597 10.249296962936848 9.94695182895921
Zn 10.927769581153317 12.836732998681214 11.782243450127845
Zn 6.95510388224221 11.392896928565444 10.434876828575984
Zn 7.60222101756415 11.929141543209203 7.911750039273086
Zn 12.476654935690604 10.346915866687185 7.500380813413614
Zn 10.493391379020185 8.522245979277704 7.591630617903507
Zn 8.089985282591378 9.425965319046584 7.149947480884689
Zn 11.529734256653287 11.615280066980924 9.56235542810084
Zn 9.144374777706574 12.634127673598888 9.944528432929808
Zn 10.044211703438341 11.129543079189617 7.4119443300152135
