28
Energy = -16.66335048 eV
Zn 12.26609178895678 9.634559976583292 6.241113839319669
Zn 9.562590589288922 12.934240252187942 8.394663139455531
Zn 11.805556449389094 14.078312032448169 8.679308618141702
Zn 10.201749445454944 10.501098631882543 8.10166051672106
Zn 13.301855002776154 11.04359593870581 8.149677059758318
Zn 10.604256210945051 7.77335800956746 7.1196545708742995
Zn 12.098367689851184 8.784530186997006 8.947547642895438
Zn 7.8576770557538325 12.312684041990755 10.169401740878868
Zn 12.239464586063153 14.599372538970574 11.17511530367026
Zn 9.698182377170443 13.94469770092012 10.859589457556925
Zn 7.762728736846768 10.202916648376712 8.767962734835118
Zn 8.374421594681802 7.801561287946363 8.243864427040844
Zn 13.67719231282909 12.817223625722304 9.930823595082515
Zn 11.171388496293607 11.636699884080038 10.395107269433701
Zn 13.447129708997995 10.188191605456794 10.678857831664564
Zn 9.844654483382461 9.57232512319687 10.658233443942006
Zn 10.298635191028126 6.924711504183688 9.91680929637931
Zn 12.271465105299802 7.863300729790228 11.328928985394533
Zn 12.95203106305752 12.224961223454931 12.4547089030023
Zn 9.245333886427535 11.644120460342158 12.393877953277464
Zn 7.87816482435547 7.638691662068455 10.786028388987624
Zn 7.290542187993719 10.159895544869906 11.395352424669737
Zn 10.783724498511079 13.788338795380984 13.17554909132138
Zn 11.779996084645978 9.925638729908236 12.6824484165627
Zn 10.059893243744712 7.4976352104648765 12.572399436397088
Zn 11.230757794210007 11.695622956199694 14.47598245727704
Zn 9.790936490535076 9.554665312243863 14.274394572989
Zn 7.7539612786990375 8.478168634695036 13.285780915556131
