23
Energy = -12.42215008 eV
Zn 10.296401653983326 9.105119597505004 13.378349647727093
Zn 8.664122004666115 10.096588265790059 11.379488213638135
Zn 8.776258184927858 13.16035255160783 11.528348980951321
Zn 9.05383774127125 7.201264299577979 9.031627603092348
Zn 10.058721846553462 8.545064028537377 6.948571380909286
Zn 10.997031035663515 11.48775683117774 10.468718555855892
Zn 13.350141776800909 11.366126397783747 11.9020981002823
Zn 12.336838086621354 10.639640358692949 14.080774794658794
Zn 9.04579838748545 10.554922573955237 8.449482643891177
Zn 13.949827698197591 11.785357360212325 7.956082163857943
Zn 12.358378949804946 9.733834465726588 7.222416399399825
Zn 10.995065100167263 8.93648364917175 9.451374455703453
Zn 9.37376994072796 13.234293899102818 9.045849270337012
Zn 6.097841883545072 7.235481455639047 8.90613627701563
Zn 9.929312249715402 7.432779515099007 11.521506394099527
Zn 6.818829164710004 9.715253108015316 9.543824418563846
Zn 12.234892772727251 8.820690581282475 11.738746172096013
Zn 11.258889627325043 12.003608926164112 7.864575181184512
Zn 7.583950315130796 8.43320360305113 7.163109339203846
Zn 10.128912834498093 11.614489021300697 12.945663705474834
Zn 7.4129527346510296 7.638480667306538 11.029308313034576
Zn 13.344042216118202 10.077315930793956 9.753231230838756
Zn 7.156226259642683 12.207524587123793 9.886241998118788
