32
Energy = -19.34418075 eV
Zn 9.7727220590173 10.875370640207574 13.573812336342419
Zn 13.06379391361311 8.156372510143278 10.782961403380485
Zn 14.574016964999668 12.687769994851214 12.034462137107418
Zn 11.945263783901845 13.301433262932063 7.861628384061834
Zn 12.453832901670204 10.997101363127953 10.052486240210769
Zn 13.692031957943936 13.670284099010846 9.679330375957283
Zn 10.009228002696636 11.7407972579059 8.662531776036205
Zn 8.798245528224452 7.942191816286428 9.154977842941893
Zn 11.85241838506953 10.620699174974328 7.01323829272139
Zn 8.457577160428896 12.947499497520164 10.50723880352731
Zn 9.782640874559027 13.310732525573812 12.696949816101684
Zn 7.324705106079951 10.971817349683803 11.753264977837555
Zn 11.074317699613728 13.334240485573622 10.399198254764984
Zn 8.2822221042234 12.789690910885101 15.014699821488003
Zn 7.096090530084319 13.55507024819867 12.738871724777594
Zn 11.891632281195452 9.214234521681567 12.963350387175403
Zn 10.517053141678268 7.610449742324818 11.235264763405954
Zn 10.194213957480104 10.385813573956 10.992246164464238
Zn 11.40916019140282 8.712724331335778 8.946520217397342
Zn 9.61134051203958 8.197544792560697 13.521416441852592
Zn 8.101498794178422 8.571258944020371 11.491666599431168
Zn 12.814811149373142 14.418745403211675 11.980885450595423
Zn 15.384727667268095 8.807322917472497 10.012237155309213
Zn 9.478803294820194 9.54968711959554 7.406602332570343
Zn 14.164004249884922 10.14880898924538 12.094523919589967
Zn 7.860987056751754 10.407099378432054 9.332232722480535
Zn 12.058286862590963 11.838388138633524 12.576543329666274
Zn 15.23611901927678 11.371739651763317 9.953654077365014
Zn 13.893123181474161 9.328228890064064 8.085013149129738
Zn 7.5482213337574855 9.569907184190695 14.047284819135772
Zn 14.030956892511808 11.84627761723781 7.765825472429589
Zn 6.164558480444234 11.659302705653124 14.207685848999823
