39
Energy = -25.61588289 eV
Zn 11.669414375733918 9.307296946510311 6.506023274546078
Zn 9.672749191698324 10.88389663073433 6.3766791830679646
Zn 11.908990174459813 11.795038867184294 7.266179913935489
Zn 9.466219520658088 8.557296460295275 7.572499672804953
Zn 14.259560312213264 12.386685875885389 8.150440625564963
Zn 7.177582854849589 8.196134443417966 8.834859496546398
Zn 7.9200529767819905 10.644774678634136 8.208739421363275
Zn 13.529860034695663 9.88889013136502 8.17163521072744
Zn 9.681580274953674 12.739817132132144 8.35369906818947
Zn 12.009088138436136 13.776858599319537 8.936582157040041
Zn 11.902552189574974 7.885864541768265 8.688500498862366
Zn 10.690887186567638 10.299180834607577 9.274987961681683
Zn 9.655193540578061 6.87320118542659 9.468104692333984
Zn 14.375788924395312 14.294067633220102 9.748450994120757
Zn 5.71657620694094 12.55934254801877 9.231882278565967
Zn 15.305066323296044 10.811063841962977 9.866572173723704
Zn 12.563517437447079 11.533479658990196 10.434050673371708
Zn 5.8728043039690006 10.152132792061854 9.903616721537436
Zn 7.352872929000266 6.143591317501768 10.31980595447071
Zn 8.162369784992737 12.145610444066183 10.378713478049507
Zn 15.008561399963183 12.712592569422608 11.635230924191658
Zn 8.733798464050523 9.42059792923544 10.695741726490859
Zn 6.1433764692379755 8.177364419842007 11.418370422960948
Zn 14.896196749660836 10.252504661849844 12.2936808370873
Zn 10.305709903022997 13.5016835992777 10.86627952297408
Zn 13.529130999681524 8.860430508283935 10.559641735258994
Zn 10.538741753030843 10.838278269253937 11.790322270990659
Zn 11.274140788742372 8.011866478453895 11.283725096752445
Zn 8.97074314416276 6.957575178357318 12.036314313920345
Zn 12.72034541549121 14.100147069096113 11.660996892901393
Zn 6.883035771090332 10.681310734880027 12.25318839095614
Zn 13.001918733422624 11.920276709301564 13.124438050455893
Zn 12.686648679602518 9.310974809286611 13.13942282045397
Zn 8.602640247878922 12.783647601806205 12.878600040804029
Zn 10.203919908114917 8.63148372855649 13.640606368412667
Zn 7.525304410103145 8.398345537688165 13.501099253356077
Zn 10.929763295033066 13.466644381026665 13.50580811661898
Zn 11.059561484276186 11.011687329961253 14.421818734971218
Zn 8.616307939963688 10.610936159090352 14.125263267710258
