32
Energy = -21.00230154 eV
Zn 11.142842164606291 11.975367745720984 14.990534097643756
Zn 14.016610561164137 10.188370469777695 9.468933494684784
Zn 11.278492777950175 12.2163153805023 6.6787160186598005
Zn 12.788629915016301 11.909010594981 11.390343426948036
Zn 9.39772034358336 10.400001984498834 7.397572485581705
Zn 11.931992732568016 6.4665306759762 10.159769979374937
Zn 8.031843798483692 8.815205420022876 12.378628695530502
Zn 8.945100559461805 12.738583889998395 13.991182355955612
Zn 7.729281622678324 11.854801814266407 8.957417449077155
Zn 12.569715424406956 7.771480683951234 12.358509873128089
Zn 10.498199443345566 11.654807377700816 9.635870226872434
Zn 11.092769529902291 13.40438559846458 12.731475795137994
Zn 12.010201335509388 10.123613938773598 7.7981714439806185
Zn 8.456825602890623 12.886827070946039 11.513239676087753
Zn 10.376466440187421 8.09809981770731 8.442158727202779
Zn 9.247983847481173 14.07584707905512 9.483955049825328
Zn 14.348593206990218 9.781883943818508 11.999814548739494
Zn 10.41176335502533 8.453056373555587 13.31778461138433
Zn 14.289817791390746 7.707300388880318 10.519070248895614
Zn 9.705511369600178 7.277628642583414 11.07134378264999
Zn 11.747628426804242 14.155915655186554 10.427230118875135
Zn 8.966741645974176 13.04302949915535 7.122520071352475
Zn 11.58875028481031 9.520662877742756 10.546408413175435
Zn 11.23398069638053 14.37606994165864 7.940596977325195
Zn 8.781248021570812 9.482038855850012 9.889859424901804
Zn 12.949376759842659 12.465856281731616 8.728861186667437
Zn 10.056605850803829 10.86202769714657 11.981767850000146
Zn 6.813527531249575 10.735496430688515 10.994721134189431
Zn 7.069208031076567 11.021768663960517 13.453299698146662
Zn 12.330218720839575 10.314357783371007 13.513226564643592
Zn 12.973056137803367 7.893205743597513 8.382635635466203
Zn 9.192663821875879 10.213997864389773 14.600504812003225
