38
Energy = -24.94194149 eV
Zn 14.594156971718728 12.286494004057042 13.363879308397609
Zn 12.12926823397308 12.009759129321093 14.386259620429987
Zn 13.834584950798865 10.193406544017646 14.666952681401124
Zn 12.991941075360018 14.503071342606928 13.568848545668425
Zn 10.594957680430444 13.898012646277216 13.325263767601207
Zn 14.313198263579801 14.072741316449811 11.426465026344735
Zn 8.16214272994332 13.500549958318814 12.995309501524353
Zn 11.626090579929514 9.90499935623231 12.718745445021177
Zn 9.589308962315283 11.479572542545773 13.870365361692139
Zn 9.740223709870682 14.06659241942041 10.839134831287799
Zn 14.065434503577464 10.63776359345942 11.418340182568427
Zn 11.909034092369424 12.447480408647374 11.460473165854317
Zn 14.264436844127363 8.313034396593668 13.090360923997887
Zn 11.272294463642485 13.202853134854154 8.833397465851188
Zn 7.249522221032281 11.17538998466905 12.479522215633375
Zn 9.12657200057529 9.130855758455292 12.954386861573678
Zn 13.66642213428355 12.494729082504376 9.500965552161485
Zn 9.568129158267524 11.36793204408101 11.166212548829549
Zn 7.190743036852764 13.45527798829984 10.719804391602064
Zn 13.656537419720502 8.119405906210849 10.729411057159059
Zn 11.455139244756703 10.446236433189316 9.689059111945118
Zn 6.990740395090418 8.984662531404604 11.283876442461969
Zn 13.043282451641206 11.958315941079809 7.155624352205058
Zn 8.767618756659546 12.456686256388164 8.77070275619527
Zn 6.769692229843888 11.183940004718956 9.790484571046111
Zn 13.934177579215177 9.942147416661207 8.88035437761877
Zn 11.089384028654525 7.947512366028884 11.169324609777615
Zn 9.145238321031666 9.392936357667603 9.732990057297267
Zn 10.463769262428244 11.352794215986805 7.136819799680878
Zn 12.499871322289978 9.60458199080602 6.750220464861885
Zn 8.72978165167996 7.017720952515384 11.672779228899767
Zn 12.176602798616917 7.849874322223073 8.70773186372035
Zn 6.147951248716322 8.963519210085947 8.735656027667165
Zn 7.973516202848372 10.392349193959928 7.388626449091817
Zn 10.213518103424551 8.77087420728437 7.351785007705364
Zn 9.782130271692271 6.7602767413250415 9.106909378090139
Zn 7.251788176663956 6.822471467987712 9.682183826147229
Zn 7.918825892640782 7.791205803929276 7.378800191252877
