37
Energy = -24.52713546 eV
Zn 11.722267461241193 8.19138336107995 8.570277737865684
Zn 12.021000551854254 6.3708142610362835 10.30050924299114
Zn 11.299436889218123 10.108757568659048 7.021260667777088
Zn 13.614907583406374 8.330209884318517 10.571312106332229
Zn 10.209950024336946 12.07344048682905 5.986865852158465
Zn 7.870549759186911 11.384843744015985 6.648512818490082
Zn 13.035972525970141 10.503129694951468 9.044692817824766
Zn 12.206291152088351 12.667633798655286 7.570510503066753
Zn 9.629777262701381 13.48387285154079 7.98868721350084
Zn 12.081190129190727 7.477097803145122 12.782169458742196
Zn 14.833155461582459 10.527699995346124 11.034230769077036
Zn 13.956929397044874 12.896529910977193 9.369636716683027
Zn 10.42774874812337 11.3402961908905 9.38804515596697
Zn 9.04104124996496 9.510570765643074 8.20614306900541
Zn 15.37681125770695 12.888191552191406 11.630316261301394
Zn 12.41390823426872 11.634016647879683 11.625242752292321
Zn 13.24132123925742 14.219409780596 11.479108029431016
Zn 9.544050477371803 7.572052864454428 9.958367927881833
Zn 11.114990650162332 9.433768474669668 11.05050865309732
Zn 7.128020998639402 11.602401350278665 8.984154113954517
Zn 15.016007670235016 11.488082582669318 13.784612870885466
Zn 10.21293670842163 5.935492490048009 11.968081989234097
Zn 8.454247834320674 13.592123944483255 10.208256616542236
Zn 13.426786521352634 9.58589044672392 13.021323662007186
Zn 11.118005798849438 13.728100576257578 10.202433199144078
Zn 8.231994607223776 9.746407996691257 10.715265299573073
Zn 13.718895933851154 13.6148602142608 13.917482663476434
Zn 9.851846429161185 11.615361947733735 11.84516131656679
Zn 9.191986623278103 8.073028979043883 12.649150792652327
Zn 12.451764170948268 11.632458087146098 14.741629245460947
Zn 10.856917546970559 9.847175616394436 13.715798347831624
Zn 7.064032142603455 11.931594358230987 11.609397788248344
Zn 8.676391351565012 13.880046332335452 12.756530474823162
Zn 8.057647345140152 10.092366541482832 13.495610695730626
Zn 11.22586234327843 13.7993372660934 12.996666647395516
Zn 9.853993298926161 12.177745834167764 14.566194542004133
Zn 7.26763965504387 12.34131809117254 14.197539485585423
