33
Energy = -20.93360354 eV
Zn 11.912857473187707 11.596684796076627 8.201110989569433
Zn 7.21701296579793 12.673183280905127 13.767122850265848
Zn 7.2100210181846975 10.226559651700171 12.812930034007275
Zn 9.851559619136212 6.701515536907976 10.199149573074164
Zn 7.880289245290886 11.196842099181758 6.043107527341472
Zn 12.344205609499268 6.74967911955804 10.898628870060001
Zn 7.2416286057156976 12.158288652570407 11.062828777244807
Zn 9.280774121259013 10.462246883168136 9.044915322691116
Zn 11.032855880731617 13.090934227509889 10.047751214990186
Zn 7.132560344554049 11.80989681924643 8.435855750834042
Zn 11.203476671832075 9.26946399395973 10.013365511517701
Zn 11.666527112974437 6.895236121723895 8.442611582177234
Zn 9.762799751780632 11.923168131044452 14.124895171302358
Zn 13.23750948402871 9.056800894793442 11.705490762284512
Zn 11.683794513252463 13.04326459962794 12.833855934246662
Zn 8.58209287632559 13.698691020149928 9.530216031203727
Zn 9.759293925830368 10.876317927781558 11.41735438727787
Zn 14.649814329803664 7.7183818618753595 10.115334650195289
Zn 9.587551181844065 8.361362196220478 7.501324685085155
Zn 12.924463265569551 11.663663198276831 11.079839538390871
Zn 14.197205470346509 7.494765291386488 7.669186641668475
Zn 9.36027294863247 9.429087114867981 13.861239488654642
Zn 9.28381909064618 13.48285815943807 12.054732875912041
Zn 7.7311709123928045 7.612087937639789 9.146363137200645
Zn 12.08983751337929 9.14549473275045 7.338256596403369
Zn 10.834828229756308 7.74960434842555 12.636632961926596
Zn 6.6407105640787965 9.751573019925537 10.12830766539818
Zn 10.288814496918878 10.526590065691186 6.2054956008745155
Zn 13.719460732765363 10.030275034144694 9.201166056670928
Zn 11.705420643588157 10.343643304717801 13.18978774788011
Zn 6.997106467110623 9.323172576972567 7.468829080997877
Zn 9.61660625057437 12.676065782501803 7.467512940585909
Zn 8.515816748952826 8.404759684998693 11.49695810780741
