33
Energy = -21.04356087 eV
Zn 13.784095457690224 10.525224933113757 10.957776664371057
Zn 12.335331959715232 12.46906627545619 12.129239172837673
Zn 12.101764136054964 11.689638762597788 9.42648625683466
Zn 14.35222316777722 9.208630554224436 8.94296155975514
Zn 12.96602656149622 10.262752126955764 13.364574238941335
Zn 11.423612049856816 11.784114976961689 6.859624624457243
Zn 10.630483434422507 13.79930546524089 8.228088754498172
Zn 12.37171826185317 8.44384223077563 11.72014610636899
Zn 8.984309338163195 12.453856918141883 6.632061213079557
Zn 12.278353066176855 9.510897934525254 7.343986378797341
Zn 11.992007989075384 6.2550222052240905 10.604040228760706
Zn 11.286407711384518 11.505428867100662 14.677282578687128
Zn 10.934209613936241 9.059491663082804 9.603461551272497
Zn 10.618028956421849 13.715687454904339 10.68792399014913
Zn 9.435477825276312 11.140435380510198 9.357268123529865
Zn 12.81855305612478 7.187824280507563 8.393649094010053
Zn 9.438609775739097 9.882097993111639 7.043664665849045
Zn 9.905684315456638 12.851017365337702 13.070448074869923
Zn 10.550240343040967 7.579348307203506 7.0314484641514845
Zn 8.746230416589983 7.393078424101978 8.998583871123666
Zn 8.102583177460414 13.540144518179616 8.822213179030225
Zn 10.776445542917978 9.036160894511957 13.840998841374631
Zn 10.33690878829339 10.570380913871892 11.620704323946196
Zn 8.25642967578231 12.729027107558744 11.206016628432383
Zn 10.559287141171605 5.6275368842915805 8.664008284788334
Zn 6.7475767455711875 11.771299914744814 7.52509686444459
Zn 9.895921322409105 7.422977951030962 11.580048350307477
Zn 8.79159690447267 10.946759398454942 14.48399167087679
Zn 7.225820321288143 9.413751289934185 8.345450810705522
Zn 6.505814235277403 11.318579537161602 10.026197645318103
Zn 8.380836620689998 8.684393793164626 13.299657642847988
Zn 8.133390596648583 9.179101226042873 10.744092866714038
Zn 7.192489531690612 10.850092807991459 12.541694476008292
