32
Energy = -19.79352185 eV
Zn 10.297632198274265 9.624927316343825 11.426139843729485
Zn 11.736386390158465 10.024228245614506 8.908429307131827
Zn 10.837604477030384 12.63348848050135 6.099258544050018
Zn 8.231798342447116 11.476223483615495 11.812537116257918
Zn 12.833463313580722 10.377697505165319 11.279799309678625
Zn 13.852373252937912 8.337713337321405 8.424618633907636
Zn 10.169745080119506 11.025696496361514 13.80920440536027
Zn 6.883694376369559 9.037828901396834 11.710945470795226
Zn 8.18193620541408 9.967723891983855 9.68369257431525
Zn 12.34983290160192 12.544686255386898 8.216639087556668
Zn 13.324798266891621 7.92726783334537 12.192500579741735
Zn 8.425131749427068 7.365370813779979 12.921309417792736
Zn 15.135370177002828 8.78896396058807 10.560294425917645
Zn 11.748148558540603 7.614721118214912 9.831801453610222
Zn 10.520393389642201 15.580990051852948 12.066118608820002
Zn 11.484814750012827 14.392309621225674 9.921163459709321
Zn 10.397087811816638 8.557514401108335 14.047076193339182
Zn 8.922989726819003 7.572199337903313 10.3956725024818
Zn 14.362126407345876 10.853173151990772 9.075031532834116
Zn 13.56481418852066 12.865987024268863 10.52678047057814
Zn 9.649388405793461 11.115677700883404 7.921984674588126
Zn 9.67258171465785 13.770956576128631 8.210156154834705
Zn 12.931174409883365 14.769629635661992 12.201637207836765
Zn 7.6241447463109795 12.487876531651235 9.114360525461462
Zn 7.936468414013206 9.766799047839898 13.911075686196355
Zn 12.166704941749158 12.351130999333417 12.806153306241725
Zn 10.63539909151797 11.96273169245165 10.504393409436254
Zn 9.79713483585319 8.446172263527016 8.222586237147532
Zn 9.697302637992717 13.348201758537616 12.904434018876541
Zn 8.79260310709288 14.174858580615808 10.65491136098632
Zn 10.913551228585408 7.009610046051585 12.116887997214791
Zn 12.58255586896716 9.783304817114827 13.792337316290999
