31
Energy = -19.55361496 eV
Zn 12.076759404543274 13.589554577840863 8.112117646857387
Zn 10.337985208631018 9.004031765547921 13.035088498972161
Zn 8.811652284918143 9.916721428187444 10.573983730356447
Zn 11.788727175107509 10.70906258663983 11.663291719656721
Zn 10.840220586574729 13.06187749928909 10.689907020933603
Zn 6.836983489651893 11.978370290558415 12.322678527362
Zn 8.603042968824203 7.148615628639236 9.734358065750282
Zn 10.097698950886583 6.668617098868149 11.803361034399009
Zn 6.366933940523873 10.881800889521946 9.885221050990294
Zn 7.878582154471751 7.895418327816406 12.10041511170085
Zn 12.87247675764227 11.093878546052045 7.801442264364958
Zn 9.61747058503674 13.691215222943793 8.390728771939433
Zn 11.464259854777767 9.68384798207201 6.203021632221796
Zn 8.010487592451668 9.972361769151512 13.56822521551737
Zn 13.792899277214854 9.131308698182528 12.695737071819668
Zn 13.696243572303647 9.798566152860907 10.020004638261739
Zn 7.47936161550017 8.933888711737664 7.913547148760602
Zn 11.076378753795131 8.527684231027647 10.310901794294871
Zn 5.934188210243974 9.616271427173766 12.090953202324332
Zn 12.300560861959909 7.151162929023484 13.062354387193164
Zn 10.513349870455007 12.112255286973715 6.540056897732263
Zn 6.215233417924247 8.251765050795745 9.950828331297796
Zn 12.64599595627443 8.409182932188697 8.141821700404861
Zn 8.313969584596492 12.719142033451186 10.437541025795591
Zn 8.300441092069722 11.4209112324624 8.213465905961195
Zn 10.01232987693705 8.334556033066386 7.963570844942684
Zn 9.57826443957007 11.693150923076733 12.549275031686074
Zn 10.642478391605657 10.792923093330876 9.124428561967548
Zn 13.198507924763458 12.315484035458018 10.055953912096168
Zn 8.999976138227849 10.083705705117486 6.118332532146293
Zn 13.587900211852332 7.304028060279674 10.818746871629703
