33
Energy = -21.08899616 eV
Zn 8.268199681593948 6.490424042361363 11.706540430140024
Zn 7.0070610556349795 8.575990086410913 10.897553336534376
Zn 8.219723936679953 8.58937362109964 13.17758372158378
Zn 9.429655724201705 7.530334342879565 9.740901957639153
Zn 8.034844924049601 11.052756144725272 13.57876884847424
Zn 7.077193371531587 11.116006669174743 11.134426462741617
Zn 10.583102232168947 7.4141112558245235 12.410495171767183
Zn 8.233114867032612 9.859168147156112 9.017986277470147
Zn 10.540759006674842 9.630776677487919 13.815928741646566
Zn 9.724313710765411 9.790668681494891 11.218973719361516
Zn 10.629157014495584 9.045232261318993 8.12113530055397
Zn 8.273879566484384 12.564487698106118 9.283208687189722
Zn 11.922834004221711 8.314869893848625 10.353918489110196
Zn 10.293236758986746 12.182707730696116 14.150618941780813
Zn 9.273354603249723 12.449267683607298 11.729433504455237
Zn 12.861904343403943 8.67480835114893 12.96362393516622
Zn 11.14498042769926 14.193181543232853 12.48835924007379
Zn 9.732862875419022 14.631054535055368 10.407673729071984
Zn 11.791474169093043 11.160313066004212 11.786197916246959
Zn 9.394661073023093 11.275667084042759 7.238967559808231
Zn 10.833915853412236 11.366250426607623 9.493281788198797
Zn 12.437647956660097 13.571020699964171 14.568476633856706
Zn 12.766420658105114 10.994124277569597 14.252749951615193
Zn 14.303084570712034 9.172590805718501 10.891361662448016
Zn 13.688603938731683 12.956529388689638 12.428656581797886
Zn 13.215961288460086 9.855532236459071 8.695204475615586
Zn 12.060489299994142 10.437297078872826 6.504844835149538
Zn 14.841938735848803 10.656204657992276 12.80626515844937
Zn 12.325745742218999 13.557571959220628 10.257120837005603
Zn 10.483322378842583 13.789838727452718 8.210647449942153
Zn 14.26576853924272 11.7099135291259 10.239838484300563
Zn 11.1255316806563 12.722923123371052 6.046821422404954
Zn 12.902240787637137 12.42275886714124 8.032646535578255
