37
Energy = -15.81482801 eV
Zn 16.331075614103423 23.27379738582498 15.009163529896936
Zn 21.001172644382102 23.2826735265655 20.61481898337857
Zn 14.70932818012 10.202419918195169 14.611019410889233
Zn 18.605442006950177 22.2686779054876 13.993827128748428
Zn 15.835823263720773 16.662609003461753 15.453010959931854
Zn 14.73754357099516 21.46033468845014 15.83243338159101
Zn 15.564135477502191 19.124825922538488 15.65551368124516
Zn 16.927107909196305 21.95074722405876 18.15082195113192
Zn 16.947526060233223 0.4501592384730289 22.050383183922534
Zn 19.4760702348221 0.5239484681704965 22.157078712836892
Zn 18.0152111865011 22.45745504013354 20.592369325708212
Zn -0.2848409871369122 11.927019434932124 19.505544306715635
Zn 21.044307072081548 16.12194127475059 19.523007598627274
Zn 14.466814397003745 0.7888576069630662 21.70874753170385
Zn 15.33943179423852 12.637619073934184 13.399247885208492
Zn 19.6201117395213 22.630084892770057 18.481404317575322
Zn 20.463547281577522 18.555664772480892 19.85553701403605
Zn 18.021109733941216 18.280922945135988 16.172376521145566
Zn 20.086176187104176 20.932886674530387 20.328984790993406
Zn 16.54039722683024 14.317091591260638 14.981851960078245
Zn 22.206657277344913 11.931633288443205 21.79093185432214
Zn 19.462447489952226 14.48373653836346 18.5053158917561
Zn 18.84477642582463 20.03440902662485 18.04517353059736
Zn 17.57842067851855 20.73381004538801 15.809915708111951
Zn 0.6355314027745631 13.247316218302856 21.681118470488514
Zn 18.277759166916383 13.252022473757892 16.65749283868308
Zn 15.098949375001682 10.30001031808137 12.018532665229698
Zn 12.01238243434061 0.18979889317084153 21.18929142916064
Zn 18.125089849489147 15.787124594901131 16.580825403287974
Zn 16.345519034551366 11.812223848156757 15.935847732949313
Zn 19.88293933043343 17.389174467238533 17.62281491880252
Zn 15.437828470382543 22.724701423445087 20.315398047934995
Zn 22.40746693635592 14.12686559168167 20.307812217833042
Zn 14.252912343179494 22.193433472725612 18.144429423483714
Zn 12.935739433527617 11.434389216102344 13.152020639220552
Zn 18.51015070038077 23.387228642497767 16.374166811003313
Zn 11.916895654114846 22.80111635853885 19.001733395797913
