33
Energy = -20.3062406 eV
Zn 8.972650257611319 11.975137996001463 11.007425834719381
Zn 11.642135462025733 11.8458378151753 10.119836875821296
Zn 10.810187395948684 9.278662637586002 8.766514450713615
Zn 12.632071750452832 8.009684869864357 10.328413228624052
Zn 9.99021741859753 13.981856853065848 9.731270119231949
Zn 10.102020366699072 7.5474883090982425 10.54041798276866
Zn 13.520575750687332 13.25581183468148 11.624612275677285
Zn 13.392567902040387 12.64833271258043 7.307970504662495
Zn 7.68966713273812 7.731320884223843 11.405429521562008
Zn 9.463883963657526 11.675744167576365 8.440291894414246
Zn 9.738512864111222 13.291702369642241 14.667218233690383
Zn 13.667872929263467 11.607090953538595 13.608357042924297
Zn 12.6710393490029 14.060344790782773 9.309851250648476
Zn 13.864716890019318 8.117806253397639 12.807616802614694
Zn 11.753112996865967 11.771744518457206 15.24263636411484
Zn 10.981044246292129 13.550259278167342 7.322753725774336
Zn 7.801692890347124 12.437060423882107 13.329231054899012
Zn 7.057251556778227 10.931164193117038 7.63389204896081
Zn 11.595638000091316 15.011832670403784 11.494439097203973
Zn 7.749308024965953 10.10514740557799 12.339870726476654
Zn 10.70243654985864 10.09808234406194 11.714197671742125
Zn 13.265390157793913 10.103343032222647 8.765928106558118
Zn 9.288309548252982 14.321420475456394 12.288802598098336
Zn 15.656856340339536 11.62939761543949 11.694558332702593
Zn 9.523772667512072 8.194898921133255 13.227395959789751
Zn 14.712644691655504 12.09636344342715 9.411574942849578
Zn 8.462825151746765 9.614363341515798 9.787608017967257
Zn 12.081441721958269 9.51284472857435 13.962780417430334
Zn 12.083200034837127 13.849641728614356 13.730305949510273
Zn 9.66573711401947 10.623159157723792 14.15127489339554
Zn 11.655143893807608 6.944817158991942 12.563919396297791
Zn 13.342848152968047 10.25520236593847 11.43756574259674
Zn 11.541619868715697 11.011248102348842 7.041080373834441
