33
Energy = -20.94497211 eV
Zn 15.562244862664363 11.552177136355239 11.343085797192032
Zn 14.817202948946811 12.115633570613088 13.697281981926933
Zn 15.018936607236354 13.970091057374198 11.821580993860348
Zn 14.11429166626163 10.059365555068773 9.827683900323722
Zn 12.927567513679177 13.870387856858189 13.27411202067195
Zn 14.254493869393217 9.708262694621542 12.579711546163447
Zn 13.06460269490529 8.009768806880947 10.904396251817445
Zn 14.103040302530337 12.697263207633123 9.541750994830783
Zn 13.001597478102266 8.475514053947453 8.05737666993707
Zn 12.581238885819557 11.746645466804141 11.607532094499396
Zn 12.477425727043189 11.482743098225885 14.492123283926649
Zn 12.801998710971466 14.690147423368302 10.789638726527484
Zn 11.358729763937285 10.033245395730814 10.090702854174006
Zn 10.584844870512132 13.218689449654569 13.695894625068975
Zn 11.119359521637332 7.208195159045696 9.222383997017166
Zn 12.801724432043445 11.016311616015399 7.8331103435734795
Zn 9.94739279992982 10.871770144075912 14.44853971509608
Zn 11.713410921830468 9.476532406592224 12.910539156107244
Zn 10.748952712359534 7.25291422454657 11.675091307263704
Zn 10.319690351054238 11.506051143083186 7.564134428179329
Zn 9.37550488075468 8.58028549667843 13.335041386415156
Zn 11.485885657918624 12.918309890653475 9.340423810629137
Zn 10.52802740765992 8.971111727712598 7.536355529848355
Zn 10.276827070181689 14.260208748664255 11.367478078803876
Zn 10.059017855285163 11.458963744894046 11.621318730694117
Zn 8.974351286776972 8.952816340725542 10.795891119638597
Zn 8.134415111050703 12.702950756293495 13.376665687942761
Zn 7.538661783533826 10.262057806002952 13.422800349338884
Zn 8.934620075329757 12.80544220150259 9.384136309123665
Zn 8.53600984315072 10.213400185604206 8.749285057250818
Zn 7.630537236491984 13.958330901909108 11.288190168193198
Zn 7.442796363287068 11.246387967759242 10.995444090442728
Zn 4.9629480606330505 11.87842026986684 10.27883957399489
