36
Energy = -14.84190713 eV
Zn 9.093848968750631 15.0455292079645 16.125255305583078
Zn 7.859455939736706 12.976850087566273 15.283321706742214
Zn 9.278675582395362 8.817409145828805 12.977921428291863
Zn 10.887817678967476 7.768418376827574 11.347381910269226
Zn 15.36935318567756 7.409708652198432 12.561211882395723
Zn 18.45407934449949 9.908381943645312 14.304450910963578
Zn 17.814198399874428 14.374264584026657 16.02195937064565
Zn 16.102180455023046 16.141841134485315 16.546092741134107
Zn 11.22629167783058 16.373033338363857 15.74759808952299
Zn 8.450974926973798 14.826397231873681 13.59802111765667
Zn 8.321637191016295 8.235823541798093 10.61682776075788
Zn 13.388239342844374 8.222576952020816 11.027613709464811
Zn 15.914738779073684 8.564272711190267 10.284072555300975
Zn 17.46089838226404 8.95955076304288 12.211620263534543
Zn 18.17312177291624 11.455486585913906 12.157467392277976
Zn 16.685233710097535 15.640168848972966 14.019722559280176
Zn 15.759439221310515 18.066961925192814 14.902339865160817
Zn 8.959444878595333 17.231105602048885 14.666862965489107
Zn 13.716975698163196 16.538363910811793 15.779232759515082
Zn 7.222790606222095 12.600713499144637 10.165062698841423
Zn 11.113839563083209 17.617917601004937 13.211737645093018
Zn 7.8291128815988245 10.402231968077679 9.069148259265576
Zn 8.520549289825862 10.844411505781625 11.552034550106827
Zn 9.653154414361339 8.807999517167513 8.462573749254434
Zn 11.981713489136048 8.07610494940106 8.821550979425465
Zn 15.752682595789201 17.447604971773814 12.360098314791507
Zn 13.544299090664648 18.020513800138897 13.451246388485362
Zn 14.403241035957581 7.206516357246241 8.721022067242206
Zn 9.016663618629691 16.81376766651575 12.059696029579543
Zn 17.301216398281014 15.646724967731352 11.420664951572784
Zn 7.618587342978101 14.880705791511451 11.134898795280339
Zn 6.895334017802559 12.736144137843139 12.765001992740578
Zn 8.116639388461728 10.75805356900241 14.159288225655796
Zn 18.81425206387505 13.629838584061922 11.020567735777941
Zn 18.592538406093464 13.704408581040019 13.572256875452544
Zn 18.449523759376376 11.992615987443621 15.617783957322235
