34
Energy = -21.32147107 eV
Zn 13.122601705157198 6.882872137466023 13.037484210125529
Zn 13.207105082888045 9.456791624992524 12.73352200416734
Zn 11.549178816052892 8.004521159189443 14.742582553275186
Zn 13.032112783677901 7.800519531015439 10.615514352883734
Zn 10.775875969133127 7.24851252214903 11.98111467451138
Zn 13.65291959925256 10.288748985721087 10.291996036056677
Zn 12.872621559313165 11.962683420148958 12.291599014285877
Zn 11.326844362437132 10.508554431862297 14.263060167385463
Zn 12.725972672571855 8.932221839738721 8.243658665664356
Zn 10.740972357479194 9.929399026325749 11.75835617389874
Zn 11.344357236720409 13.006426413286768 14.218552425722091
Zn 9.345478736512908 8.704514447772114 13.653121006107751
Zn 10.763196694382506 7.652704598405737 9.405337562141977
Zn 13.675971659941027 11.265633060731826 7.872390364637209
Zn 13.727990293021238 12.828861183618798 9.961221419752187
Zn 8.56727809739934 8.015332062138416 10.935255323941478
Zn 11.248836097383402 11.83509284315355 10.184291634700438
Zn 8.456971891221894 7.997536988476397 8.333190980199802
Zn 9.44212737280569 10.154078338446107 9.595144716249319
Zn 9.756953716801604 12.738598684574981 12.266500691429592
Zn 11.798841043541342 14.455816594095733 12.104782453570593
Zn 12.589078971094608 15.106405431250588 9.827267400279883
Zn 8.001974249049375 11.030565581784325 11.716315178642136
Zn 6.999108894344874 8.992829257471596 12.84899724428325
Zn 11.96365826550347 13.241622895377425 8.076247368833844
Zn 6.3770366445213975 9.396416097972146 7.919371953565492
Zn 11.256551658083296 10.895989287975523 7.125977224152182
Zn 10.601583659396136 8.423762520529882 6.912008935095663
Zn 7.883844754944591 13.441333088704724 10.509330547280603
Zn 10.155934437896754 14.439364624550114 10.036618344683044
Zn 6.290522169333561 9.44036564983373 10.40888455405262
Zn 8.719188424560077 10.274420367492443 7.057316320810289
Zn 9.407975146393088 12.52909438342404 8.358072505191297
Zn 7.042070112998002 11.565449948006867 9.058932420536586
