35
Energy = -22.67436102 eV
Zn 10.830767054536357 10.352368688760041 5.659701983572339
Zn 7.438210864536062 10.325070146080122 13.6078961304966
Zn 12.545011167053552 12.245499433259635 6.566270977065406
Zn 7.954568003697202 8.724238679672592 8.825984089780173
Zn 12.897867249664156 12.626596616368795 9.47993065659806
Zn 14.36968642168873 10.703427021676909 10.661737334661302
Zn 10.108795230462245 12.693997736338282 6.40560990769651
Zn 12.179519317871389 8.664232282187342 7.1239904019906914
Zn 8.881424839102685 7.7737062165201865 11.108112421829949
Zn 6.67716128673816 11.911464334890155 11.775955574988703
Zn 11.799403278301089 9.02347205827024 13.788567297533811
Zn 10.579885563216402 8.247354352493325 9.247523908449171
Zn 10.994901910440113 13.300433663591145 11.357174211489427
Zn 6.836327184547961 11.249364986893072 9.318657420057688
Zn 11.007807329981906 10.825893816852453 8.532702629973262
Zn 11.481310222113008 11.729207202294486 13.375233680807543
Zn 13.18037944116237 8.512422936286049 9.57360683109379
Zn 9.67000785323099 8.374044477773104 6.776204665764253
Zn 8.0953777935588 13.14033358161557 8.031093312327549
Zn 9.240690309663014 10.784433828803481 10.241903513951135
Zn 9.749578033488385 9.952344183640466 12.552508358781473
Zn 8.48648967014681 13.359139794892728 10.534744813353933
Zn 8.992437731227 12.44865317102202 12.887440970094335
Zn 11.458016529544842 7.577191815001275 11.542501302071322
Zn 11.693752025561897 10.448415763585842 10.942751482930376
Zn 9.27495006039504 8.717498802531102 14.925166213040594
Zn 7.467974015534094 7.759747375142221 13.378043274616001
Zn 9.939421878237686 6.774832138466357 13.49942714895813
Zn 10.511799766863444 13.609526758539202 8.834648428979367
Zn 8.557781897648782 10.760779541415708 7.349186071373523
Zn 13.866260351358365 10.70443966964142 13.358200374403506
Zn 6.878089800941551 9.368902145042739 11.193488966763391
Zn 13.74437165679347 8.591240616354847 12.043077866088026
Zn 13.690434133611262 10.56081203572215 8.119092418138177
Zn 13.50872221667742 12.748096217971646 11.971047449876732
