31
Energy = -18.90170925 eV
Zn 12.227703217881885 10.336581311657898 10.691677085767616
Zn 6.763906124943426 9.295742835411854 11.839617645348156
Zn 7.928492515509815 8.141437409376861 7.209612021189483
Zn 12.118331656387891 8.485166011051437 6.8502889432085174
Zn 8.721316719361837 9.168893884447652 13.667340406322458
Zn 11.395385462507207 12.906615777760253 11.184062730505477
Zn 11.75873029523956 6.470961021242557 8.518972347798659
Zn 9.18368711471682 6.510228649435949 9.172198728113726
Zn 13.543093478609295 13.533848815771746 12.408181671244831
Zn 8.87667364879353 12.824315592545602 11.268330291668118
Zn 11.066828751347892 7.900364481046357 10.689884565183108
Zn 7.862997604450668 10.482894292130057 8.6944847995756
Zn 10.212320063459961 7.047861105165051 13.458108242313124
Zn 7.539285800622164 11.381872053579933 13.041859591322368
Zn 12.790723265266843 11.289833853175553 13.245985868967509
Zn 10.135668528715161 11.416881020944363 13.077738799387804
Zn 10.10228967422842 9.121681006886897 8.587416860208705
Zn 7.110718696694608 8.136410108824546 9.576430846962952
Zn 9.417956150375309 10.003696928183214 10.87343641828804
Zn 6.640891596883527 11.692963323001084 10.630295230516126
Zn 10.711252960281678 11.10881714044071 6.508727691916737
Zn 8.805183476128354 12.78332208429455 7.173269110555678
Zn 9.938920702629193 8.805554624112364 5.656018279304399
Zn 8.145681847820983 10.523266440925006 6.086612560885427
Zn 11.495877936036756 9.151635551210369 13.031237306046782
Zn 8.519898088548565 7.352685608711994 11.526559890943473
Zn 10.413826020024155 11.742252106043326 9.105067589905758
Zn 13.270498040346387 8.384954775582946 9.174263033766477
Zn 7.579042606879527 13.749528335736693 9.119821791879245
Zn 10.018575499663786 6.512062318542661 6.728533570258348
Zn 12.663287528357863 10.696716605472494 8.16301115335791
