37
Energy = -23.77709223 eV
Zn 11.830530933052033 7.597086917372925 7.2950841853756065
Zn 9.342123337855403 8.170430856436933 8.18872579111349
Zn 12.950532777809636 9.846066095211082 7.548127205445387
Zn 10.67964107559147 6.1989204865395235 9.139475544838982
Zn 10.790367972976117 9.856332041202924 6.2129186118619
Zn 13.148092472440684 6.832859570092749 9.611866845284283
Zn 14.197417422267895 9.255068657004456 9.758412752319447
Zn 8.237309127006116 9.927400142388151 9.794444224954121
Zn 12.401371442592437 12.366420934594355 6.945880717446522
Zn 11.507215835614982 8.981833832714436 9.836931537435838
Zn 13.757648720958974 11.702549272121063 9.099874240730871
Zn 9.869289236456455 12.34979902566728 6.408808829822863
Zn 8.541622058930058 10.38022632357359 7.27251852656486
Zn 11.437853348889062 6.433079129108612 11.571627628433422
Zn 9.266637608982402 7.742146680347879 10.807589627738961
Zn 13.172622737097646 8.342543662715638 11.979737406247741
Zn 11.009500035811667 11.260503589794157 9.051047071936859
Zn 13.616846951996564 11.030848693519777 11.563457266896007
Zn 8.52313019405451 12.402470873997538 8.798599782979029
Zn 10.790217226557749 13.85607941174454 8.390521334799764
Zn 10.657124831925767 8.348244569143922 13.097319882858423
Zn 12.295078333217354 13.194003884510028 10.643913215218287
Zn 10.545885467606796 10.690666776427916 11.476263563655436
Zn 12.404064300421695 10.253617065683411 13.66294854199685
Zn 8.332641933143044 9.530910103081796 12.41507944866945
Zn 13.44845588330328 12.67735728983848 13.597297869152191
Zn 7.9731044368025294 11.964518719836256 11.364160831385577
Zn 9.626405191235076 13.831191125114714 10.681241859454733
Zn 12.362302711526056 14.927688468840557 12.564319567796218
Zn 10.74035599102617 12.759577759144522 12.822423985671037
Zn 9.860186910063584 10.552940525404383 14.317333635974995
Zn 11.741634476616012 11.962459718671061 15.626885371580407
Zn 7.522856835911587 11.531679419818849 13.91372026046549
Zn 12.177374749124391 14.355088468851951 15.084929573037892
Zn 8.245468658433836 13.883531697797881 13.079670863177702
Zn 10.129471821727261 15.351525753452037 13.925862028944676
Zn 9.525560489962965 13.107082500382468 15.333434628451698
