35
Energy = -23.28788037 eV
Zn 7.055880027718458 10.363079591284956 10.393911035338352
Zn 8.542431476138644 11.651799401403391 12.151013561018793
Zn 6.806942784522261 9.740744501301315 12.952016630588929
Zn 8.503254237084459 8.65553917735865 8.976101824303514
Zn 8.794901782628433 9.342951053285839 6.412530368122105
Zn 7.713414211336247 11.016399263579892 7.972911897520754
Zn 8.353560614905474 12.725201191120433 9.90468017853471
Zn 9.054499799920734 9.06055814757985 11.547371626300013
Zn 10.655136369196724 7.6125464703408365 10.258595719338452
Zn 9.162625081653696 14.210345694472537 11.984683818324632
Zn 8.257972158984659 11.125274710453686 14.744452885001703
Zn 9.376820599247772 12.952742143420766 7.572612706446149
Zn 10.10919792101159 10.699850086540614 9.485412513053001
Zn 10.66096319275353 7.7899839001215865 13.133825229200152
Zn 10.311456471250708 14.43572495227297 9.688418536346957
Zn 10.889738733467194 8.55355028435127 7.8388881697720985
Zn 11.130751158980667 12.244241484899549 11.136648382872897
Zn 11.9288232697203 9.866165367345628 11.022125522282733
Zn 10.663480713659341 10.980933417664074 6.737299409892181
Zn 13.059346838758023 7.943670706659378 9.390931452573811
Zn 12.620391055749414 6.897907366087891 11.78242003145272
Zn 10.098100776309716 12.919140019613993 13.97977726961461
Zn 10.572286462702053 10.37223261587843 13.472969433332779
Zn 12.641616436427599 10.369406447088725 8.323304315010187
Zn 11.58685072346645 14.657959542016929 12.534054793798834
Zn 11.834851156170629 12.90307770140152 8.34072118425506
Zn 12.761678432892738 14.901654536301473 10.17387212122413
Zn 12.91323355616925 9.137798333363559 13.323156571845773
Zn 14.74302155031989 8.234152308068124 11.63530270445801
Zn 12.487270061721555 11.998879860662958 13.428746942636154
Zn 14.773501064189126 9.792079458876243 9.717959228172585
Zn 14.325639024687199 10.88213052366396 12.065751471360155
Zn 13.876790509591855 13.60641709429417 11.981683799842854
Zn 13.682080355304858 12.15543326877665 9.899897381338207
Zn 8.556692837574936 8.573935049456304 14.399507773337866
