34
Energy = -21.40623706 eV
Zn 7.305635862937626 13.570388110328748 12.524816582194903
Zn 13.48134973214506 10.977095141288837 7.548049299857347
Zn 9.947760572106313 8.853436162856223 8.34874646858532
Zn 10.285523632385026 9.241536257478854 11.411545705987436
Zn 8.6189854713938 12.265010914684423 14.24675184883151
Zn 11.033793992201868 10.18248323275353 13.727000367443148
Zn 13.565529176132095 9.37139578995568 14.212725742053738
Zn 11.798904326811623 14.734517195022534 12.23429790892996
Zn 13.829627296321117 13.775577807636376 10.962943132285634
Zn 14.956486774398117 10.01121022377097 12.019487214422147
Zn 8.977291796021877 11.517668508570859 16.608940427799325
Zn 8.224026841672565 10.709419491833934 12.30082570469993
Zn 15.17816237529303 11.315614143600666 14.241649649653734
Zn 13.851283808682005 9.461811024777866 9.748275594601548
Zn 9.476778373472799 12.755219638913882 8.703605271062541
Zn 15.067048866304185 11.674397321253688 9.96910043666312
Zn 9.479014987417377 14.549508523001206 13.258616139276997
Zn 8.74619549566168 10.469569662724208 9.708104058232415
Zn 15.814317730885739 12.694002496239781 12.232178556668849
Zn 12.667284823479344 8.498345090881099 12.057654443385427
Zn 13.689857392866537 13.398530455301227 13.622240709636515
Zn 10.300043358562373 12.226739301896151 11.625450902384069
Zn 12.699964963662675 11.448203003428835 11.942579358628198
Zn 11.367702995596467 11.0823797083056 17.298302321579055
Zn 12.99906586502782 11.533175665784894 15.45341279028277
Zn 11.551128365399812 12.601386183936322 7.33363211864725
Zn 13.783077589044264 13.255973062113886 8.4741959755989
Zn 11.55206606992192 13.999143520944035 9.700870286399882
Zn 11.859544094498293 7.773529852036156 9.813232698274204
Zn 11.186353423946759 12.819245723628566 14.13402871774733
Zn 9.15573715176373 14.600063883599537 10.70605856549537
Zn 11.55590790560879 11.05192122345941 9.698569061448671
Zn 7.558311718479998 12.554479686311655 10.327979606248766
Zn 12.273155710804268 8.839803116967696 7.523374458555863
