35
Energy = -22.21313568 eV
Zn 13.438309986454072 11.412326084679469 8.101385596285493
Zn 11.736879775771133 11.533775491310298 6.225218272765496
Zn 11.931432329531468 9.188167062546405 7.4601362241355815
Zn 9.97574427763007 9.693377107782478 5.731287548124266
Zn 13.640290093222752 9.177517603907337 9.462177737177392
Zn 11.107045920163818 7.957875251799705 9.633157461122051
Zn 15.223563791110474 11.149655008193882 10.114776534282221
Zn 12.795230548867865 7.943669174638083 11.54282035683826
Zn 11.275738602842319 13.137985760878479 8.190131990553201
Zn 9.295881498055204 11.5444305607496 7.282806236900778
Zn 9.40111409670096 8.18308707744048 7.589936393637717
Zn 11.034240722695474 10.763968901402134 9.398071756961933
Zn 9.762346289013651 6.936377050385499 11.716162720064935
Zn 12.795260065239152 10.645979712795278 11.438386695526725
Zn 11.594433580397183 6.852774523893484 13.498751034443197
Zn 14.7001278008659 12.62008711867321 12.08984202771633
Zn 8.315428847445386 7.372991953726809 9.690594843442579
Zn 10.282174382134311 9.624244670750354 11.56548930178797
Zn 13.010055500185873 13.160067545370158 10.049240103484019
Zn 8.431779433303285 9.982392347899067 9.402510348966334
Zn 12.352012567318503 9.291951155942716 13.751252490025879
Zn 9.528469365775763 8.369551384932898 13.845401526330738
Zn 8.951984462998595 12.669984521086255 9.525448979515936
Zn 12.84118284010805 11.834500056610741 13.736091879721451
Zn 7.676422263461801 8.65439531797882 11.771957195348467
Zn 10.519362814906874 12.108149364762472 11.660837072997179
Zn 10.653642054481457 14.457587217901601 10.373267976187599
Zn 10.307263335118623 10.835379259502727 14.123866224829959
Zn 7.8205214884793115 10.239144320709137 13.73074786645297
Zn 7.70118006894113 11.37072469252776 11.423417782693011
Zn 12.393548687294402 14.079502152708539 12.347859049566365
Zn 7.949725796781196 14.146351244207287 11.399500149339325
Zn 10.83218323803206 13.350639228712355 14.283659340449033
Zn 8.431210692053758 12.795444513744766 13.53191690854955
Zn 9.836180626812217 15.088274118959427 12.754187599005718
