34
Energy = -21.40412887 eV
Zn 9.41182368936851 13.23739513106371 12.277049756965457
Zn 9.647121140546433 11.418749560190196 14.13687958547489
Zn 7.945050647287994 10.821076134937647 12.289736784264347
Zn 10.034847469099518 14.187512028384377 9.927277928065525
Zn 6.222865695321855 11.601340494290477 10.224780362608362
Zn 11.473826592059833 13.140976118691597 14.01064648110487
Zn 7.336801301336455 11.994719398917287 8.00678527189118
Zn 8.996404930929872 11.79743098301487 9.987631681922783
Zn 9.877999247925235 8.998374161099003 13.271458170648812
Zn 12.038019918066862 10.276016282635467 13.892572682951787
Zn 7.812869481215242 7.753566807616581 12.57562315354582
Zn 6.492087702860611 9.14339967371962 10.824536447108008
Zn 9.827246437613525 13.007652968731783 7.578528487387571
Zn 12.061292491942256 13.567687178419227 11.450814298884119
Zn 10.99946380851969 11.074130174579832 11.578699054339465
Zn 13.57108697034877 12.180755865939364 13.020139416312245
Zn 7.87287197953266 9.396664135153895 8.297223722419346
Zn 6.619773468265365 7.2388823827934115 9.15326601692545
Zn 7.814518270332063 5.8725472932018326 10.897744256465113
Zn 9.236129646168513 9.226412954139274 10.560170696684922
Zn 12.042113812358853 12.878981758765477 8.819867182973589
Zn 11.61546794988396 11.179577308602735 6.52516208790452
Zn 11.11538915817495 10.393822774857863 9.173680953432356
Zn 10.105064299237341 6.758848394959388 11.39535777922129
Zn 9.080570035141982 10.872224077738222 6.474944148389898
Zn 11.89915615055695 8.53969203314825 11.511919123624129
Zn 13.998303687779577 9.79096650579007 12.234041741225774
Zn 10.336253656465288 8.804263758264211 7.238002736246222
Zn 9.17838358652401 7.081087569016626 8.898798001636004
Zn 13.521026622644195 11.620272574883327 10.434768347960757
Zn 11.678628589573249 7.536796381204754 9.071347596615912
Zn 12.922014752913107 8.828515805398046 7.147728888237642
Zn 13.81796709033233 11.03649916351002 7.8406417381170215
Zn 13.721876534856593 9.097365150405588 9.679368158031856
