34
Energy = -22.34019921 eV
Zn 13.688270930546585 9.769710627883596 9.249494229681224
Zn 14.14020363070706 12.36430424224363 9.835773878018095
Zn 14.09858595885198 10.488868496972149 11.60637654957873
Zn 12.53581943285613 12.513688183045494 7.730583648276182
Zn 13.248730232848002 7.939789350310281 11.221034926791232
Zn 10.128448980050505 11.433238019019376 13.465067337509604
Zn 12.0552513217997 13.876494870318487 9.84355005030179
Zn 12.291792137934276 7.709534980347829 8.679188383617124
Zn 11.995947516131412 9.635630243767258 12.867350728348569
Zn 12.01507358858587 9.981776434953668 7.38265297339217
Zn 11.437927616344355 11.097639844946077 9.933643871642644
Zn 9.995927999747032 13.22503374556267 11.368323133228495
Zn 10.755555509340574 8.80987009998629 10.64443264838858
Zn 10.29613931295349 11.711292101344412 6.559794794709605
Zn 11.693486024956805 5.87223145509385 10.574501878425641
Zn 12.280744541713721 12.181698978312905 12.169588209125855
Zn 11.384059151727664 6.900102960562003 12.85107296570228
Zn 9.205096628974175 6.790312442846837 11.462751816513947
Zn 9.59212476711051 8.78641047885127 13.257198197050096
Zn 9.820483423270499 13.069553696721599 8.768362153087763
Zn 9.119848424608868 10.65758902730732 11.15473590042936
Zn 10.037983498133439 8.499119502891478 6.657534900098194
Zn 9.488610396578297 10.00318687460264 8.722187054714142
Zn 7.944253578798445 12.87436781225585 12.975849836785715
Zn 7.640373924607328 12.739211828889477 10.308502787465667
Zn 7.730246693075839 7.942091635365669 9.59530259593314
Zn 7.724238827850784 10.513753933096433 13.994490793893835
Zn 8.460727301506516 10.307855411907711 5.518513230845166
Zn 9.916156464202224 6.908540722976617 8.809023838849189
Zn 7.36340905636288 8.871579794371979 11.960586478245464
Zn 7.761277988287997 11.83492401380465 7.726434619764226
Zn 6.192048996823643 11.26671553609885 12.07108328956445
Zn 7.189312557799652 9.23318366193355 7.401845456115126
Zn 6.797465483049835 10.338309676141641 9.731966407835722
