38
Energy = -25.00492671 eV
Zn 14.06197144238841 11.531482738858795 12.325923853246138
Zn 13.431423691604492 13.306910885029541 10.373545782143246
Zn 14.760710770833951 11.020475893464075 9.793514432678029
Zn 15.737999736567003 9.516377617604194 11.609883584569223
Zn 13.16624260562369 13.80299221360516 12.958424614082103
Zn 12.5824962579751 11.579359942509843 8.629455352629748
Zn 11.63594984650502 15.034465965446032 11.371452016053173
Zn 11.970446883777214 10.510963205278246 13.496548913316136
Zn 11.107672613013555 13.726362229718822 9.141323803776082
Zn 12.523145962824666 9.760724044939954 11.004558987406599
Zn 13.553281202330831 8.897811643660631 8.565769922028803
Zn 10.668795586299947 13.282424303584566 13.391137514974316
Zn 13.913423409464341 8.26118916482476 12.925462949924082
Zn 10.370657689465615 11.938799732792951 7.43357542465336
Zn 14.798725766839494 7.505746857434591 10.471603421197091
Zn 9.295127462206121 14.187398627036382 11.056511016363757
Zn 11.301345057879661 7.872522794124933 12.806301790559864
Zn 11.24632173596441 11.968482253264762 11.16950027534594
Zn 9.696114211346744 11.117792711507759 14.442948203862235
Zn 10.639057974681965 9.856727272722356 9.33186797861623
Zn 8.991366029564661 11.590332591086376 10.007062961260733
Zn 12.085955887024275 9.824885188510935 6.688134378705774
Zn 9.668731160903283 8.618908942191787 14.776313573768881
Zn 7.66877462374278 9.78888634948503 13.433607246647126
Zn 8.410411698621218 12.203834332599415 12.487855223016696
Zn 9.868016993932592 9.912629359976197 11.844513073689376
Zn 7.902784782229881 11.324863633457221 7.1793788096099
Zn 8.507460641227794 13.649542927606834 8.39551633622614
Zn 12.145094329477224 7.281147384492324 10.219935073902944
Zn 6.821274596094941 13.67662584891046 10.495313258119577
Zn 9.536905868549567 9.414028078301413 6.835915251223542
Zn 8.758100747847875 7.226245892779814 12.940765315696893
Zn 6.539809798535529 10.977909682151502 10.930886091430747
Zn 11.24350353087385 7.676956848276636 7.844484036361377
Zn 6.105881069968958 12.202386777767886 8.648246874767489
Zn 7.361844389448503 8.514812650397296 11.25930266496811
Zn 7.927397968436864 9.364244743237416 8.941121437878925
Zn 9.63211560525005 7.649060790144446 10.411201105191422
