31
Energy = -18.54756291 eV
Zn 11.0954516442144 11.93071040820078 10.082653397118746
Zn 9.828035918828965 14.273204966767285 9.914785832054479
Zn 12.998878799508432 12.042400458180202 8.059256104235866
Zn 10.425129746893555 12.642705972306626 7.625028273579325
Zn 12.409934344552374 14.161965650712231 9.415762873512536
Zn 13.780419870875711 12.162552301352102 10.636818312845024
Zn 8.885544905944247 13.172542201285427 12.053764312424192
Zn 11.499178966504815 10.187107518111528 7.031255952357908
Zn 9.07991885995301 10.536192949020807 10.535145908695313
Zn 8.073713259156179 12.649945516962084 8.903408748766045
Zn 9.840648318476068 8.077592164946799 7.630169418325542
Zn 8.881705353242362 10.494065674819728 7.506812594543594
Zn 6.813352465828362 11.949915979595119 11.104853422630207
Zn 6.794654008161445 10.311172751463268 9.021211787700135
Zn 8.067096357687863 8.061236522024616 9.49706028220364
Zn 11.50565464054876 13.743436586000763 12.01294850238578
Zn 10.43068543250033 11.980561111511381 13.829686272234923
Zn 13.007327258438094 11.94755576827212 13.108042268440594
Zn 11.104407160638091 10.243660712190351 11.94655806423239
Zn 9.835800337394044 9.239273655997366 14.072162717036441
Zn 13.8006813928958 9.706290431982264 11.83827391875631
Zn 11.095122768530095 9.445148524903399 9.565557854304185
Zn 12.438513124842034 9.673486168995042 14.1645188121163
Zn 11.487409433744302 7.644077031526597 12.559420992061218
Zn 8.065216806663997 10.886464758565571 13.207722957993981
Zn 13.79899603395865 9.82164811527084 9.128278595101541
Zn 8.882207251409154 7.937842447418849 12.05667390897626
Zn 6.7999654963988885 9.342251062648367 11.471225129960652
Zn 12.41520224130039 7.753149730952075 7.968633991471554
Zn 13.009035270330815 7.617562760377628 10.477809488587617
Zn 10.426479142501961 6.940646597638482 10.150865749386169
