34
Energy = -21.46610733 eV
Zn 10.883504137096018 6.6427494081075125 10.098380388957995
Zn 6.403444566709561 11.014908833945706 11.669166099102336
Zn 6.4833304774465805 11.95742471326431 9.33363616675931
Zn 7.365877364584987 9.356871353276583 9.382336753054414
Zn 11.512441666503884 11.204216282383953 10.380803187185084
Zn 6.511193410689499 5.897272694821863 10.81017966269977
Zn 12.34586876528684 10.482143913157532 7.806930043456158
Zn 8.922869827685032 11.531980251236861 13.662628733708619
Zn 7.924502295613698 13.106142249527412 11.177525009208722
Zn 11.269662910969304 8.565464135246126 6.383850992503226
Zn 14.564105527138205 12.242577625216956 11.138584288837942
Zn 12.720844501426155 12.328687814497297 12.934858826418406
Zn 13.68656484111492 12.496368061009065 8.809956840523549
Zn 12.443243029518891 13.694782738027346 10.684192747251112
Zn 12.60473085721232 7.914667674493295 8.546283016703477
Zn 7.535228012002998 10.845866022758864 7.229603329822802
Zn 10.074029517493468 10.852726658191777 6.648223691192324
Zn 9.858218537981593 8.179074685947013 12.00866378535653
Zn 7.296433465292003 8.490660130436842 11.798039330335534
Zn 12.226610055402688 8.542361079597137 11.166947549290608
Zn 9.190128315151188 11.957180300351261 8.870997465372085
Zn 10.230518281710447 9.343340414549722 9.22610264129148
Zn 13.860744272599035 10.020180827820631 9.811600400947647
Zn 10.373549294671017 12.986305013583749 12.191170492390654
Zn 8.885669672223635 5.781521425094038 11.753994655765478
Zn 13.849101279599184 10.11158668559093 12.417873314367624
Zn 11.158853598294641 10.208832252937851 12.971913849956247
Zn 11.330190161670384 12.908952347556697 7.861888115955351
Zn 9.132147806132883 10.611537637704032 11.137415854950463
Zn 8.499160167862275 7.097037575218169 9.179814992162317
Zn 8.778733049832503 8.546714514389336 7.042818198423599
Zn 10.007935641402183 14.162601166680219 9.891937463538618
Zn 7.048964819341625 9.946675888027272 13.933407927827965
Zn 10.561692034162732 6.5106797871750235 7.578366346505419
