33
Energy = -20.3554302 eV
Zn 14.454979972489957 10.349580965530382 12.450784762904917
Zn 13.980886517225226 8.277600936442074 10.828141266428737
Zn 14.037953678141829 12.447300124803109 10.927856978778134
Zn 13.297593666871833 8.33623308393376 13.440438317575097
Zn 15.221691353969394 10.246509953005184 9.916375233710678
Zn 14.479137212123803 12.056623686257193 8.3854126168001
Zn 13.652033335243958 14.331911008659956 9.117603472971624
Zn 11.877780047767759 10.626185906264821 14.130988955356244
Zn 13.159749305358561 12.602499488009379 13.330364357711677
Zn 11.732876603978658 7.2934500787780046 11.543890197115358
Zn 11.838497884784863 9.92374603246974 11.392006517558482
Zn 12.519649022709174 6.945906211592166 9.074399485128755
Zn 11.277305558344931 15.085277799647002 9.088472373851562
Zn 11.963681274765754 12.688183697194159 7.989662326291204
Zn 12.301040172038231 14.367988790991905 11.485297107645245
Zn 12.609367607242206 10.25811733345887 8.95318226021945
Zn 10.840347352793648 8.245435034921664 13.938931482768062
Zn 11.09833691706414 12.162280420435335 10.53411018093687
Zn 9.77952588062726 10.99731980407193 12.48237698178769
Zn 10.765400732336365 13.211057028260706 13.441634257236021
Zn 10.997331979552142 8.300757446026376 7.7042407156365735
Zn 9.273367882211675 7.547424491808865 12.043891839994687
Zn 8.25616952267278 13.1431361691091 12.718390165709458
Zn 9.471433733930647 13.387409516079884 8.634342451766171
Zn 9.768810558060782 14.54978505772191 11.11077997315134
Zn 6.966190398972582 10.97180137840258 13.678720321625294
Zn 9.779811545555912 9.011579115771662 9.975394781098387
Zn 10.174677139240082 10.781209152057258 8.092143979743517
Zn 8.40297984928336 8.966852776351775 14.000919794996962
Zn 8.284128503754156 11.246025102148684 9.737780694391489
Zn 7.53817811139547 13.777554012456282 10.270939853640256
Zn 7.512492070592743 9.449123037941929 11.553928667635716
Zn 6.335002276366145 11.900672216243914 11.453657522173813
