35
Energy = -22.01200717 eV
Zn 6.843473138059882 10.971370290143142 12.964720280792784
Zn 9.104632134632492 11.743598542996889 13.951252196394098
Zn 11.11627401932611 10.227908719045821 13.616904606173605
Zn 8.487775037619809 9.169121996799403 13.842492189307194
Zn 13.118147215992606 12.129153031421056 13.729701157421125
Zn 10.630749055294629 13.101228874240027 12.104448538123675
Zn 10.54465955813162 7.765403758849707 13.140374776716031
Zn 8.128307556479111 12.875760198749349 11.893857068459532
Zn 14.178344959148921 9.79533709305104 12.96973761526661
Zn 6.994411559339076 11.593805162365793 10.015601502716894
Zn 12.516415585625374 8.220277968787178 11.622332558861446
Zn 9.57273930335258 10.284436169828442 11.417316104825332
Zn 10.336121791022284 7.769954798869344 10.394364664918475
Zn 8.298537588013463 7.245101813459393 12.125180010020673
Zn 12.138227649761667 10.98483112225973 11.387855864972778
Zn 15.181339456556493 11.999783540324147 12.231384433369678
Zn 13.127358177840467 13.579189720114908 11.61499699317031
Zn 6.632219923957977 10.1754602206964 6.344826941798848
Zn 9.25519323334695 9.942167463447646 6.339647708275919
Zn 11.694798844120665 9.453511864697226 6.626981300702483
Zn 7.509757544983693 7.744497631875125 6.773254482846618
Zn 13.14295611347881 10.930646106283449 8.008257916759742
Zn 10.769421973079195 11.980171495537464 7.233488775145632
Zn 10.029934680115682 7.755678624776191 7.623932434451126
Zn 8.151082292637794 12.005185140081014 7.471801853968896
Zn 14.196978296985867 9.587262214156393 10.160258184980066
Zn 6.003894039142532 8.994903969543575 8.501949344798044
Zn 12.48952510181823 8.13377018391966 8.813924356326943
Zn 8.60594906839644 9.795478353617524 8.977806920083614
Zn 7.975889923049476 7.251203803118311 9.45051385279942
Zn 7.087453183442112 9.23893759679206 11.115557555144985
Zn 10.989408208903562 10.292452321902825 9.325315021363824
Zn 14.333665531235042 12.122487954946985 9.84601659048815
Zn 11.972936107029556 13.094714491257351 9.310686988268527
Zn 9.45896640723953 12.6627520212058 9.67080346944713
