34
Energy = -22.62981676 eV
Zn 8.408042906723379 11.809404253992524 13.058212229353762
Zn 9.238386592629245 9.863415242434996 10.107203530871478
Zn 11.976519160160985 7.37669133415944 11.028816839723937
Zn 9.183697065514943 14.206910526927935 8.229467344802156
Zn 10.53997318605571 14.902796610550421 10.247701386969126
Zn 6.582112504530675 9.849402641332693 8.502781708216785
Zn 6.589370949963238 8.358984260515973 10.729001998829126
Zn 10.595339669793065 8.116845042405886 13.144808880259712
Zn 14.561362177951478 9.923148121799324 8.471901347186792
Zn 9.267167012256465 9.752498971794573 14.838542138382955
Zn 11.93628248129301 9.77597304980301 14.833361593263032
Zn 7.071879711013384 11.03881438081287 10.918780673946378
Zn 10.575755886256937 10.512657429114025 12.146011859648576
Zn 9.236527177059292 7.328621970854116 11.02534238158096
Zn 12.720702511724296 11.857880860083776 13.049514966828077
Zn 11.860485824082078 14.21921513033174 8.214285073298186
Zn 8.151308725657923 9.189256399953194 12.593134512713018
Zn 7.927510563922369 7.717446834201417 8.693092547314134
Zn 10.55471339828179 12.00965890068921 9.937534880996118
Zn 13.03335038165763 9.260187307002216 12.579731215999782
Zn 10.587657066507244 7.951844374122637 8.815728190052006
Zn 10.556238872681774 11.992889275075044 7.35235861055873
Zn 12.99222249047308 11.949671508122501 8.55766714030112
Zn 14.593670099223221 8.463381996555905 10.704910152545683
Zn 8.380965831741271 13.348234312394705 10.79669596344136
Zn 12.699688303007479 13.385459177195202 10.790910389080347
Zn 13.25916485512293 7.7630769311653625 8.690646641612737
Zn 10.550483336680669 13.208767958907472 12.333150662659065
Zn 10.573989820050066 11.90154295823578 14.67242429594735
Zn 9.187429654821045 9.742188307491803 7.413194570959047
Zn 11.957807885043925 9.758975670343847 7.4081279309595995
Zn 11.91734697878878 9.890924734825258 10.098947737695957
Zn 14.062784354538278 11.123629054170168 10.894699519796323
Zn 8.11955856479234 11.899100472634828 8.570807084206585
