38
Energy = -24.8608396 eV
Zn 10.008492056514001 11.710994796346757 16.213967735994178
Zn 10.85051225277987 14.230073510777745 16.05455425290049
Zn 12.474910769267264 12.226818032431929 16.30180906991463
Zn 13.880797946246204 9.03640192441004 13.528749852443735
Zn 13.275977080889488 14.025395218916708 14.228446300209074
Zn 13.855554688817445 11.52797598739532 14.172624973424513
Zn 15.21126119909298 13.356585511126337 12.644064034981927
Zn 9.060386817126806 10.474945192600941 14.128956308731441
Zn 15.499315695978026 10.501882486508201 12.307421956962186
Zn 8.929420749105338 13.40058582709556 14.433537756246862
Zn 10.963783524331387 14.960062279183683 13.399725782804447
Zn 11.570150087936813 9.77821701015078 14.3501574505533
Zn 11.210437466861164 12.226574022799632 13.43242274146404
Zn 12.926500651675124 14.512264943223986 11.68271871751708
Zn 16.47514551197274 12.184272428899014 10.78354073393029
Zn 13.177469187936552 8.928728788123273 11.088841167189951
Zn 13.03478610987224 11.746338365167563 11.663365240442268
Zn 9.636196701970952 7.938459396198503 13.309019845894472
Zn 14.4053051536976 13.38411005868477 9.91520774511343
Zn 12.052400227843048 7.345303710871534 13.05220708282116
Zn 10.679738933964012 13.312289363626673 11.120887863067333
Zn 8.444762776337056 12.169179973702086 12.28640431683219
Zn 8.56085778153087 14.985761034801438 12.446660043672148
Zn 14.38018343539391 10.668029922622187 9.65721967491218
Zn 12.060205573526902 13.978006418069702 9.02928690195998
Zn 10.982137872520253 10.244210358888974 11.742243252866478
Zn 11.573984848671682 11.354253968702057 9.52316603865924
Zn 13.583805643966507 12.188426963088766 7.727482966947975
Zn 10.753054776924326 7.457230359640558 10.923094229159812
Zn 12.07459242570045 8.77782747623807 8.804605011965142
Zn 9.649136650048701 13.389717045664094 8.175594853814598
Zn 8.30823669330583 14.151430898752318 10.13528719308553
Zn 8.852596799541741 11.495586861934108 9.868281246583807
Zn 8.450414826462143 9.550837189008668 11.72398026309754
Zn 11.39727429992322 12.57738610326742 6.506848948763287
Zn 12.199538389646275 10.164706644175636 6.699720954285451
Zn 9.535892910756214 9.06940863268457 9.41114460220065
Zn 9.757332246487797 10.79881684868105 7.470314052132994
