36
Energy = -21.25836109 eV
Zn 10.116980386983503 14.839585641989743 10.892386765215187
Zn 7.149642692207193 11.928230207436286 7.6963636299057665
Zn 14.682710593251707 8.531132912460075 10.494162180424873
Zn 11.05260490198933 9.957635084856902 16.706231497079422
Zn 8.77406778306151 11.05294017436524 16.585900528601268
Zn 8.18783572134128 11.149720167689546 9.889001992914613
Zn 11.681142449922019 10.984331568670664 11.797088395287705
Zn 12.239466616794129 8.009652049391246 10.48506413126381
Zn 13.226423030160175 8.861837154674385 12.745330629960197
Zn 9.726410256669228 9.601195452379953 14.43415645278728
Zn 8.766328585435643 10.20690030840059 12.15547075701928
Zn 12.748147646682549 14.300748936458294 10.583129182533881
Zn 11.00325420719062 14.274811287170833 8.386756922436641
Zn 15.043293149924502 10.802291517874515 11.661822573354469
Zn 12.886358561247818 13.633483432418949 14.70547511860076
Zn 9.224380695415137 13.119901629104008 6.923330428871361
Zn 12.206700931087846 9.968779986361579 8.769586751298892
Zn 12.961974628110003 11.643061269839786 16.25875763398112
Zn 14.94149356609404 12.886798028505213 10.234344834560522
Zn 10.518678514508254 8.244894762225025 12.34556707632216
Zn 11.797890763583071 16.62436655173931 9.971086353131625
Zn 13.681805059398055 11.126834735657999 13.764878218802668
Zn 13.295887552112534 9.16991204020152 15.671286973843348
Zn 13.754879173413789 10.900356107618132 6.70319913340038
Zn 11.556673670656645 7.793583502230258 14.588385788467155
Zn 14.812000134405064 10.56979179526858 9.027341676154757
Zn 8.5028336710582 13.678046699231528 9.343986600840084
Zn 12.919705594356323 12.560508478879976 8.716237768602731
Zn 14.249057971071327 13.374643813177109 12.607067918960777
Zn 8.876428713942516 12.8371227800871 11.91398254282479
Zn 8.226920021417502 11.854716213304393 14.16008341506268
Zn 11.463789174172787 12.021399439731061 6.629937709976962
Zn 11.397574463267237 13.468715277241854 12.620511297010937
Zn 10.062989580209763 9.367973118052756 10.073312414524647
Zn 10.725857418729289 12.213809849071632 14.78793355706289
Zn 9.730352793729079 10.632828699834699 7.86338182251463
