32
Energy = -17.61202399 eV
Zn 17.046955140647242 11.157419933267626 13.0720696621203
Zn 16.088993967660393 12.929258559608527 11.372916609868273
Zn 15.227818560394981 10.315498480593591 11.53235725538327
Zn 14.877187758486063 14.777722527236062 10.047263629366768
Zn 13.618880101298112 8.83181545975004 12.744182960526075
Zn 13.628435705611311 13.59827872226303 12.047355130135491
Zn 14.274163374497876 11.912066832334789 9.781809645472196
Zn 11.979609426735497 7.039672981056338 13.67156072766639
Zn 12.71181882761823 13.822214591151807 9.078493109436497
Zn 13.176191903786494 11.378272705163237 13.175230231560112
Zn 12.829707762501387 9.827293383741717 10.309105281289972
Zn 11.736174912122891 7.722048229559341 11.123886159003211
Zn 11.717448225075882 13.512296855966186 13.823786493345283
Zn 11.155516712807527 13.5785945044895 11.124575922326143
Zn 12.472067036074172 15.480497240654579 15.352102656022542
Zn 11.314003074498231 9.569617971835072 13.755282976443228
Zn 13.308563722135471 16.33364465987006 8.51821800211738
Zn 10.246098040278563 11.654622164620223 14.639676609121617
Zn 12.008669439703658 11.486610381179613 8.506043707482462
Zn 10.698239493598834 10.876061293049668 11.512483958899647
Zn 10.167946574643722 13.432946606310011 8.38323717164101
Zn 9.48606838573443 8.725854531622014 10.448968305405135
Zn 8.830366480508067 12.677218519214831 10.407742528324482
Zn 9.660574768603126 7.213852820685585 12.743695719086219
Zn 11.042436326514455 15.63925951998186 7.476685729173381
Zn 8.728718488284132 9.578374051003145 13.43875448105716
Zn 9.292698574742527 13.262521834988238 12.929654250933297
Zn 9.637082278425009 10.74593413793886 8.695563815513129
Zn 7.477183197155037 10.262926443689208 9.87451263809702
Zn 7.41040134356385 7.286523130522392 11.739016931514586
Zn 6.179062041033347 9.392974831299549 11.878563561006235
Zn 7.51292327490873 11.520111015003142 12.337209060311134
