34
Energy = -19.93817054 eV
Zn 14.655825194074913 9.337023325389563 14.290778091530377
Zn 12.626711182367089 14.900811409368567 7.581205085921469
Zn 8.801090439615148 6.376506502754779 12.5369166096839
Zn 15.131885651390247 12.181881316742793 10.22563155315233
Zn 10.692726723826212 11.19618099023742 11.034370518490858
Zn 12.076827014605522 10.693548219736114 13.312579495763009
Zn 8.659735438243981 9.51701439523528 8.699809887840267
Zn 13.070927539979683 12.563978922054588 11.90407227430528
Zn 10.841114837766108 13.489269891807917 9.193740602749742
Zn 10.33560191920288 11.002695308571104 7.616161282304327
Zn 6.969326155362205 8.135756196941006 9.96354713082056
Zn 10.165592076221081 7.122402991800479 14.750885307917589
Zn 11.383106700750881 14.935820814478543 11.57994995425871
Zn 9.13333678812741 13.523588272951601 11.418521410296082
Zn 8.658553590843159 12.047272899200701 9.33659182540688
Zn 8.589801207942424 12.104241420726135 13.516872621818402
Zn 14.384675389381417 13.021219528924366 7.929993250977598
Zn 11.863044973307991 16.26271804037182 9.489463460400222
Zn 6.8418277943829295 10.264915039672188 13.649244269582312
Zn 15.305569219656373 10.717669584459431 12.30540472616663
Zn 11.840507564042346 8.218364047037275 11.895175214197081
Zn 12.593734714653982 11.415543663955045 8.994521089613203
Zn 13.68192602778357 14.408178995944867 10.074867554221493
Zn 13.39376357355451 9.906854448083422 10.856137854783826
Zn 9.713090254285232 9.655884795135782 13.282129912357568
Zn 11.281021591147198 9.207011570848076 9.327684652712932
Zn 7.745178758794129 7.962003735018786 14.284841718741221
Zn 10.887473335543243 13.046043830439354 13.290993438060877
Zn 7.960332238570827 10.450926750392645 11.279879860181829
Zn 14.140805959868992 12.093136915475723 5.3724821910719225
Zn 12.309935308816417 8.339956755549675 14.369398720216642
Zn 6.10981288276242 8.222418020603804 12.269810149171443
Zn 9.460854774676013 8.192777601726467 10.912744086875175
Zn 11.914766731104628 12.659249140299675 6.680377207549653
