37
Energy = -23.35314477 eV
Zn 7.772684343690956 11.347274021003365 13.47527938474474
Zn 11.645976695141508 8.408359090226426 13.971276303589004
Zn 10.491918553073248 9.291537651833274 9.427764201725369
Zn 9.024322260389258 11.016273122581012 8.351184937651244
Zn 14.94544227789623 9.133900874055277 8.621991911910206
Zn 9.239518007892798 9.295555722940692 14.30520661012366
Zn 13.172343224396897 13.18533203122273 8.304165854128266
Zn 11.109209066762316 12.01928768798054 9.952607943604836
Zn 6.882031704595721 13.638664867495025 12.086244440236365
Zn 10.60845021723133 9.947512930717544 12.001865681630715
Zn 11.621976753420526 12.36296659909152 12.587332223601926
Zn 8.863830422135546 14.13207734471261 10.43899819281156
Zn 8.519687353812316 7.872049392517784 10.135069820684267
Zn 16.015051643753704 9.374369280983187 10.940113633649021
Zn 12.79396150606414 10.665718332115024 14.220195567466394
Zn 11.291576995128054 14.683551734538984 11.35059076033475
Zn 7.00868837182218 9.9552274288672 9.740383967645597
Zn 10.952511743272373 12.57775806831498 7.2347267218362665
Zn 11.940912184471463 7.70153870277018 11.374698763133896
Zn 11.008335711316086 14.64826148419599 8.844763056999573
Zn 9.595281982906135 7.389377471667711 12.436865980387763
Zn 12.893456201360152 10.414005660075688 10.937763273491013
Zn 12.536950757220557 10.621742368033734 8.04650588530559
Zn 14.36186317143249 7.506619762402543 10.597920958458849
Zn 9.401337648459647 13.499020333981408 12.904771270905462
Zn 15.326453752258171 11.398305418864155 12.07541542888021
Zn 8.894067791933686 11.433999037901419 11.049946936551247
Zn 12.646508057571253 8.169133164644574 8.854613800405403
Zn 13.510391110203445 13.244253766813005 10.889853021205901
Zn 14.021851223582773 12.931465704932442 13.525668887559748
Zn 6.7906353143379095 12.620263379072915 9.450467788932185
Zn 5.928126483986386 11.353986883215391 11.605962307061034
Zn 14.826265698326443 11.539706800755118 9.414354763560777
Zn 10.174626360633326 11.607334975729067 14.608495948529967
Zn 8.72511257578729 13.520530526235152 7.951913000314534
Zn 7.622603219319937 9.109539777168846 12.217805671712538
Zn 14.089612390145366 8.904950290195474 12.80102359289902
