33
Energy = -17.95020089 eV
Zn 14.243325020653097 15.69539496394876 14.313590924070665
Zn 13.93610489995089 15.436082447864157 11.828034045217388
Zn 15.547921689053222 9.989058572466641 12.31523230723827
Zn 13.222552345729882 7.898137469534417 11.383159200944148
Zn 11.101292399423345 11.416086087917154 14.154808722397673
Zn 7.796806543343084 13.79621675042172 11.161068519177356
Zn 11.238716194855623 13.106871565373698 17.359781570423802
Zn 8.254720631635669 12.747138142123468 13.42334786722907
Zn 10.219497818761463 13.813380990301193 19.743461084478923
Zn 15.325632018704287 8.846644162568353 10.003430672500123
Zn 10.10256668246969 11.839150639562845 11.815459338599181
Zn 14.726751570518838 11.144814778859772 14.399636049813289
Zn 11.940353623972683 16.108885759041005 13.362007988496142
Zn 11.822565230518132 11.889008182388373 9.769816532743231
Zn 10.448148077495278 16.905981379737476 11.497716215172005
Zn 14.561733469979428 11.47109111619677 10.45482412285733
Zn 9.630678745935771 14.878018820532063 13.102531456648695
Zn 9.537823437773326 12.96977000584753 9.433309240849173
Zn 12.185323206286316 10.324797073394468 12.06089302336711
Zn 12.19317490260976 13.911528406922205 14.727657506131525
Zn 13.702000428746622 8.693963522700464 13.689812202890138
Zn 9.758350304400048 13.352451833860025 15.344233579043408
Zn 9.259848868582072 15.452619999449885 9.870207434440283
Zn 13.472515767585223 12.687787182757438 12.626361131014079
Zn 14.607571101308066 12.85937162737554 7.800043451251045
Zn 11.495184128131749 14.152652144678772 11.268550574085989
Zn 16.636038168496746 8.58535947243132 7.804179013689919
Zn 12.87319686389726 9.626659593563705 9.511219441799355
Zn 13.351372623554948 12.052813108436336 16.597190340019463
Zn 14.97903079502095 13.5345527490475 15.189363193655351
Zn 12.53330046751702 9.883509639385174 15.547958277048888
Zn 14.679680847882883 10.328787074838347 7.6618586358354674
Zn 13.685605797208494 13.820004183973163 9.977359869732974
