36
Energy = -23.35582077 eV
Zn 7.946884439748174 11.017843773713361 15.235940680660706
Zn 11.247232923839091 14.073520462695116 14.729651980438085
Zn 7.712855799348215 10.792421448468533 10.95739867813217
Zn 8.617228054788661 8.177096650923058 11.086041750422087
Zn 9.693657490094965 11.44668755162731 12.664222876212367
Zn 7.9337967901174675 11.796557129922393 8.660137698691162
Zn 14.354501543679989 13.886156281237561 10.637238339114589
Zn 9.447228886592905 10.905570363736166 6.860379424152317
Zn 10.503221516285558 10.890241262855186 10.357010320750115
Zn 10.588733948099753 11.562500947579574 15.265250831074939
Zn 12.83270568399724 14.387742028551067 12.710209964703353
Zn 12.268669585551462 9.545967906853798 14.489077760688089
Zn 13.149916522785396 9.137412016802815 11.65997634887672
Zn 14.832595094170996 12.837846356174419 12.912636038151225
Zn 16.37167525903884 10.906020185731093 9.08174246678844
Zn 11.06419971424929 8.188274585543148 9.975090920544131
Zn 7.821118013803977 9.380035827834899 13.173661305830803
Zn 10.557830591468864 12.732998500708797 8.325079441534273
Zn 8.694047105171686 13.359872324390336 14.56501462669409
Zn 14.418086553384885 10.566680856227446 7.469002745939132
Zn 10.762477743334145 8.794165530205658 12.476473125999455
Zn 9.70194664941663 9.20502010872813 14.84120817717048
Zn 8.993845987613504 13.23789579586809 10.46003793874141
Zn 12.730942528597307 12.476686701200743 7.000042754670187
Zn 14.487001694400487 10.344076263865418 13.592877781002986
Zn 6.9682386877456866 12.119727747850893 13.067131928751746
Zn 13.443597135050581 8.795366819678707 9.074020160962679
Zn 10.12950167641888 14.201664538138196 12.480400374365297
Zn 13.009951845401075 11.513358638387249 9.838513042158407
Zn 11.493214547025673 10.04762055297057 8.041035487281931
Zn 12.982884977616099 12.179877046176193 14.651093053957036
Zn 12.14746473956451 11.694760061768806 12.210917381829129
Zn 15.228703159161732 10.949884092051686 11.275421600729823
Zn 8.86099726985438 9.299840662980204 8.85049782858156
Zn 11.63272085628207 13.8625749643267 10.39435804940693
Zn 14.925741972924873 13.108806435513598 8.327383070721625
