32
Energy = -19.93708854 eV
Zn 13.957525300656387 9.75659702202422 17.523888174321634
Zn 15.17781561498733 13.694402850576065 10.665541064039266
Zn 14.384119570352413 11.158159072120505 10.652441377490096
Zn 11.682499733310319 15.481882543323648 13.13358527802034
Zn 10.574844820966685 11.742343842886553 15.434456781225215
Zn 10.786444684865463 12.29093952328318 10.188008408730859
Zn 15.195305470326922 10.686049547343233 15.177813330434896
Zn 13.236161176926124 14.959641857898841 9.179991358656084
Zn 15.212531243594487 12.080614977486691 12.898801110156997
Zn 14.03657791327529 9.739079286261092 12.966543426108496
Zn 15.877846518455065 14.61910764864117 12.98662814640215
Zn 11.599274227984267 9.739764079448952 16.614889613841054
Zn 12.82844090201592 13.208624156747108 11.900953207097494
Zn 12.49634521934155 12.00944208212319 17.404357815426437
Zn 9.844543018071493 13.94105744314614 14.191808420315546
Zn 11.944285383553865 13.113211205834205 7.669677252466566
Zn 15.185763760142354 11.969707936788046 17.512051355142773
Zn 10.681431264238249 11.925587882068465 12.776451758885393
Zn 10.561604180086416 14.739009920855413 9.050953449910967
Zn 11.674769603752697 14.164051696732823 15.892486380209936
Zn 14.320367427902042 12.759902637326173 8.471135811918652
Zn 12.531597885490488 10.904021044829786 8.891811479988444
Zn 11.654984075931868 16.355632776529973 10.671561296069994
Zn 10.01419054960201 14.279538829613978 11.604422175550685
Zn 12.050538496966173 10.210697640208348 11.331061258464644
Zn 11.59067241193762 9.763922037560008 13.929185010218294
Zn 13.532116405003377 8.654517958025558 15.236586569973058
Zn 12.98913651024392 12.191914204886416 14.382476203382572
Zn 13.933257875655471 14.136955678638428 17.047443910778625
Zn 13.75475297354153 14.855807214162072 14.50443734968473
Zn 13.900303654229225 15.75840531289995 11.822758986731754
Zn 15.673212392150054 13.256203039978883 15.208510269624986
