34
Energy = -21.46521768 eV
Zn 8.143891171193577 11.793420020510226 13.575915501362745
Zn 12.521577709345665 12.593656708476225 14.317383171131416
Zn 13.87091310243336 9.657043643474614 11.23470992805626
Zn 10.060538196938328 10.115955258715925 13.636839674409426
Zn 11.117006274587663 13.21608977680775 10.404037657259913
Zn 11.89913898042977 11.988906134726996 8.258909979781066
Zn 12.315157218257992 9.776053139443135 6.889092931268319
Zn 13.824371041783303 10.319577330898246 14.415711525645117
Zn 12.289969716542736 8.717472715227684 13.176377235786061
Zn 7.013275128089033 12.067426372887649 9.29495539387896
Zn 14.58467918773886 12.162547697841841 12.672070291145172
Zn 10.15491085434174 7.148282884840536 9.53993429429071
Zn 10.06048833854752 10.820476500126716 6.552970544690222
Zn 6.4363906362039724 11.698726636354557 11.705942203384687
Zn 10.010689001725932 8.109227224757316 11.957523435366545
Zn 13.99430948203857 10.15410690687362 8.73341037518732
Zn 12.549567509504591 7.724970163848399 8.362263992550139
Zn 10.304552024510164 13.030730481584273 13.040613307985584
Zn 6.281203413659743 9.068881364214104 7.629371979717416
Zn 8.115598194789193 8.940617826216897 5.933607601993174
Zn 7.823183251244002 7.457655428903793 10.634012135130204
Zn 11.809517489940719 11.18282862230646 11.971287463168926
Zn 12.405910984215945 7.521988058894393 10.941162587299335
Zn 8.93898521154148 9.663330440856303 8.825493377790586
Zn 6.55601137521982 9.65269548281378 10.141871686229713
Zn 8.581636139905834 13.259260433031157 11.096154008558957
Zn 11.339925560118886 9.783115268302119 9.771185753759905
Zn 7.547669358791405 11.294623899270226 6.881097439205116
Zn 7.99204262441063 7.1400111993044035 7.985349170642531
Zn 13.63818219608256 12.175823272810439 10.255714612350044
Zn 10.287026683167477 8.101076954827484 7.0231195122689405
Zn 9.374550871114971 10.760658721331474 11.015236162676903
Zn 7.668099482727636 9.28853474095509 12.472951289608629
Zn 9.407210904367457 12.532408004076212 8.571903091930164
