34
Energy = -22.35395303 eV
Zn 9.292689343750533 10.696192052333169 8.675403889289774
Zn 6.5824330429288604 10.90048969691051 11.018026522033871
Zn 8.886090117205184 13.585841283085603 8.369652712944111
Zn 10.703825906350916 12.40290098020252 12.529934734278713
Zn 11.870472276367837 8.375893523680848 11.628980338628024
Zn 10.94802669266435 13.469064909582011 9.96151395478212
Zn 8.672277563322968 12.55022944284056 10.798805928451587
Zn 6.980234142562417 11.866467025842407 8.690370858977234
Zn 10.4634220867109 9.785764652759523 13.371432021870925
Zn 12.732951840935595 10.686484145557818 12.701433904671623
Zn 10.26362783664223 8.467118878490545 9.301922998513822
Zn 12.18257975316182 5.710126208486278 8.188205021487681
Zn 9.99084354654452 10.021902868896534 6.155297500743368
Zn 6.85947401814864 8.026308155731767 11.601005447284393
Zn 7.411100053581011 10.082910556379025 6.631420814566331
Zn 12.871264293149586 7.964748869530241 9.147251521459278
Zn 13.578962219024266 10.221418793592166 10.104860489183936
Zn 10.926457659043633 6.144662879072154 10.432789220221292
Zn 8.22447279864754 8.689927773634054 13.932436169117027
Zn 11.065228544648805 10.780058945892778 10.419430110207006
Zn 9.709883349004327 5.7387834113486775 8.008223390279342
Zn 8.252184811088789 6.775115352773179 9.861175833238839
Zn 8.922773700677862 9.656997548680904 11.109926025564153
Zn 8.584832194691202 7.9030081256835185 7.211577741660301
Zn 11.221049695273694 7.7973041683948745 6.872847732700904
Zn 9.503261774918101 7.29949095335125 12.191122045938812
Zn 6.145909779272938 9.868433199210198 13.29520711395269
Zn 13.21292054527118 12.770822798872029 11.350262489947623
Zn 8.458731670931625 12.348852852882093 6.226234852061054
Zn 12.086438422394167 10.13386146623417 7.774590403740992
Zn 10.915875347198055 12.418733350762746 7.316167328389506
Zn 8.353197211265151 11.356784023362666 13.1212032740512
Zn 7.062028457250008 9.034811461621072 9.076405588025496
Zn 12.99552668498466 12.399537023936439 8.855929401351771
