38
Energy = -24.28547875 eV
Zn 6.609529768168688 9.178022663707269 7.08368069613366
Zn 11.0967789693384 8.659005181684268 6.814435416665344
Zn 8.927075748057177 10.374447018288848 6.452892488933058
Zn 8.55104843436616 7.688204768363594 6.73035798592787
Zn 11.352647711944604 11.379559421545904 6.87179098862064
Zn 13.157255372569965 9.7925748179797 7.847150454975638
Zn 10.259220305341307 6.61714088900624 8.425636839753402
Zn 13.062183652612918 12.332683518818918 8.687959603085705
Zn 7.739608642368748 11.326672229980296 8.65169549671589
Zn 9.300635548555041 12.934189392208054 7.456310998512002
Zn 5.55389410894739 9.99343518910128 9.228744703220038
Zn 12.823124495164583 7.237897891708161 8.19070873746065
Zn 11.513865595285406 14.085124217223742 7.453000029334025
Zn 11.682557160297637 9.060899255106216 9.861253268353266
Zn 14.022056850016401 10.42420175176116 10.189592070305169
Zn 7.362358859724157 8.168010174806517 9.683865598607373
Zn 9.475831604485075 9.284222714703787 8.79468627826754
Zn 11.532674950667927 14.346686094997464 9.93986754071595
Zn 8.916450321892217 13.277326708371925 10.122629317420087
Zn 10.709018274332431 11.489136414255647 9.525555768959297
Zn 14.009691084716591 7.930237343727751 10.73001084743631
Zn 6.549010848321413 11.827185242191039 10.918861238806771
Zn 12.05104853167912 6.236508401626907 10.383664529909803
Zn 8.74152553437354 10.353545214618284 11.00326410245302
Zn 5.653592682986568 9.581923197216268 11.709521752093906
Zn 9.76125153796992 7.565058012332184 10.964750918861569
Zn 13.05290795322074 12.567985888654109 11.296494486126731
Zn 11.13321569154627 10.514257305469789 11.814814702717618
Zn 10.650626219593612 13.140178679859178 12.101661420529176
Zn 8.226439119684024 12.622484538507464 12.615671737384051
Zn 13.772654098688625 9.88749609387678 12.669858074972545
Zn 11.924795226099913 7.865911705792423 12.466438257287917
Zn 7.574012358318954 8.093199472191326 12.247693553037337
Zn 7.456631719976508 10.39001086405062 13.516202076184113
Zn 9.682093840359663 8.904494978431618 13.412420032012912
Zn 12.539614838731566 12.024116844607462 13.79812899504233
Zn 9.887350883928342 11.395031251005515 14.142527368930448
Zn 11.931514051010915 9.69672724756613 14.441994219589535
