38
Energy = -24.72315279 eV
Zn 15.334408139944538 10.497544775185743 8.79682869785044
Zn 12.18210516482573 16.636893146171253 11.925945962160888
Zn 11.209971307705947 15.695903247560882 9.757473527203603
Zn 14.074798481720427 12.757804047149472 9.501856019674042
Zn 11.471453702570175 12.977771856597245 9.022905402050185
Zn 13.61804949767629 15.186002548383094 10.406868006532262
Zn 15.262086332659603 13.627899599125445 11.57130661957936
Zn 15.821885202979054 11.181957008377438 11.226754536070016
Zn 12.75067213867744 10.589777493512674 8.931281258744324
Zn 11.445855305110204 15.705529262065166 14.138277876543537
Zn 14.210299609927368 9.012437196375659 10.63932989182036
Zn 14.880695565873408 9.671039146019975 13.029574445664672
Zn 9.76760438121856 15.517318544683578 11.930834344478823
Zn 9.168552677005996 14.15971616573017 9.642077597239634
Zn 11.69553037423828 13.502579325401495 11.712125677496237
Zn 13.65117635441905 14.742721302212358 13.267052529395476
Zn 10.275082452523847 10.509937905230219 8.331544416124414
Zn 13.017318841944912 11.337689120326074 11.572995794440933
Zn 14.578674230967332 12.251314439304709 13.566369691760682
Zn 12.75799829506923 6.9949134468399174 10.149802294429822
Zn 9.016684065294351 12.648240886030694 7.595959486585385
Zn 11.472128479785182 9.337505055773434 10.967618867019512
Zn 12.103760488863545 12.777447018607875 14.257129357097007
Zn 13.111090945914606 10.357781059682535 14.68971012552255
Zn 12.794208999750605 8.201306768375336 13.166377321000876
Zn 10.209193218779026 11.575460156947955 10.963393840641114
Zn 7.729310853376939 11.785818455687389 9.649298277619915
Zn 11.156192161182407 6.4690393446833 12.069187049930932
Zn 8.525151459915724 9.261001073136988 9.635641321507705
Zn 10.143643287362359 7.1945780980169305 9.746666736098804
Zn 9.630731290576232 13.992494038369452 14.007525405873839
Zn 8.309559709185068 13.243770765556206 11.827386718538872
Zn 10.952323318554956 10.59210963747932 13.29422962163615
Zn 9.03165234265088 8.018961085886529 11.93324835908801
Zn 7.904014869081486 10.44506509350878 11.832606183834423
Zn 10.486096696118842 7.553579192347725 14.271864365253293
Zn 8.636518766605585 11.764021832124273 13.90277229248713
Zn 8.661362757172897 9.272912628762176 14.116021848233382
