32
Energy = -19.66191559 eV
Zn 10.057794266013634 7.882217595220773 12.137806971016106
Zn 11.163330791944713 11.164216293472366 8.204593863241339
Zn 10.692409329320837 10.025117139794553 10.863106052954333
Zn 9.331822051807231 7.345492560211897 9.546099154733591
Zn 7.568807458822443 11.36899739105831 10.516414834395736
Zn 9.216960816249504 12.558938967677735 8.95179949428791
Zn 6.623480567960667 10.459689976837513 12.797918957879075
Zn 9.654149853259913 11.876622986381118 12.536516350117251
Zn 11.304529093199902 13.810274217883375 8.10382798734716
Zn 8.19210441275316 13.740533028141892 10.943079040810698
Zn 8.031021448262768 8.945305534421983 11.061290102038903
Zn 10.478690710133044 14.988058857570225 10.216513344499761
Zn 9.737161765840895 14.548606229744134 12.667390806116943
Zn 8.85910293702649 9.749663526569778 13.704285469974632
Zn 8.90234180194113 9.886376514358583 8.739983233852255
Zn 12.674955527797502 10.46696048877184 12.51099626305658
Zn 14.149349611629988 8.586656215013111 10.94218504304226
Zn 14.76629650281413 10.957586988002015 10.49990128376151
Zn 11.857071200074254 7.352590582339556 10.217356571524554
Zn 14.298829904020396 13.376193569303982 11.063116997678033
Zn 13.430920129230852 12.439033955196326 8.738476189271145
Zn 11.023145574394288 8.511794393049943 8.088132906067901
Zn 13.109545857393753 9.763753348572555 8.95299442823452
Zn 11.624465844048169 12.313344828439966 10.850806648283529
Zn 13.004165173173888 14.980654622564803 9.552052000167086
Zn 11.169797429951643 11.154145392938371 14.705655780786671
Zn 11.200714132057827 13.605227210949854 14.394569359115218
Zn 12.28078085411405 14.437780027912932 12.15273610418875
Zn 15.696484695589668 11.864872653715905 12.798532930320132
Zn 12.601936897139646 7.802258313233458 12.677502767669766
Zn 11.087375116368467 8.709734803690404 14.398749279615023
Zn 13.460042357588957 12.576885730999118 13.715193727990489
