30
Energy = -18.54304366 eV
Zn 12.911596395605988 7.776768724953549 8.697132919217974
Zn 10.69393237534644 7.261873990200522 9.774380305890562
Zn 13.545323239102167 10.142884788638803 7.982135816918024
Zn 14.027323111889975 8.487447966029864 10.846166725326093
Zn 10.826254333337495 8.817945014216738 7.560565346278478
Zn 14.370172848961124 10.995443989579677 10.267191887101308
Zn 9.030712192417901 7.870070301939854 11.566835132726425
Zn 11.55598073453286 11.291863825028546 6.836622278396018
Zn 11.841738698098565 7.820214978626269 12.176578812791366
Zn 8.72737303528796 8.808045566882234 9.147441301297315
Zn 12.808951195101056 12.588175694556336 8.873843443788223
Zn 11.672448262239785 10.020322660934088 9.964665539514533
Zn 13.522978650286325 10.264460981482117 12.673651281010025
Zn 9.061956073466026 10.743277770744847 7.312503485847359
Zn 9.655275956149723 11.398443659918629 9.982923246417586
Zn 7.218464460823278 9.660084401312902 11.09121740745715
Zn 12.626898316382498 12.518344904517543 11.483023563930493
Zn 10.341098032558955 13.25270075030259 8.033457798433565
Zn 10.482853052454645 10.364792085795363 12.053469486005449
Zn 7.079123532001591 10.988803150427604 9.008928505069013
Zn 11.699244106379188 9.649106623470164 14.488902337299608
Zn 7.800679279774409 13.130084296160325 7.98932792982142
Zn 9.933891754171674 7.996787971626877 13.97594130150399
Zn 11.16918364108652 14.130114648198992 10.22904527137312
Zn 7.7085388073246195 12.093529767801146 12.181788173409975
Zn 11.95284015698319 12.075358225483052 13.85970624028412
Zn 8.574736646787533 13.796452999560216 10.347200263106021
Zn 8.099585474978774 9.702068000809941 13.42952552598256
Zn 10.164213198681374 13.381528955517574 12.450213624305725
Zn 9.48478073493308 11.59524636613068 14.323187134695571
