32
Energy = -19.44669084 eV
Zn 10.890080951047153 12.495616279357517 7.971790942574138
Zn 11.245908176727493 9.756135164928137 11.710013621952267
Zn 8.107348782994709 13.475115301728254 11.13778460518375
Zn 6.2416408341508625 7.538197834291526 8.67496989520789
Zn 6.6521014254721775 10.055410693763497 8.924417266601907
Zn 11.851534702928245 7.303965029708222 11.006479482500065
Zn 8.003862509958497 6.959266411474882 12.888563461458874
Zn 10.53475184468914 7.641838351627575 13.311823774373552
Zn 6.8620872172958975 8.477054632521824 11.06557919343653
Zn 12.634110017475507 6.887917658375518 8.604437967979438
Zn 13.685820646221975 13.420820884357534 10.771082141777937
Zn 10.56461181803886 7.249425386388485 7.085687390595454
Zn 14.447154129269496 12.701603843469176 8.457492854792056
Zn 8.23900173496496 6.386833238798971 7.719421984568829
Zn 12.063842823552532 12.366556011321626 12.479101094289804
Zn 10.21263430131023 5.9193803920605035 9.296901572014493
Zn 8.344518265508311 11.592499225805998 7.213513373204307
Zn 10.696638965719673 13.460470022784117 10.492046716342376
Zn 9.477007885037537 10.924171565547494 9.73578489341183
Zn 7.1822364519676665 11.111212153495508 11.338442561512702
Zn 12.27195482407987 11.341154134907315 9.934634621968527
Zn 8.783792439833029 13.660162752256134 8.680138708658447
Zn 12.953853098991397 11.271865182568428 6.9868543737493365
Zn 7.746757838359265 6.151454073943686 10.385619045680713
Zn 9.604087455733643 11.86031945889252 12.43426398595659
Zn 6.581160847393869 12.584931234576503 9.168417266418299
Zn 11.453557888822811 9.280756913187554 8.689763473788739
Zn 8.78549724764392 9.071566688318237 7.748557220414043
Zn 9.415617837858296 8.325811671925836 10.18896155412034
Zn 9.93848009184608 5.68729707218633 11.831155692001856
Zn 10.593384745043517 10.472096007096548 6.363667271181574
Zn 8.787119605467142 9.421252133738147 12.554789397687093
