35
Energy = -23.15188383 eV
Zn 11.3404150461966 6.892774620457875 13.678775914130814
Zn 13.101808883164612 8.278781573093651 12.363841820288643
Zn 9.342570688802414 8.59872324300429 13.851204900903626
Zn 11.70034187073455 9.388609072381586 14.328944198821365
Zn 13.120309221038516 10.904792014215452 12.909912764516347
Zn 11.26658403431663 6.664787403221638 11.098423449310255
Zn 7.393060659558079 11.990769902754845 12.399061949073815
Zn 9.436619067406786 13.520450144669804 12.209881208711344
Zn 13.302961791273024 7.612553974687005 9.862240001066793
Zn 11.744527551527497 12.988682735610501 13.346974559259959
Zn 8.819050969186895 7.4660819058311985 11.652925348594344
Zn 10.887105718089641 9.308613174958136 11.363080736835027
Zn 13.280092172675873 10.176163313946718 10.462559419101359
Zn 7.347049204364403 9.438261511766425 12.392705544437504
Zn 9.830760153862366 11.046011047758235 13.055966557216177
Zn 11.134439470935993 11.825963747617749 10.778385445867068
Zn 13.524320527789035 12.916996897533236 11.296236911786357
Zn 7.153855771479363 8.662084044213223 9.826850396002987
Zn 9.609056110725415 7.877056506473026 9.320887256847252
Zn 11.61640021457957 14.9527957782501 11.753383788882392
Zn 5.717797966585214 10.71256657173095 10.81933011700929
Zn 8.87622396816599 10.595889919432427 10.473434751097468
Zn 7.23786145049289 12.72828709913911 9.957032957736574
Zn 11.658534026628026 7.380056046175858 7.923137213392261
Zn 10.88527744046254 10.130745008606869 8.854484042348234
Zn 13.363081819576855 9.323308859800925 7.91664991139945
Zn 9.684037302179552 13.725500448129386 9.708768037335652
Zn 13.454964030247092 11.983053638520108 8.669407233114095
Zn 12.361801603342847 14.26856475559692 9.474881847428863
Zn 8.51494251134152 9.312202578488332 7.47775663151424
Zn 6.428348133616512 10.698042189214068 8.395234908571464
Zn 10.682137256394135 8.980709281203584 6.070523699809398
Zn 12.280662503435341 10.937863620821453 6.33529883136509
Zn 8.795455618420277 11.781953084239124 8.093185847777775
Zn 11.119843269571259 12.644089859328135 7.854520886438118
