39
Energy = -25.19256166 eV
Zn 8.33122403373102 9.541387273473724 5.911304579911499
Zn 13.790779707241954 13.246324602751432 11.414992740535624
Zn 8.810670275142119 11.761637185488077 7.355522927399761
Zn 9.08087814190027 7.544863665027034 10.130969274782508
Zn 9.106340441104626 15.606315420678177 11.201839616921903
Zn 8.295204399397573 9.709998028587624 8.957180796673768
Zn 11.055129214170538 12.886062197188526 6.796116965035447
Zn 10.813816710840367 10.33354100844636 6.306031866615875
Zn 13.226073330231294 6.285238308401792 11.298827218954408
Zn 11.909864914744805 13.391415087147548 13.33364496796151
Zn 7.130184441045265 14.117383886846621 11.642097408704645
Zn 11.58426683730045 14.653451851152465 11.036302284695246
Zn 12.978385869224342 8.37180535269569 12.945987418238596
Zn 12.429907640404263 10.69079432829708 14.066083703045678
Zn 10.285594124582051 8.224627836067425 7.884191486218752
Zn 9.982550560536833 11.46258298687409 13.945681752480493
Zn 14.111048232257149 8.548452159993843 10.598817505306526
Zn 12.717574043537319 8.93455895028927 8.426053524113879
Zn 14.247803140558789 12.543501481871802 13.876407658342401
Zn 7.878851822998966 12.15180091967845 9.817051184218869
Zn 10.48664533162398 8.965750637217102 13.375339034353146
Zn 9.996193617044476 13.464979103997424 9.098135880020859
Zn 7.872946582344601 9.807038857131888 13.45593389606657
Zn 12.979743082057267 11.306655891349584 7.307359547659558
Zn 13.850158403077083 10.969695037778497 9.738586416780164
Zn 6.964382819368524 8.853922372479856 11.161205670993887
Zn 9.695208192259207 12.905012121883829 11.7460629860596
Zn 8.145010678718391 7.136514778940691 6.749994545801789
Zn 6.391763656760692 11.294138250053436 11.692323945803508
Zn 14.419207583272248 10.57608211278569 12.23593623319804
Zn 11.337404931906725 8.958685002832393 10.776678789939554
Zn 12.516452753693038 13.119488320958553 9.162374132759664
Zn 10.781091844073762 6.524401888342507 11.925293342730923
Zn 11.811613586846779 11.374103555467954 11.448329807400578
Zn 10.79644475871343 10.835372270514982 9.1099489521517
Zn 7.629028494312742 12.414896888539085 13.610348133489175
Zn 11.605449298064286 6.559324095536626 9.368124189791411
Zn 9.334648587573978 10.3941560302209 11.327508824429803
Zn 8.490061593073195 7.403643928746359 12.6350144661469
