37
Energy = -24.84959276 eV
Zn 14.198127255335304 11.292539114689443 8.349642886044169
Zn 12.765105207974967 13.35009323754792 9.38977052100909
Zn 14.74794500595311 12.421487817780104 10.767360562927273
Zn 13.016792628497567 14.382792499728865 11.731329801667485
Zn 14.956130374312801 13.227812429721146 13.181218919987748
Zn 15.100651585999932 10.748049821693284 12.824441546157708
Zn 10.752070375495371 14.704936409325912 10.466073459558764
Zn 12.685966983724834 13.442165851628667 14.16434120534477
Zn 10.518364724812256 13.966897708798676 12.887710713566523
Zn 14.083578242619048 9.862176259499964 10.670556568345768
Zn 13.41142621853579 8.813713136410412 8.397688733554537
Zn 12.23170365606853 12.11596932270872 6.932618676445009
Zn 10.378793858028114 13.076211873385317 8.396891040655067
Zn 8.329233043286058 14.188383965465608 9.426232379727658
Zn 11.66573444279252 10.794229886745324 9.553909886074694
Zn 13.084077584753674 10.836392556059934 14.415624260784927
Zn 12.330945105179165 11.762937744612728 11.804600888439234
Zn 9.824424750866458 11.992618449877323 10.946606697023897
Zn 8.27389501161971 14.65419749482903 11.82299784485912
Zn 13.42338094471222 8.724538540656802 12.961681324204768
Zn 8.03263492404801 11.693508242976723 8.95002075775714
Zn 10.62805888428466 11.5877801984755 13.929421528862747
Zn 9.972977754103445 10.644217944461506 7.489012905686503
Zn 12.173150805211995 9.678680257991724 6.426094361295436
Zn 12.433570406851917 7.845096416217293 10.623924450642546
Zn 8.259732266655272 12.395412221063594 12.994335598308446
Zn 10.828916457691603 9.709824451514509 11.75724938876817
Zn 6.670190954446831 12.680199728658096 10.90820789685743
Zn 8.650903755599607 9.930588655365005 13.264608724722423
Zn 8.917439781002233 9.54924309865032 9.917804066333892
Zn 11.029942511320256 9.032559139491992 14.340592532510538
Zn 10.865051439803983 8.37349391356873 8.533735513302329
Zn 6.025263829745103 10.278325443310907 10.856454000685611
Zn 11.485834036518847 7.002766787876526 12.885318829435976
Zn 9.068702763331919 7.43734859384329 13.32262219310034
Zn 9.807241124768069 7.32184654007081 10.848531970732596
Zn 7.21628200156561 8.285816890327373 11.6977809500511
