36
Energy = -22.90416819 eV
Zn 10.071099978232034 11.44786160273475 5.6757862947316235
Zn 12.315119407405867 11.245487538370861 7.135771163036369
Zn 11.270471910274587 9.237307370343897 5.958017026847362
Zn 8.81353649745389 9.391766631338063 6.667722415624428
Zn 7.718629522275171 7.2218375438996905 7.495632981081729
Zn 8.299053306486615 12.009816436012132 7.499346326051231
Zn 10.62265413625159 13.333594936657319 7.199586794132141
Zn 10.328743954305372 7.111390326243376 6.968483480399103
Zn 13.4311923224021 10.694708531668047 9.474745566611064
Zn 10.26723263707083 10.771918168322811 8.840848853961512
Zn 7.230742550968423 9.873185820617868 8.653579647050366
Zn 12.36948166703197 13.071415392830954 9.01756444022092
Zn 7.83231426820752 11.982550076142395 10.134294556198167
Zn 9.065841085613933 5.4844016112944365 8.616300174126078
Zn 12.221344059055543 8.658469965877131 8.215050665716143
Zn 9.874292181352917 13.708729946485157 9.569458895846962
Zn 9.522560190421864 8.448729749396229 9.309152195753928
Zn 7.252669277219504 7.146937175872607 9.992580586607152
Zn 11.230239082700457 11.398120644262345 11.05548294532924
Zn 11.262461917013066 6.492753591654242 9.548049764841053
Zn 9.231633918204249 5.878838943400259 11.113779408175695
Zn 13.909196491510743 12.812733709437913 11.064121260299988
Zn 12.044005245756745 8.835091877860942 10.759650644786712
Zn 7.847740280797916 7.609339376095064 12.454499282449401
Zn 9.186508458026346 9.984901775379873 11.257894522969902
Zn 6.479884064830506 9.655294675270767 11.07395033213709
Zn 14.048945070242567 10.418151960029885 12.04760188601855
Zn 10.450607541491662 7.684496369757451 12.453093572215012
Zn 9.138089605146732 13.46836074076274 11.962530159594657
Zn 11.653011806723717 13.951284183759915 11.594439203253513
Zn 12.793565140286486 12.286888482367052 13.327917970790812
Zn 11.89013017935332 9.725036083051753 13.303603667682966
Zn 6.665968301604162 9.520315701788425 13.617901650764786
Zn 9.234602829068931 9.47239557043551 13.894662452279956
Zn 10.275237184852468 11.809602038144432 13.567989730501846
Zn 7.729575204125121 11.734666726197009 13.057290755676497
