32
Energy = -20.64227961 eV
Zn 11.724960950034962 7.480353190229927 9.238180741683648
Zn 9.388600077113226 7.192773639474937 10.082977251210231
Zn 13.700791297415963 7.8888116553542185 11.243773641700201
Zn 9.4944182861364 8.434629799908311 7.813351479829387
Zn 11.300233749524292 8.253078300934542 11.82122701914348
Zn 13.185772481968893 9.377857551949 13.488206947216337
Zn 11.87908579216754 8.949789501299096 7.089624677314989
Zn 8.006004580279686 9.35471370491701 9.981655713887294
Zn 8.914149192577634 8.590527100146863 12.317296610262902
Zn 10.69770577884077 9.509640195546893 14.021182577233015
Zn 13.311730973206393 9.548367342394528 9.255981544344493
Zn 7.035807115517418 10.248727868652471 12.287097873268488
Zn 10.648054116254636 10.178341078230465 9.588812083012328
Zn 14.718791508168556 10.221883518403345 11.54948110798005
Zn 8.12930802434567 10.791534555360377 7.9044452029780246
Zn 8.779908390224719 11.165998032662513 14.084783662860529
Zn 12.145784655735579 11.007356269232435 11.361671874842816
Zn 15.294551078447887 12.72997782284506 11.894088058730011
Zn 10.199612503255379 10.751816892775155 6.5737349144912995
Zn 12.395458422414377 11.476825671926429 7.658020280514914
Zn 9.657280284720903 11.418242857520415 11.486354297408825
Zn 7.2904241308896385 11.804735516999864 10.152814278419434
Zn 11.991493968477243 13.229912153155441 9.393719759952537
Zn 6.954740593228088 12.650973069177406 12.855003329127669
Zn 14.198443606686057 11.949112955145948 9.651544165156714
Zn 13.799574594990595 11.846411377039 13.763836736666368
Zn 11.25483535988332 12.161463922893512 13.605681445246153
Zn 9.572855078622672 12.753701663478944 8.886849404825398
Zn 9.252686577976428 13.671858050498768 13.322241364431996
Zn 12.881871821111831 13.574036619375294 11.949256539884285
Zn 10.582145528079533 14.299091637900771 11.149845108057148
Zn 8.106950308918227 14.007005283560344 10.987869240290234
