37
Energy = -24.48552798 eV
Zn 9.475881939031144 7.247040219499615 9.114941434738451
Zn 8.822913454908626 8.678929587549531 11.462227705461801
Zn 11.230319272634873 7.220589121847898 10.984331511630712
Zn 10.30868919913226 7.855354945160179 13.435615398661126
Zn 5.778903163829398 9.954805673219115 10.531999082063889
Zn 11.873829302799036 7.099393922328203 8.447784503776758
Zn 6.8134698586897455 10.515857513093797 12.694244491203508
Zn 6.5770709454589165 11.312156223297542 8.620679285341295
Zn 10.155670705855574 8.979415713471546 7.299672348031379
Zn 10.881170103010788 9.30969429418344 15.505162908382541
Zn 12.642034742073866 8.45045413231736 12.6718075775769
Zn 8.865598248470548 9.946987877466617 14.029381486937963
Zn 7.884908931775153 9.188222985391514 9.026901270177039
Zn 6.373944392525385 12.535030295490673 11.102985265982719
Zn 10.830175286979177 9.794772941261167 9.78483576403499
Zn 13.321948936140327 8.824364732021754 10.060955714307834
Zn 8.904650792705347 11.25680862307665 10.685535983645345
Zn 7.608992992638936 13.58652508922496 8.943755028176515
Zn 10.282503144121591 13.080933554930855 9.309046847006273
Zn 8.647793861392591 12.349889554694824 13.152583382041966
Zn 12.734357979599373 9.178698734967933 7.44120979397937
Zn 11.501116713221604 11.456738767728533 7.639445704208886
Zn 8.987372966796052 11.284329555037814 7.861771084064493
Zn 10.768349639959203 11.90706785108585 14.550818757749065
Zn 12.462290552065873 11.6222570573147 10.539823778491884
Zn 10.86991391128875 10.530259237910123 12.233859350163108
Zn 8.422807969336427 14.143881026360654 11.249420395351885
Zn 14.208746984709416 10.301067758431147 12.226793561075784
Zn 12.855186483403104 10.409717017830209 14.413292822464447
Zn 10.774261058280432 13.292914109829619 11.916248501057115
Zn 13.950108396324284 11.201214204146355 8.309760779376528
Zn 12.736141501929202 13.66893510812782 8.693429739915926
Zn 15.611780550352332 10.795849608241713 10.168495011115873
Zn 12.954202134236706 12.69122063862274 13.183188629585551
Zn 15.261147294535071 12.642714246157112 11.960694034464357
Zn 13.328417577320737 14.290728557231727 11.131334940046601
Zn 15.134755454897707 13.236605963878924 9.457392570139481
