30
Energy = -19.25943676 eV
Zn 14.029039164136762 9.653898473627658 11.354345532388438
Zn 14.237678446684384 11.776238941812826 12.962185407195147
Zn 13.209443471783551 10.066663102595022 8.932141566633817
Zn 13.966121639269362 12.118780241096681 10.422286426293429
Zn 12.952777378033616 12.511407916292777 8.136904906410193
Zn 12.77866601834423 7.819540881974828 10.158859627638375
Zn 13.250381109766023 9.654657061239265 13.859906963190252
Zn 11.87193177822979 7.965239848392396 12.520340412460262
Zn 11.840306244836638 11.97888119040875 14.165496224394252
Zn 11.484072196782265 10.932380755770332 11.766897586051602
Zn 12.70567264696732 13.726007909972465 12.413606895246613
Zn 10.380309728067205 13.10488095866492 8.323018250985935
Zn 12.118216459835006 14.006688953443737 9.994931578788734
Zn 11.313050962372959 10.84859677892342 7.246087224298621
Zn 10.257181115256417 7.5644518614827785 10.539373390540394
Zn 10.81512849190926 9.597027550426338 14.563209477079214
Zn 11.260819856986249 8.43080690704139 8.2430623893498
Zn 10.235769398779661 13.727280103151019 13.047351382288678
Zn 10.27893385728544 10.54196784796737 9.7970663046095
Zn 9.558034194771551 9.150621341177434 6.234666893119763
Zn 9.710607196184352 14.224531897668712 10.618890408636801
Zn 8.668058071145435 11.14946881217973 7.7112700342538565
Zn 9.267505241937945 11.534294738975762 13.997441476707126
Zn 9.36355971080027 8.294631602542331 12.966295441037449
Zn 7.803466650302316 8.28123504385882 10.989351388691498
Zn 8.176612779277514 12.547614014790263 11.845045957996117
Zn 8.667753044447018 8.657071038136273 8.67093313623183
Zn 7.932135890336251 13.006379043584788 9.311282529766466
Zn 7.645471933730102 10.199847544114713 12.603816286758258
Zn 7.345497708097193 10.654825396276088 10.062198631855315
