34
Energy = -21.37367748 eV
Zn 14.563585288614256 11.272290116617606 12.413582506910005
Zn 14.225827981177979 12.823106013064807 10.479133316170419
Zn 13.856446835227324 8.88100410214215 12.476845385638397
Zn 12.561801529135892 10.765816954788221 13.979950094008645
Zn 14.063099283548611 14.492171366120424 8.592840622860974
Zn 12.909533696588007 6.531999202495948 12.359307074263747
Zn 14.286829037516572 10.18749141972208 10.106716193867857
Zn 13.403436914295778 11.868417577225342 8.181876732888403
Zn 13.13102488447562 7.743224777241351 10.143742947423839
Zn 11.509449531615083 8.406884550534656 13.583933849607321
Zn 12.561449982214667 9.49865754737769 8.335921258206545
Zn 12.769866979498008 13.159691428108145 12.671971934575868
Zn 12.294049391517921 14.680609237080603 10.55151242797795
Zn 10.911522952700112 12.90705705225603 14.422090643660393
Zn 11.438646467003638 9.653974284917792 11.048691165372489
Zn 11.633798235928625 11.96220054522323 10.106764898239824
Zn 10.621583436820858 7.113709794222605 11.48012191253726
Zn 10.932613749201492 12.598391273887513 7.5185135687437095
Zn 10.350606452473556 10.126350056510889 7.439958499751942
Zn 10.582770203056791 7.9546762790444 8.945920608806059
Zn 10.242763546704062 11.513088710652381 12.189190240436835
Zn 8.415695418666928 7.82189910875204 10.423779083067839
Zn 9.13647386581494 8.976187729282808 12.569591034348004
Zn 10.077236212867835 10.281344548099225 14.588347998382742
Zn 11.728626050091977 14.948935571994557 7.770822381385061
Zn 10.352677951482494 14.1719125158439 12.136794085597327
Zn 8.310021129364811 13.729006617883183 13.603375413636087
Zn 8.249482589322263 9.253820626790596 8.454599207662238
Zn 9.892794623260038 13.919923658594355 9.55075832928987
Zn 8.698416498305303 12.195609688297754 15.522413936991205
Zn 8.715241912941979 11.777255870188668 8.829101303675898
Zn 8.108439723480473 12.863735797339647 11.116512578977737
Zn 7.563415967134883 10.30617288848208 10.779204447742234
Zn 7.801066227599461 11.12566651096646 13.238090623620058
