30
Energy = -18.20049123 eV
Zn 10.556886759132047 10.442249021568134 11.91919260155217
Zn 10.42382383052259 9.9992791358153 14.661943346411162
Zn 8.7003357703018 9.671772080830737 10.26476182927995
Zn 8.212331665172252 10.755173519501174 7.7555502895502215
Zn 8.476415847883676 7.287464423173437 11.636906836689013
Zn 9.205077454501799 13.168874491702999 12.00132565808109
Zn 10.192285046175597 7.734912755322959 13.541548233778368
Zn 11.145149260283599 12.431764485479682 13.877431267245955
Zn 12.859492995272362 10.74754153143489 15.006421823772762
Zn 8.952611819087672 8.335428950293293 7.582053668221436
Zn 12.96253511161549 9.414208071338793 10.669282352488368
Zn 13.336504728676159 11.315976178003453 12.5902368232151
Zn 8.648446137414743 11.77638583689279 14.08540499251702
Zn 11.251108940593463 7.500866021632375 11.195163029898048
Zn 12.473445168692914 8.859655274717719 13.16132476646543
Zn 14.32120568661117 12.81965384142228 7.8410304591025355
Zn 9.400730043024089 6.7611356976028825 9.436704558931133
Zn 11.755948539829792 13.059705182557861 11.427062067298642
Zn 8.219795217708127 9.34700465097177 13.076194270296499
Zn 11.410913502615497 8.307121149853959 8.716366565616847
Zn 12.121353911179542 13.796493474584478 8.909009584699247
Zn 13.59403788775712 11.885940571238892 10.100456594516045
Zn 13.07756039869658 10.193233216271503 8.13181519041211
Zn 9.754314764093957 12.844118927032786 7.665708521784945
Zn 7.258906333521749 11.353572969696149 11.91170157878706
Zn 12.100944522614059 12.208656764229183 6.7553719591184835
Zn 8.115582288597217 12.356439736386449 9.69875220443678
Zn 10.885683751334199 11.161720625151492 9.557461604935854
Zn 9.867355260016632 14.305615002404945 9.814294458057098
Zn 10.655853010952077 10.181717089867975 7.025076858044684
