30
Energy = -15.82463989 eV
Zn 13.986844084780913 11.429650760704316 11.575069488260992
Zn 11.81311428031971 12.230757698181113 12.713778042656209
Zn 9.453781202728585 12.914497871729843 13.473894939486303
Zn 12.390618947050527 9.691019369738864 12.640569768210383
Zn 10.372197344104011 10.543931340562928 14.061662291003534
Zn 12.666812955075889 13.370879946766474 10.555819497980462
Zn 13.443273287806694 9.217104541898607 10.27421617428791
Zn 13.864488963410649 11.43681347676604 9.011084841455048
Zn 10.15057345503085 13.699124329367425 11.130904931465867
Zn 7.919759760368645 11.256848306734124 14.65867691965157
Zn 11.770318978635657 7.545452573637203 11.384700054345958
Zn 10.709887170861302 7.999899526875581 13.680661660606969
Zn 13.465707438716882 13.871678368176289 8.161921508194348
Zn 12.508775925367601 7.199813141067962 8.926825674813756
Zn 8.330585853932755 8.92978752201138 13.556186011355587
Zn 10.936780754532348 13.645636755757574 8.663157312909476
Zn 12.758529412042565 9.46468034199462 7.7347309486365265
Zn 12.284349419478295 11.928013564124727 6.9769861475818695
Zn 9.147283604494636 7.185594924293455 11.772437527756553
Zn 10.23909689571537 6.245569901890641 9.651758552693778
Zn 6.591893177253814 10.654150429037431 12.551947416261315
Zn 7.814212433379459 12.623786771674274 11.525872752689658
Zn 10.397654502452314 8.133900757321113 7.799871886201593
Zn 8.628553586488898 12.586995943240865 9.12282908473372
Zn 9.706987949801967 12.360647328742793 6.808630040295557
Zn 6.858939960357471 8.37913106529383 11.458021806998422
Zn 10.7206837387619 10.062855857719455 6.188393966623241
Zn 8.407020223494232 8.161107644736584 9.450822706173541
Zn 7.369965721407678 10.516484759257887 10.071226569746152
Zn 8.788035911213301 10.190294713645876 7.9356430269240406
