30
Energy = -18.73514415 eV
Zn 12.32756240127625 8.06263931985361 12.473455157402961
Zn 11.431998325088681 7.525336806465207 8.326802153024001
Zn 9.933467605118386 11.407008723194483 6.620003902109972
Zn 9.851343420483893 11.369077887032821 9.709495663823137
Zn 12.98880354036658 10.820563097281434 12.12310246171182
Zn 6.9340847821080445 8.923196830070697 8.50724078813899
Zn 7.679542952419764 11.337800452066926 8.019445952669892
Zn 14.01373347528682 9.821579753835744 9.253704830951012
Zn 14.555877834516272 8.90388350325659 11.564199623134817
Zn 6.43625842884875 6.602618896411232 9.510418240100446
Zn 8.085170239179867 6.602465025626809 11.471345210171147
Zn 11.541620823618658 13.095280364467026 7.597187027449024
Zn 9.10430124702966 14.262477449999425 11.861807546693287
Zn 9.012947344881399 13.61192041398503 7.644018798831294
Zn 10.890718073738379 6.553726832816846 10.73796503671982
Zn 11.309086029454981 9.409769670966167 10.274353753591695
Zn 13.356898456554523 7.292431845365854 9.984691908966697
Zn 8.781144216467908 9.27045239668275 10.906031913182936
Zn 12.467460098542738 12.026818565588421 9.791760573780337
Zn 9.879665099184871 7.672825865454532 12.881970523454155
Zn 10.494355320343539 14.050905700809821 9.75810835440494
Zn 11.933989606713508 10.347881254261619 7.80588528731841
Zn 8.989099676001416 6.980412294930004 8.993550726810136
Zn 6.6672522271379435 10.898903396995124 10.463651214540826
Zn 8.54690676735992 11.662178048372985 12.093770415400225
Zn 10.485797730809338 10.175683824347889 12.805321517058394
Zn 7.813763369600809 13.23189699879122 9.88250380762388
Zn 9.505591227052946 9.32440245262119 7.997325580966205
Zn 11.086348654136334 12.545297051576012 11.966690630453718
Zn 6.131998990330741 8.447353240525294 11.21097936316842
