35
Energy = -20.84319583 eV
Zn 12.912423583254725 12.166756521992724 7.178198744982642
Zn 10.940740827437825 10.611914398360506 7.773184859300041
Zn 11.440471119057067 6.230433060399339 10.238521006466035
Zn 8.720035946108451 11.721712456204347 8.284763149384602
Zn 13.398898692949347 9.839252358167094 8.304841632800562
Zn 11.276393630052942 8.564571518802019 9.219199049634266
Zn 9.524156652152236 10.186363074195912 10.24414052008114
Zn 10.844796699325556 13.202307887395527 8.330732526827553
Zn 14.984196115724236 11.923089665997404 8.543504248195662
Zn 13.640000088207692 7.965169401130464 10.1486038903506
Zn 7.00529185040592 11.345008081043511 10.112088634398619
Zn 13.296259391018364 13.817381243135127 9.179643525220063
Zn 15.10401184805104 10.093595920502226 10.297391541098218
Zn 11.81897935038952 8.08223016883498 11.949314844932776
Zn 9.149881540089249 13.013346080750756 10.483882808135984
Zn 9.218123073286655 7.531242542343327 10.89133961272253
Zn 7.229111083498206 9.021384613956187 11.614568067628985
Zn 11.170364810256306 14.601014826281165 10.457056424353775
Zn 15.01791427279956 12.854436326006411 10.900339457742827
Zn 15.734432760326444 11.086919269429323 12.548148145215505
Zn 7.090329629861526 13.50095338705573 12.422294076667175
Zn 7.617879803004026 10.471825183916081 14.035273808520841
Zn 9.778909793962754 9.412085385873011 12.701356261676906
Zn 11.429618742801196 16.295546903707066 12.386012638179546
Zn 14.22980968954769 8.941739321672468 12.525960186535558
Zn 13.501282842289482 14.827725718377112 11.614101134258407
Zn 9.172741965532879 14.951623730543155 12.379483958503924
Zn 12.097100870565718 9.344712649947088 14.134231025125777
Zn 14.068506194223085 12.934278071336683 13.347311883206006
Zn 9.54101681023401 12.18667718990109 12.912870135296245
Zn 11.579106869125505 13.811558310794231 13.127771779862979
Zn 9.978756354922972 10.620874478861396 14.966161894098043
Zn 14.32728099171623 10.59557776631587 14.537061105123527
Zn 12.102549716218633 11.936068932999024 14.749356049577875
Zn 5.980665469317998 11.226260603587182 12.359129451546453
