37
Energy = -24.11204 eV
Zn 7.664516414457512 10.425075436413662 9.476485054645256
Zn 7.548165971204963 11.521514801142937 11.79137089113724
Zn 8.927310766943384 8.038925926923898 9.232815137205344
Zn 9.030339541054106 9.341532623594142 11.434205459476441
Zn 7.8907865765984075 11.131706884944794 15.836963646017244
Zn 8.756419657229848 9.544183477757239 7.215999718647368
Zn 9.586244064299049 9.11765974171857 15.900021270585444
Zn 7.282103292022645 12.80146219968209 13.911921193568443
Zn 8.493119736616974 12.082004410902409 7.633690084369164
Zn 11.043568565237429 7.586465815963205 10.784789904081368
Zn 11.206240603575944 8.337634450877426 8.157800162913333
Zn 10.53395714574082 8.355607694296996 13.29943834383395
Zn 9.011505858209997 12.878602617282308 10.109320744298788
Zn 10.287878429955887 11.395468865155225 16.80179537167869
Zn 10.488953564588465 10.582309479620182 9.536879314848898
Zn 10.985471558088964 10.753169191866322 6.833772267956549
Zn 9.361280936691763 10.683216150472017 13.60405851100181
Zn 9.323043285174837 13.421757537790267 15.230888263828305
Zn 12.563598410241783 13.212583964507106 12.43271389738195
Zn 12.073807353119136 9.673076598827196 14.84913788855429
Zn 10.847365398694754 12.964072217286288 8.144945291562049
Zn 11.186543141785775 14.25623757836107 10.452168896641982
Zn 9.906474886316287 13.275386081911419 12.560701716084619
Zn 12.959043726328106 8.529871086167732 12.608814799855358
Zn 12.57053715808665 11.87021909523786 9.957500422287598
Zn 11.353993853163812 10.757297143271654 11.87510299604073
Zn 11.557473026060558 12.24195929068562 14.60064926107828
Zn 13.242458797088714 9.655065376407352 7.432313404014866
Zn 13.00498009822165 9.050125174426364 10.000176373765344
Zn 13.663438021923401 11.087069953992875 13.382227956131166
Zn 12.850062828773577 14.519895495401714 8.348715058880556
Zn 13.858735617192389 14.620191470366054 10.66392926873715
Zn 13.2830425541062 12.212928796997097 7.278490787341547
Zn 14.938805942116137 9.78067790744218 11.519600925838311
Zn 14.877256249731088 10.775179093821677 9.089804317138285
Zn 14.859058102559466 12.328823474374428 11.348370145541853
Zn 15.105651183809947 13.3132724331972 8.820717010119488
