35
Energy = -22.9172818 eV
Zn 7.368862763931167 8.638711791806251 13.384466257292434
Zn 10.106588521166195 8.11298983630379 7.579299867283738
Zn 14.094037772470061 9.574182683240338 11.65253381610333
Zn 13.152716889255316 10.954673490351617 7.392544950690359
Zn 10.453816999011828 10.607698997096731 7.167268906968119
Zn 10.22170497146556 15.105212471725373 8.324310530416263
Zn 8.265143403930507 11.15653990771143 9.113660436348548
Zn 8.840224366247671 11.095150808505727 12.901492068871164
Zn 8.082977697000844 14.011947315826772 9.389684497367455
Zn 9.613281112965906 9.030207123674268 14.441441822307018
Zn 6.527610372969355 12.409528024452104 10.739062194737068
Zn 9.89412188601297 8.961972971738383 11.716308869938246
Zn 12.679783845242188 13.604347643110145 11.648232122204506
Zn 14.651221920455212 11.988519628377066 12.280791082714636
Zn 13.229921883595997 11.65104929531508 9.963180536036589
Zn 11.067261438074146 9.845217310225713 9.579731040679317
Zn 7.6609531115091265 7.243425225413312 11.336790212571417
Zn 12.51259454535919 8.64064015735765 6.798273113493453
Zn 9.275427024998601 12.82212469625231 7.470915364246402
Zn 8.591778889611003 13.48519408336513 11.833365646540138
Zn 12.231307257486637 7.880601942799774 11.045143006061448
Zn 10.320492075904246 12.169559784192547 10.260828427019565
Zn 11.794019067952808 12.953060004185645 8.180931159347228
Zn 12.15922900786229 6.919450361758048 8.631039540877202
Zn 10.681101196414748 14.817046469617026 10.782127009434276
Zn 11.287752135181751 10.926858245829884 14.743091305449543
Zn 11.679744795975834 10.889176865032143 11.933756309482659
Zn 8.270125055028236 8.681852718988264 9.21480889404737
Zn 12.034945423794028 8.729965278552095 13.436130940431521
Zn 9.954668485599846 6.9086868217161275 10.022993074920079
Zn 13.016411632675606 12.786905052301 14.120108299307253
Zn 10.606122723192971 12.979101786727925 13.24278425774054
Zn 7.030991179082354 9.953721177004798 11.19391548141
Zn 13.686003105667103 9.078175574542263 9.137596255076526
Zn 13.878824862702436 10.414454628441542 14.149208580796815
