35
Energy = -19.71055302 eV
Zn 15.426668359320807 8.241274591188036 11.778894431276484
Zn 15.570462219941154 10.672731819479564 11.136079844839832
Zn 14.794710792744787 12.913628953752454 10.466803409920605
Zn 13.449990905180112 12.251721801320105 12.552734313282508
Zn 13.722695893591716 9.760827591132415 13.018506153014592
Zn 13.641290464872114 8.960278256386685 10.055563139019943
Zn 12.31839804406948 13.867253591375862 10.93854738283789
Zn 13.936779816306887 11.211691640589645 8.823997552832495
Zn 12.996120428015695 7.389904843039463 12.234299220351318
Zn 11.227458988283145 13.689869973035611 13.294751541757764
Zn 13.269655652524547 13.692752608070466 8.577705689462325
Zn 11.513774651884699 11.201069822296509 13.973270200806569
Zn 11.728867187867305 8.569060651398653 14.122854094626698
Zn 8.87263713176367 14.818537153402104 13.661513206096117
Zn 13.915942659320711 6.069871372385563 9.952981388427421
Zn 9.193275285080015 12.238196189275914 13.366489541835643
Zn 9.99425385343888 14.879409588775625 11.22164922924583
Zn 10.305202339041127 7.443989381823805 12.333845962578161
Zn 7.76468500058754 8.029924858581452 12.38344644850891
Zn 10.696329817526403 14.100936996990798 8.876687944737828
Zn 11.60579712054813 7.275275891920533 10.035191031027342
Zn 11.663214202718354 12.040200961041291 7.672534398522134
Zn 7.542031792090978 15.588739320643299 11.648058888794958
Zn 12.330023165450234 9.344946379947343 7.921550273343477
Zn 6.9459037431858 13.261463627028457 12.21147092757423
Zn 9.50421007560358 9.627596627736073 13.488558286655923
Zn 8.082848635812965 14.124126504714827 9.602728991815361
Zn 10.270151575602647 7.871473092136283 7.971327757142487
Zn 8.925140335598961 7.644214634168909 10.17224190589877
Zn 9.018985849916675 12.212360339789766 8.247670494797777
Zn 7.58730507929426 10.706232152097526 12.191722537895425
Zn 10.100763728697917 10.208411469512173 7.035513534158488
Zn 7.0238675017984376 11.78821311617139 9.910862050023212
Zn 8.460506127606456 9.788407933937561 8.905110200129135
Zn 6.566683382772364 9.2119552963519 10.449063076467471
