33
Energy = -21.65731123 eV
Zn 12.413194173780626 9.080813840508572 7.862022310381889
Zn 7.436144638684387 7.7305741368392455 9.687892324753221
Zn 14.51533068301503 9.971381888617755 9.131091342949171
Zn 10.54157499778047 11.996219889284754 10.426290446854367
Zn 6.753356192437238 9.703637342133378 11.197907271751815
Zn 9.428357945315241 9.790785950598101 10.834439927882048
Zn 8.505802195875313 13.970043763747215 11.49754727198847
Zn 7.671268945771844 9.941950401464965 8.527221766701926
Zn 7.688193917970673 7.38857383730504 12.160683520514736
Zn 12.717169342708372 11.639608882349819 8.018980403037123
Zn 9.144018542558237 14.33270836642435 9.032671332478667
Zn 12.173218175801917 7.422874547211172 11.732406231637311
Zn 11.973182825237036 7.09849910874195 9.298635812388653
Zn 14.294419855105678 7.767752820058436 10.265114878128117
Zn 10.352032796817545 10.642361494412196 13.372771704739673
Zn 13.529825752151531 11.892236352912807 10.47985392171941
Zn 11.879484703163586 9.850917268477204 10.566558860287758
Zn 10.63434025684323 15.167654492997054 10.94873574701246
Zn 12.749999642166625 11.636782207492521 12.965959934181283
Zn 7.7728573961787095 11.9188615619092 10.219184543041356
Zn 12.638126911001157 13.916472964688102 11.798420413552149
Zn 12.139787877133584 13.855188030348728 9.305730303961207
Zn 10.110597925172241 8.017527280733788 13.16389491502269
Zn 8.030017390315123 11.823959740577923 12.78776266813324
Zn 10.698820861384066 13.1263508554901 7.40050553792284
Zn 10.453132558323142 13.151035249136376 12.965148783008177
Zn 10.278544472077604 10.58692976538663 8.10610866169165
Zn 12.50321423192407 9.180033834878174 13.437131030813228
Zn 9.779649729271435 7.079483174874067 10.708918496178018
Zn 9.746413068851451 8.137595444203077 8.319599210468384
Zn 8.3246970153247 12.310043213673984 7.7362155380695405
Zn 7.974946322532312 9.455971722656159 13.533650917842394
Zn 14.498026657326585 9.764918569867172 11.860691970906588
