31
Energy = -19.01502342 eV
Zn 6.645622094985408 10.53737875390572 12.493393839518234
Zn 8.216957774033217 10.75251696075361 14.431574279000918
Zn 7.593829034754685 9.156917491693525 10.461028671850716
Zn 7.529015959005777 10.322238262484058 8.096098142587799
Zn 8.240868536510694 8.44254052471271 13.053649530279406
Zn 7.850210866248141 13.129022565019683 8.211670837324442
Zn 9.154814883982212 7.984100843703053 8.717776610856022
Zn 8.495920265801917 12.62272018035965 12.629192585039824
Zn 7.434161927356013 11.737692994562071 10.345445278554605
Zn 9.822620547418843 10.404332472166798 11.60582220315178
Zn 8.785011247844457 11.75302161377317 6.336426551360095
Zn 10.542066840787342 11.850285722621052 14.175385383035703
Zn 10.37144353325561 9.325041007467117 14.118026898994767
Zn 9.194588365191326 7.136942692250211 11.108036509446903
Zn 11.200847613635938 8.603012966279048 10.207765142579827
Zn 10.03404945459967 10.83759798719129 9.180388341323733
Zn 9.447650321549819 13.37449459803113 10.271455413912221
Zn 9.530406954294342 9.293058199570853 6.639871758996612
Zn 11.322019706692702 7.587720624882192 12.573593213476242
Zn 11.311308627616302 12.919874640114122 12.037738920089112
Zn 12.564780502818829 10.442959780478425 13.133966922126413
Zn 11.284326607756922 11.121025594915848 6.6976265476422805
Zn 12.295378358111659 10.972596417758382 10.61497462392331
Zn 10.473090878885202 13.301452415295238 7.699406204007104
Zn 13.250486990103044 6.917572445675011 9.39236760411854
Zn 13.647422735394391 8.33867318213937 11.672189224521665
Zn 12.062739390175329 13.400294862603122 9.653783423708893
Zn 11.953307665202482 8.795790615489974 7.740406080402711
Zn 14.90652649043141 10.644072746652597 11.614326802547863
Zn 14.227705679433866 9.338458595859498 9.334378182904791
Zn 13.214381651460048 11.489829597619202 8.260395780648677
