32
Energy = -21.00920311 eV
Zn 6.373387314735547 9.449550885404992 12.041270179841264
Zn 8.365363603911529 7.0871617968816585 7.945170025015524
Zn 7.327239066726451 9.57695140636802 7.6567695451752735
Zn 7.326192732936685 8.317988487920791 9.985440074509727
Zn 6.437342393299827 11.933634289098698 12.383953193814751
Zn 6.466554154930461 10.813328326915192 9.794230329541723
Zn 7.933563837243132 10.414561426092595 13.821383993500993
Zn 10.509719417971327 5.742422070883036 8.342192657418328
Zn 9.834458577180085 9.117352871590143 9.08049149214072
Zn 8.706585390061873 8.435214130712307 5.817518608909054
Zn 9.338151584788095 6.6259655727362246 10.46662692151946
Zn 10.446101515237402 10.28344406407643 13.46092033205512
Zn 7.405842754334317 13.143746464098768 10.42834434554046
Zn 8.95213118929957 10.519039592131461 10.955274011181288
Zn 8.568949336481127 8.164217591992756 12.415568005492627
Zn 8.982165260490248 12.53599190719964 12.662825774135799
Zn 10.958781225286856 8.409413943754354 11.638066200080539
Zn 11.373976163329116 10.699277138956244 10.271269410563267
Zn 9.954759615976295 13.151611522012695 10.203497978668855
Zn 8.680198470608419 11.684653488212225 8.411088528151224
Zn 12.070724232003107 7.5756048318539415 9.299036999361787
Zn 10.121437426111148 10.421675203229015 6.605750052903797
Zn 13.503656741960512 7.896023774317192 11.34862848757323
Zn 12.873634394968839 10.174728687968534 12.53374015536026
Zn 10.969897717302915 7.863824642993036 6.863607081294289
Zn 11.52047617349219 12.496379145268836 12.276951197358303
Zn 14.043204667345217 9.924416387075837 10.009842784401002
Zn 12.39247159013977 13.77685829421966 10.020413991760565
Zn 11.171722525157596 12.314613589179228 7.958585234814988
Zn 12.400747437969057 9.81561969519631 7.925143892905461
Zn 13.92960757345004 12.171976981476833 11.277716708155614
Zn 13.610441298327078 12.035581397563998 8.647511750966583
