30
Energy = -18.78030728 eV
Zn 11.425494545607235 11.049541120401644 6.100845795176043
Zn 13.122652538773645 12.04295073556064 7.67974291039356
Zn 10.721209301881702 8.66071363009701 6.5054161466450955
Zn 8.898651278879905 10.706314998080442 6.647927096559731
Zn 12.785565978026888 9.361144625300204 7.9141414887050905
Zn 10.526213799793194 12.886468482092457 7.6840604381648205
Zn 8.874742260572406 8.465617915253322 8.189698332520953
Zn 11.179765375394522 7.294671945589964 8.64584117613672
Zn 8.017882420961783 12.616277883058144 8.201250849290673
Zn 12.152087625102428 13.13250026785076 9.745765373038184
Zn 13.495195179697253 10.84955292189981 9.980839665563842
Zn 13.313030310513753 7.959125833758892 10.132567149137195
Zn 10.67960963482864 10.579624581708048 9.024427804990642
Zn 6.853372316007996 10.25891689873078 8.305167224395545
Zn 10.848395967103533 8.756606635424802 10.739157795564212
Zn 9.669739312386874 12.806192514132604 10.257037450374222
Zn 6.807885553952354 7.935028957083542 9.603817687093969
Zn 8.765563717178702 10.128142604036977 10.46704188758528
Zn 7.173810460249551 12.268848903585122 10.610158973452215
Zn 13.57179648708806 9.709257409870556 12.28294539841501
Zn 11.667985408683666 11.660696926291205 11.752344866263492
Zn 9.124142935469084 6.846145393207889 10.234509230872135
Zn 12.399832575928682 7.47719567452664 12.552716911999036
Zn 11.297856013220702 9.857548844097197 13.48740048898945
Zn 9.277870747141403 11.90345681808958 12.636251295567309
Zn 5.748460374435582 10.015454347128454 10.67756957200391
Zn 9.846789169797077 7.305403121626522 12.763055357916587
Zn 6.8254000527524346 10.922852051755426 12.768592781174922
Zn 8.80374912459175 9.610027484071836 13.751884811256518
Zn 7.4812409559183255 8.28971189762753 12.01381546269177
