34
Energy = -20.77477179 eV
Zn 10.241585598049497 11.71004614207714 9.724725391285293
Zn 14.550335266070446 10.302585480350853 15.595553922844354
Zn 15.940639616499094 14.421008487989292 15.347893935736062
Zn 10.764457995923754 14.259060735251692 15.185077063186341
Zn 9.872831374694266 9.520643728885084 10.885741283154667
Zn 12.42870744264891 14.401062662996683 12.221355160679225
Zn 14.63167799217243 12.690001181128785 16.739258356947662
Zn 12.998797501564187 12.760397480583844 14.181981261308067
Zn 18.22230065331079 15.477487068209241 11.973232395988692
Zn 14.593655001007527 16.404552765196666 14.282215519977278
Zn 9.568126896587493 13.974974503178862 10.632066712701832
Zn 9.949904539822906 14.997179752216066 12.891512605521102
Zn 12.60102158122253 10.889687607264422 10.440153686050952
Zn 12.636753884389817 11.126148457935487 17.11931331116879
Zn 12.0306154673943 16.315418376617004 14.12272529082845
Zn 14.535529440135107 12.535256341992344 10.690624493513443
Zn 8.962021542494492 12.774498918227065 13.838062692861307
Zn 14.064369001259879 10.923972568098854 12.658443521207042
Zn 14.058302225370216 15.157217695981295 10.178177827176276
Zn 9.848564820159254 10.239337296728786 13.549030453997917
Zn 14.922821252797164 14.052756144003293 12.904852018081721
Zn 10.784598180999305 11.763421871805713 15.46126058291144
Zn 12.290558474582046 9.739114426048003 14.66732995308846
Zn 13.274423733598853 16.996920051483993 11.95486742454856
Zn 11.975971407340685 9.161597156407524 12.269133587585515
Zn 17.189116855303062 16.310896119688667 14.143282614714844
Zn 13.253445171188766 14.765949139009656 15.89853684844439
Zn 15.76297502033952 16.418499913015896 11.74778817615803
Zn 17.52468109605597 13.099433598984664 12.74014042700634
Zn 16.57627741065061 14.142917492847173 10.5305755746849
Zn 8.479651981145539 11.590615695350618 11.706487002148199
Zn 11.264670770298002 12.168010093717559 12.416509166533364
Zn 15.929958261562092 11.96214584421396 14.316065313626877
Zn 12.132030536597371 13.46838990876338 9.769022113920267
