31
Energy = -16.2763902 eV
Zn 7.559907928259938 9.50967307743862 12.287396950530189
Zn 11.718308692362593 11.068027393284707 14.313234035225054
Zn 9.955395600555423 8.47569492601094 8.200460110872339
Zn 8.89914175525722 11.95588905734982 9.975344812838788
Zn 14.30871360639196 12.230513533947828 10.149475585765169
Zn 11.941398823077577 9.052843569216655 12.386594724309044
Zn 9.725991908974194 9.803390810438728 13.566623341260172
Zn 13.685115633753082 14.792536628305388 10.27968903328655
Zn 11.504064961629085 12.259727387327523 9.881636755049387
Zn 8.706779939204814 7.115328004119133 12.329058054422902
Zn 12.931908955208101 9.970072909564035 10.20748754112869
Zn 13.22013281885759 11.51906325351409 12.324586121695729
Zn 10.288701629876568 12.1503643195305 12.269132780942277
Zn 14.350009350966314 10.776660166544954 8.024260615012917
Zn 12.21289451529955 9.452143533493803 7.623655832117197
Zn 12.372993395112232 12.593292263043738 16.230522324345365
Zn 10.294147936165869 6.960940196006605 10.148089761297054
Zn 14.452253942989527 13.37839655362016 7.700301222001783
Zn 7.871922553300318 10.173335917687538 8.353831476230056
Zn 14.79613826336658 15.803494154632517 8.217555485279226
Zn 12.242538501614566 12.358693065889815 7.165593214832983
Zn 8.25785249089447 8.078587686000443 14.785382390578608
Zn 6.490277173332707 11.018757785428921 10.52225148752671
Zn 11.877817816381693 14.103085944214522 11.774646944472648
Zn 5.5396301398464844 9.101846438141372 9.06452368620072
Zn 7.648923799354004 12.20071008814227 12.484574860668578
Zn 10.165311246733294 9.71847606314245 10.680696634584663
Zn 7.884832507522686 8.074831814197806 10.033404762963006
Zn 12.973067287744133 13.695772205225651 13.971059902957558
Zn 11.183876286671845 6.651762146103461 12.49104313399564
Zn 10.13818231297318 11.154320882114389 7.756118191286761
