30
Energy = -18.68891279 eV
Zn 9.664286366186388 7.619148922303663 7.498655022034893
Zn 12.058654484441313 8.22778769588726 7.407076642997393
Zn 8.206475979829484 9.748840234209087 7.818710235793606
Zn 11.446919195315154 10.585681132281385 6.666861665730295
Zn 10.621602139845034 7.0407022470739955 10.069860808765972
Zn 13.137123715863305 7.754525903786971 9.648229264863028
Zn 8.125992924010411 7.733720855000943 9.511148774797615
Zn 11.839849433697925 12.57468749283751 8.330914092199471
Zn 7.474345905647985 10.060427127484996 10.417300249246722
Zn 10.48433735858538 9.778290664638304 9.314435333112645
Zn 7.487835237894463 12.017565769003047 8.740943534684572
Zn 10.529909293532842 6.8232584437093955 12.752204731170677
Zn 9.425455978233769 11.976968037913897 7.083545509524793
Zn 8.447682857061835 8.139668595091297 11.960795781188109
Zn 11.018654318540984 9.55347723156164 11.716511821869874
Zn 9.424113170281617 13.75569224649364 9.06699905639079
Zn 7.731882689422513 12.713079507408251 11.16617274827166
Zn 12.811096427804523 7.633599949979124 12.186534952800052
Zn 9.8648579138369 8.940155854808781 14.056964096914342
Zn 8.243947243166756 10.60837564658444 12.799391539816131
Zn 13.118105200743805 10.331082070072826 8.73471865082735
Zn 10.251067705857285 11.723693029724881 10.754760008534483
Zn 9.155318873152208 12.958654954398387 13.284025657436091
Zn 10.8081577305542 11.253500007241803 14.32547712770757
Zn 13.899978008644881 9.744724021074358 11.07937161264674
Zn 13.187645783968694 12.14782038549661 10.628325302611511
Zn 11.731745764508906 14.290130677039391 10.254041486365502
Zn 9.55262194496541 14.68894573682687 11.465965709017002
Zn 11.67233893276607 13.165731329886732 12.587210484999748
Zn 12.985874090347355 10.865421869049701 13.10216002939161
