32
Energy = -20.21699363 eV
Zn 7.8529587772591425 9.183403269855745 13.208425840189976
Zn 9.749323140548492 7.578119579839836 12.305968738264594
Zn 7.703080658007011 11.717789443090826 13.413993445466259
Zn 7.493163771629216 10.98489481053407 10.996571507398926
Zn 9.774112413461893 10.813376617364797 14.621558795882494
Zn 7.813613461862322 8.331883362149629 10.7458887726899
Zn 8.201574583647067 13.482964265323059 11.538713432787917
Zn 9.726485415882307 8.20817346641781 14.743468771758405
Zn 10.054176169937003 10.402327242830856 11.96762608734656
Zn 7.82214836201885 12.295358069936455 7.800405194652918
Zn 10.277209227734405 8.598299334216193 9.904344920169164
Zn 7.974707793166693 9.863635385683716 8.694857054129177
Zn 9.755380210349015 13.242571214215005 13.591858418520006
Zn 7.682468148776272 14.433146348342905 9.297229226436546
Zn 11.878225062580938 9.412464219517256 14.080534839009314
Zn 9.776070353493735 11.613268262332868 9.747224300141808
Zn 12.157285816853511 8.372347651851522 11.743493027448343
Zn 11.884795489018861 11.95079710018838 13.215127797589957
Zn 12.78636319369297 7.595588530751401 9.382887786410782
Zn 10.536397247871228 9.82251287441018 7.685689270101952
Zn 10.829279501568724 13.47885766571444 11.282678452796615
Zn 11.817911424389223 7.60619508148759 7.063403349598852
Zn 12.074749339309154 10.684522211293944 10.321326114181698
Zn 10.0336936227057 13.822292484653957 8.290229778978864
Zn 11.862463424101316 11.988191511204203 7.729882046120486
Zn 13.861033929545885 10.278371605402917 12.58831819348025
Zn 13.22779183796485 9.793673887945097 7.889613602587781
Zn 14.47065438776286 9.293614287114632 10.232083735785514
Zn 13.507696220588125 12.842649240655756 11.390747577908547
Zn 12.46654301564763 13.943547482740149 9.30303619988753
Zn 14.205626084008998 11.912581551212817 9.048387283110866
Zn 15.671137900626224 11.37686551547993 11.1112649029365
