30
Energy = -18.11711959 eV
Zn 13.373750477954163 9.585047604236994 12.869755218394687
Zn 14.302720996575784 11.770428665840653 11.755501978712635
Zn 13.48987784944645 11.857563065793272 14.28688370790356
Zn 14.034933261769654 12.647599250877287 9.318735660249729
Zn 12.727865909181892 14.334886642762987 14.885805179573921
Zn 12.447953109354302 8.263561031027294 10.887470092051412
Zn 11.17183138968247 12.49510425661745 15.286682767952241
Zn 11.402362794232772 10.037857652259406 14.44231380470608
Zn 11.51526012000973 7.738220003118269 13.339490465367868
Zn 9.89677839207447 11.777750868317224 13.179485114614506
Zn 12.015635776922702 13.130233574105759 12.019342509822472
Zn 11.731393614035374 9.037844514472583 8.363915359159451
Zn 9.32963200504808 9.193999431882848 13.071258819642955
Zn 11.477080945446053 10.804997357439388 11.269561584071718
Zn 14.578956505546323 13.964038966762029 13.185945156076517
Zn 10.404067233229489 14.466488978201937 13.649461898556162
Zn 9.695864580206159 8.599761548483931 10.591904359001063
Zn 12.783887972801853 16.140229569313515 13.166670142885186
Zn 8.453103482820934 10.878772069213282 11.150912281973373
Zn 10.759751268836903 6.150889815870553 11.561689886482995
Zn 8.459090246157187 13.44384615517495 11.941316084546012
Zn 12.276119227979796 16.405113730308244 10.770376415744455
Zn 13.713206144405946 10.154467610796614 9.716092003355659
Zn 14.224608983514536 14.692223960516761 10.824486024392403
Zn 9.543778249915896 10.409766841142291 8.803625901019052
Zn 9.823412211834249 12.765314801653334 9.844581263580857
Zn 10.137223899346086 15.12510591466858 11.144698398218804
Zn 10.911080344725878 6.7473965319458165 9.097188120812604
Zn 11.777822711880873 11.604971465164846 8.55096732983828
Zn 11.997496115625081 14.203153161072915 9.45640167602726
