35
Energy = -21.97280457 eV
Zn 11.990972789073338 12.09779446056116 15.642843679933435
Zn 13.520116620360714 11.05048032585837 13.610324307411588
Zn 11.160273722759687 9.926415187361085 14.752315739088075
Zn 13.336919162694498 13.711756748884655 14.323951765199766
Zn 9.405987055317043 11.788571573780342 15.257999903986015
Zn 14.76728954789722 8.842295088489008 12.805150081111531
Zn 12.598309458776374 8.10238037479477 13.832551565097091
Zn 8.242140340427062 10.055511829623214 13.844875083317383
Zn 10.028511674882674 8.124990588861909 13.209553431576245
Zn 10.64762585163066 13.838722085130991 14.19088289186101
Zn 13.59463244292091 13.12898015646638 11.871647313201162
Zn 11.133038008296163 11.75317602228111 12.64110759537446
Zn 12.219395865562674 15.527692824072755 13.015097104605118
Zn 14.11135172801468 7.846374253668836 10.547977210151684
Zn 11.745728060759728 7.031357358666894 11.683588258151788
Zn 8.457927059392874 12.565387362496569 12.954231548504627
Zn 14.197472502928528 10.68145884977393 11.00807699450555
Zn 11.783112751629274 16.38101865124405 10.776896879630831
Zn 13.377655715996022 14.464212533008439 9.669777152198266
Zn 13.559189366108361 12.08249230871641 8.817970722474259
Zn 11.520316626195303 12.603710329417606 10.299083648372436
Zn 10.121024342682599 14.30817535620675 11.658650540439252
Zn 11.616105215319008 9.937747246210115 10.926866650642323
Zn 11.976310641974502 7.366231433575983 9.228523123309582
Zn 7.767528440181833 8.351443721613744 11.887058253493102
Zn 8.098715939689104 12.864579828489454 10.444945597513792
Zn 9.056818512620021 10.601874037084196 11.188570308842184
Zn 9.71117210762439 8.039855126941367 10.286818022304434
Zn 11.60880911404328 15.813998036079479 8.363837834694245
Zn 13.271669838585929 9.55738201866758 8.714683567960437
Zn 9.776371686707268 14.161661949986774 8.967794422470313
Zn 11.866020104898048 13.561598717383244 7.372886913467987
Zn 9.667945305746589 11.528024655535333 8.692250889548443
Zn 10.664932740645806 9.191400683880309 8.142219126011408
Zn 11.725999486034125 11.159134825267367 7.027942051189409
