33
Energy = -20.72593345 eV
Zn 6.293970811824487 11.010745284501077 9.788316490354758
Zn 12.789112995430852 9.233758137960733 14.075082617401494
Zn 13.352190685482404 10.188544945221185 9.341484117184635
Zn 5.696997663044096 10.345479065368213 12.159316439056456
Zn 9.318753037327422 7.864115927313094 11.409295567492501
Zn 13.90030616783105 11.446179055276824 13.279036794309036
Zn 13.486477769282684 7.537244749188176 9.945381750938285
Zn 9.814154798749978 13.411949957021083 11.298958960856858
Zn 7.625723131517971 13.233830729876052 10.062917955112356
Zn 7.12282260515791 10.438759138923336 5.674139546144876
Zn 10.307654856374693 8.964547913690593 13.625471787679755
Zn 10.964677544160217 9.255785273254572 5.9738308819182375
Zn 6.996350027535822 8.575074996590391 10.684815961451752
Zn 10.5112263967729 9.43622597751238 9.071484776947809
Zn 8.4907493763193 8.377649751242924 6.270397107693675
Zn 11.985992387879675 11.246555456984135 7.447010940158402
Zn 7.488948938501186 12.235821890527394 12.4064794461375
Zn 11.848373134624309 7.569743442824296 11.918366386354549
Zn 9.591164582368314 11.370387676692332 6.445681893859379
Zn 8.498849837751752 7.157527444963171 8.956765874196766
Zn 8.996171706511976 10.637517606811858 10.708893111132678
Zn 11.459706098712955 10.248515102721333 11.299687701203867
Zn 10.34449268304425 6.9055668974358255 7.0888840399496935
Zn 9.936571709312794 11.465413341328803 13.193894418175605
Zn 10.99727468405988 6.751306572357689 9.589733655645691
Zn 12.150244204935293 12.415941112061462 9.825762264422165
Zn 13.946652274251132 9.273703776456811 11.749947296234193
Zn 9.834508566365006 12.375888487893215 8.79874744407663
Zn 7.398683363736291 12.137510300667893 7.680028650999234
Zn 11.990086024950465 12.816659070910944 12.45066745770154
Zn 7.94240337178793 9.649479451148137 13.065182415970625
Zn 7.985536349700764 9.62998534200837 8.441781109854515
Zn 12.44846884354595 8.30788275211659 7.787851768235368
