41
Energy = -28.06541326 eV
Zn 7.627918768089606 8.651983557525586 8.104587474799791
Zn 10.871603536092453 11.51574118656095 6.5351641639446685
Zn 10.13982216499257 9.180497159516559 7.47326304248947
Zn 8.415644161955969 11.094941683602087 7.2394317298468405
Zn 12.54402688907081 12.723837888204617 8.124165253744629
Zn 9.4482375998671 6.883002173025613 8.476312151513502
Zn 7.440760021923547 10.730313123598025 9.680391032046252
Zn 12.437246694825616 10.122152884861288 8.196903885920852
Zn 10.141529765162861 13.687316169939788 7.68146708629915
Zn 10.304573160352463 11.360530681797847 9.405814321560356
Zn 14.242090377056025 14.032006085350572 9.559693800568528
Zn 11.88340265088136 7.6949660705158545 8.984486151647078
Zn 14.25153496303763 11.232199257286656 9.685491715569565
Zn 7.9834731185340715 13.041178388965612 8.826241299283996
Zn 11.86978973477587 14.877360685589435 9.553073378112053
Zn 14.252964679737127 8.638601599364934 9.958915461005896
Zn 6.5182440944248485 8.440661373546678 10.509700671445124
Zn 9.540687383564938 9.0928319624441 10.3950789982364
Zn 13.684375894610561 14.632337135814513 12.205303763583336
Zn 9.74636286006425 13.760194057113326 10.474167045625355
Zn 11.977503738491961 9.782002282257663 10.888399393729868
Zn 7.8872424019260166 6.326914087043661 10.413086442732748
Zn 12.16736840884333 12.346643761392686 11.104339610026372
Zn 15.336402606185962 12.790240936510147 11.427948654463753
Zn 10.393418721038532 6.363566269298395 10.859183368576577
Zn 12.92195255861141 6.735199574492783 11.127084251009943
Zn 7.600894258019686 12.597360418356143 11.592808944638819
Zn 11.244301768801007 15.032840639199547 12.090189164720236
Zn 9.931581017213697 11.244850431935264 11.961525235406162
Zn 7.327207384005724 10.129639830679366 12.256922542476666
Zn 13.684265881606494 8.288670181035826 12.912680628832105
Zn 8.375784931126185 7.706862792870778 12.506511559757412
Zn 11.061907948987685 8.066999985344951 12.704461806318642
Zn 14.687405365920133 10.372782543172335 12.13080872047888
Zn 14.026544379019148 12.356356561483132 13.551513921733328
Zn 9.32603120841985 13.694954334795758 13.189747291092223
Zn 11.832027363371406 13.412205256880814 14.021335327406735
Zn 12.046376813889331 10.542719657456 13.447612161410639
Zn 7.715198333076693 11.867731366252551 14.158891190169422
Zn 9.300030556618946 9.552370464844374 14.017939057579106
Zn 10.148208701547238 11.732378365812332 14.903301165937988
