41
Energy = -27.44570108 eV
Zn 13.331424801324049 7.402129626740097 11.259611033160924
Zn 15.133142916221098 9.186865610940195 10.661967464691154
Zn 12.144933856826247 6.051994710593647 9.404449060432238
Zn 11.81243771302184 8.149170078598871 13.240936432671635
Zn 13.936777919515455 7.935134012745063 8.692844934990736
Zn 13.236806319984913 9.98239351183232 14.40625620085456
Zn 10.563513787546691 7.064040881098708 11.273665492378823
Zn 14.611530245122895 11.923023737894614 13.450475781415687
Zn 11.59084579145846 7.307152918401894 7.19842393674786
Zn 12.652374265734995 10.12633500215821 11.626088125843058
Zn 14.73045347332709 11.734437702147158 10.962491137829131
Zn 9.701513525494434 6.741571957450404 8.820020487921994
Zn 9.17370992906501 8.241113823961358 13.189760682367744
Zn 13.893197818563687 10.68378487152779 8.783416481389681
Zn 10.8221800056939 10.542884458393972 13.620041220577365
Zn 12.755129835585231 9.50432007256856 6.834650512198828
Zn 11.546875672542637 9.097796528098488 9.417457225377897
Zn 12.497424565643874 12.532918427433234 14.71319997909112
Zn 9.941584585871102 9.855775926378044 11.241075970540292
Zn 8.098718507605295 7.768407796055861 10.561267448572279
Zn 12.688609582667945 12.165057211468849 6.948444941501631
Zn 8.348631377142885 10.89902996226432 13.772121666487326
Zn 10.564120440178407 10.775436229236275 6.943397467386846
Zn 11.330624873376603 11.57837656700308 9.733824864042967
Zn 9.981288168364662 12.63308580631667 15.071132560852131
Zn 6.959412046981417 9.171043951400964 12.415636055083375
Zn 12.542020577033218 12.800476926137678 11.918514795902299
Zn 9.03870444174066 9.176668636318988 8.368243022108398
Zn 13.289441285668929 13.236706276567572 9.271813027847957
Zn 8.248223177966516 13.678996927299195 13.573590669241307
Zn 9.610632970341106 12.381827886629646 11.491790744113102
Zn 11.072212485411885 14.351575512484969 13.448681693065545
Zn 6.725712083686025 11.927654411730055 12.155145759205432
Zn 8.956566755403742 11.854284384878707 8.481640181852217
Zn 10.914409665598741 13.684022774359677 7.868278856769319
Zn 7.543544036144038 10.299425084763476 10.185450758952104
Zn 11.357648704225948 14.484787277136183 10.364769219694331
Zn 7.070958188658634 14.497699677685189 11.48899718860445
Zn 9.416655747984855 15.36703558898701 11.817147403789686
Zn 8.941406602518034 14.381487819015296 9.415446844930074
Zn 6.9359128876957135 12.784353303900621 9.756164926973339
