41
Energy = -27.22512715 eV
Zn 7.748896628626816 11.894370517654265 13.056010716892995
Zn 5.7179804815166175 11.793222435893929 11.039898172316313
Zn 6.60304171409613 13.122886889199117 9.005301100403306
Zn 8.336854704485333 9.438160064312195 13.727521759242354
Zn 6.674112279345716 10.535563571612286 8.892641500774541
Zn 9.82802157199689 11.376263919196225 14.725245687707128
Zn 8.583597137262734 12.124564746944504 7.789162503376811
Zn 9.67561418556901 13.6522729841933 13.803094753224649
Zn 7.145648112066599 13.865942139427265 11.41235456658509
Zn 10.318588342247548 10.31041184189594 12.121450964436013
Zn 6.84557026285215 9.646754518639113 11.635784508723367
Zn 8.962539542938163 14.331267021263711 9.41417548049431
Zn 8.71687446060102 11.493122174325883 10.54541622097549
Zn 8.587669705904883 7.701850487434623 11.836010010406183
Zn 10.65527992094932 8.903085237832736 14.511041408344882
Zn 8.716012260542625 9.561216800981834 7.56598003507324
Zn 9.159263970055417 15.226649689723496 11.891024687997975
Zn 12.304221433146964 10.85357256684066 15.063534510634376
Zn 10.899292750343557 11.15730349781984 9.266170880545461
Zn 10.713545198807855 13.017777588867428 11.355431062281184
Zn 7.7036987693425925 8.367257544593572 9.56838454645789
Zn 11.06841427469446 7.552195779508123 12.259754464493268
Zn 10.540436896176749 13.577354426499397 7.120685714860047
Zn 11.547974440437207 14.351407973988193 9.25150686465069
Zn 13.031184863044173 8.539923362857987 13.510890720591165
Zn 13.071012121749236 12.513748500102013 10.200371501195995
Zn 12.514099811434912 11.774281097968982 12.646526669127239
Zn 10.310375436477617 8.607052052354668 9.799142074353117
Zn 10.794696847677887 11.005499052366373 6.61903148807637
Zn 12.499852732805431 9.709811838394529 10.794227544278783
Zn 12.830434132224468 12.523076782582446 7.507301987722338
Zn 14.566925081854206 10.661072052186478 13.735455420815303
Zn 10.942527857810786 8.473544561481088 7.097408467708016
Zn 11.577742021874695 6.001061468001789 10.276831076485148
Zn 13.616132201183062 7.196284983755926 11.228236529191443
Zn 14.870340431971766 11.33811835234935 8.733006852120411
Zn 12.934545596413395 9.913773429241031 7.833224059952466
Zn 15.315123440452734 8.800891378948725 12.153093797109221
Zn 15.067352647194284 11.175910497842032 11.267658923466133
Zn 14.85154035294842 8.904553472625771 9.549102750282275
Zn 12.78947851410512 7.479744087580858 8.644561004052449
