40
Energy = -26.5069078 eV
Zn 10.216409902994853 15.673297202747285 13.776143230861623
Zn 9.20394144059974 15.213919827174044 11.54771534348188
Zn 11.801816482667986 15.321414549539256 11.652509295961917
Zn 8.586138815683512 13.55647041799708 13.538608971215528
Zn 12.566593864064547 14.750363973843596 14.10682869311021
Zn 10.604174603693977 13.570239255976455 15.25109631639068
Zn 10.941561347217988 12.82326018629056 12.29017469734134
Zn 10.183819253131789 13.315303527157882 9.774329683920941
Zn 8.472077237454993 12.094281372739898 8.224521915833131
Zn 7.758229346175815 13.25472587586635 10.862994752723727
Zn 13.77359278711548 13.407405481247396 12.167531721859051
Zn 11.423473105697113 12.5491928115962 7.651131649525017
Zn 9.747326527433067 11.305487322518331 14.370514183980685
Zn 12.627708672723042 12.139888732389226 14.246297514120686
Zn 7.573847544760281 11.247365190144123 12.871479591104356
Zn 6.9828404186981 11.033327883871603 10.116780579734096
Zn 12.757545441877367 13.49590153545373 9.759273241796308
Zn 9.665084775154995 11.364217228180403 6.048200032556741
Zn 12.264097399019219 11.150672271967718 10.849790071417726
Zn 10.541095215154282 10.355301708921775 9.026953520250526
Zn 9.565703196980813 11.041349900793508 11.222624185395224
Zn 9.078997756407105 9.083025014959142 13.448864450048612
Zn 11.751368531638963 9.897525099859022 13.306815404598966
Zn 8.04073918748666 8.850440912052258 11.048248250011463
Zn 14.22824298511125 10.835717967024308 12.684361894433794
Zn 8.118770439974936 9.456227313832834 8.525437304372113
Zn 15.187146072976278 12.501296962517705 10.259614785596282
Zn 11.973532064011021 10.099780666394468 6.8465980518612986
Zn 9.618886836926999 8.814319878404415 6.633571876304447
Zn 12.938261251513971 9.077926669831918 9.174771275178408
Zn 10.933463747060921 8.848994378256904 11.05739256889062
Zn 11.665687449522855 7.1926441407809625 13.179591871526636
Zn 9.19352060375967 6.881338593768662 12.180456844261208
Zn 9.561214974709717 7.287628164649608 9.41456913573288
Zn 13.672119677133631 11.424656171113181 8.426233034261404
Zn 14.986908306089457 10.016374018984433 10.380843967750573
Zn 11.514366615071 7.533825688479341 7.655194345891633
Zn 13.53801780599557 8.381376826114245 11.785020686592743
Zn 12.375935495214767 6.6112561527114915 9.89277659867546
Zn 11.0469906337422 5.332222894166208 11.522573930573376
