46
Energy = -32.8689498 eV
Zn 10.511674173660442 6.739851716017961 9.907324471449664
Zn 12.223291815297024 7.752680419585705 8.36956900062961
Zn 9.886952890670786 8.685526563775364 8.183301898171218
Zn 13.072483073212146 7.856591672488749 13.331507869088554
Zn 8.65659669491626 8.18783288539289 10.898875188630305
Zn 11.934967600805011 10.24085640140982 7.61076239114009
Zn 10.767975782622504 7.36922738139186 12.332642195938872
Zn 7.828514601302116 9.786670214793455 9.05500202501143
Zn 12.896443143285794 7.610965218741107 10.837167175029437
Zn 14.062306845342835 11.582126487227605 7.720747994384616
Zn 9.197533568692144 9.441909753084378 13.122937224100335
Zn 15.398687905243058 11.375238982075574 12.434753311352159
Zn 14.867639036954527 9.053015993095809 11.594708172515347
Zn 14.124013722129293 11.856385664950418 14.768244333447534
Zn 13.902132495156941 9.445790814267195 9.244603302555138
Zn 9.663873566324758 11.280249273296075 7.965515399789299
Zn 11.12530440895281 9.810226580318565 10.497504782772687
Zn 7.5936997658710315 10.514541005848544 11.464812367019992
Zn 10.898533227728409 8.336188781777857 14.654186387954306
Zn 9.865379316894188 10.51489326271891 15.356598236225997
Zn 14.78030952478159 9.477399149886493 14.120526250280442
Zn 15.363915124748845 11.371508785392276 9.897917939847757
Zn 11.72265937746684 12.833054305807092 7.435016610075083
Zn 13.786180309229021 13.808356260894408 8.79475546888802
Zn 15.026689370995323 13.582509260029118 11.003600843197919
Zn 11.967620329873666 10.487556509442825 12.868620018868482
Zn 7.770512622314755 11.505987263092987 13.829251889592527
Zn 12.78061123247085 12.887156109959832 12.41165167774682
Zn 11.850194784783495 12.205166822444637 10.041668405621605
Zn 15.506242623471149 13.630708460765563 13.578869370185298
Zn 12.60434169615149 9.947110832123986 15.505713276987713
Zn 11.684681431386261 12.371607969157306 15.364177196238153
Zn 7.7728123876380995 12.291461310351034 9.434566267610947
Zn 9.298084182893476 13.801254674382946 8.077532973541592
Zn 9.986521799504846 11.94702312714789 11.909650829069887
Zn 13.15955816937639 15.413336775163055 10.605170838451539
Zn 9.209356991734253 12.933011457452828 15.245993284329293
Zn 13.302082363858112 14.385627611644509 14.7593566588287
Zn 10.775525292878799 14.48536015006512 11.580190013696729
Zn 14.695551704166856 15.740967133028473 12.576149716543378
Zn 11.266852255161 14.900566911337144 9.026422786631818
Zn 6.9751889779159955 12.953749785100628 11.760732312842025
Zn 10.778194224263986 14.685931528244312 14.392410435349488
Zn 8.55933793597845 14.553363637347365 10.397822030118679
Zn 8.645576794107523 14.217931884173524 13.07597140925018
Zn 12.233145244116344 16.121273599636634 12.935248155328866
