42
Energy = -28.54628516 eV
Zn 15.204586247131463 10.08559643363595 8.97023122464423
Zn 14.054917959342347 12.19248794641878 7.946778795357017
Zn 12.063425434770785 14.083609472715544 7.663656533490136
Zn 13.682835837792323 8.2898052522291 10.121049878423271
Zn 13.896981667374014 14.53933573231503 9.275176239729714
Zn 15.632070650641849 12.371596820513853 10.020227987459341
Zn 13.145066054746865 9.559152398267173 7.651875572069841
Zn 11.471130198538242 11.622313744327515 8.094913795086145
Zn 9.54251833048621 13.607911305350589 8.307461735386566
Zn 9.043290842971187 10.977606959823046 8.58553378892901
Zn 10.661726329332689 9.195171931987364 7.46523120829897
Zn 15.658047213488961 14.613110790922383 11.114321395155898
Zn 11.907920189287212 7.260828203779284 8.558185062902448
Zn 14.552993323203882 10.368054121461899 11.472537503818387
Zn 11.26456783268294 14.921352226692324 9.988753886903933
Zn 12.87485423974432 12.281862691999256 10.504933188917017
Zn 13.099820095503079 8.673591549940738 12.676908032535154
Zn 10.314780403887355 12.198845979939573 10.570216410015442
Zn 13.172277330483604 14.551118728558102 11.828747872071181
Zn 11.604795853744731 9.96689719380883 10.19068847107485
Zn 14.914338837552371 12.622934153047249 12.626362043866148
Zn 9.457940040922653 8.476077159636631 9.593994394382834
Zn 14.064233024224748 10.639274546889078 14.086104351210281
Zn 12.648877203304737 13.028298393764507 13.933886736533633
Zn 11.738778226118091 11.028892646352078 12.468322299535737
Zn 10.696934241101939 14.094132366133868 12.354120839574673
Zn 11.398085821267953 7.408036677063451 11.200073238075248
Zn 8.738003515348076 14.871963705883132 10.414948275635142
Zn 12.113135075836096 10.957302051585032 15.556635979474983
Zn 9.411462018525794 10.152442472422864 11.882934599585715
Zn 7.3581448629004935 7.4633453417364315 10.613326725492438
Zn 7.232772362702718 10.089442215583578 10.159140816157803
Zn 8.331214255260573 13.036186510046564 12.26661596863261
Zn 10.11648883896248 12.35855009993073 14.16108356931671
Zn 10.910180351271132 8.890026946996084 13.872916669823852
Zn 9.658380618231288 10.364996971134254 15.644491531261556
Zn 9.139045838006414 7.353319096829148 12.438215524662391
Zn 6.918538717363411 9.129765601540553 12.562657341484526
Zn 7.464024506324512 12.72750274223725 9.78254232722177
Zn 7.750645928655417 11.088914705267923 14.059612659707248
Zn 6.2510656729764555 11.571507116423327 11.991689398731273
Zn 8.289227462570928 8.535353107019072 14.595427115973438
