42
Energy = -29.28952408 eV
Zn 7.453488034719277 11.883088666342722 8.755372619623943
Zn 7.599922229789123 10.295849258001452 10.839232398156298
Zn 7.140626807077243 12.863140389016573 11.097702051347369
Zn 8.244767117101448 10.87754923787752 6.547600110567416
Zn 8.754077335517396 14.749410225790278 11.568517207122134
Zn 9.463810234864118 13.456816180837691 9.347894336382456
Zn 7.997394947441017 10.843962303524526 13.472436839159228
Zn 7.025786934629828 8.441702494478562 12.527042730073896
Zn 7.997877369473057 9.1833488625979 8.427358241359864
Zn 9.81458814246449 12.036348608239818 11.776208666375995
Zn 7.777347458683445 13.547681698590921 13.511328684683255
Zn 10.522463638375573 9.701498457579241 6.94098420841055
Zn 11.112739978406019 14.96121445595223 10.666399704509983
Zn 10.280761020571505 12.336052497102303 7.100428503230983
Zn 8.180761352546396 7.517451043285058 10.39979811165662
Zn 9.594178160067239 12.527761858054564 14.837862972402123
Zn 8.63283010958144 8.434205184397229 14.506421382514887
Zn 8.755507797124485 6.561200782939737 12.739824783760712
Zn 10.004163910998123 9.436042165289992 11.812350633683668
Zn 10.63013217830141 14.397431203495684 13.325320521913492
Zn 10.04801682337221 10.812549136074718 9.482860062549276
Zn 10.434769919883959 10.168673474585606 14.608102054498303
Zn 11.892455694284921 12.164167213082957 13.545070255284756
Zn 10.319528756429607 8.052151868162417 8.934116250085754
Zn 11.79247716669268 14.049292117637641 8.178210481486557
Zn 13.087637296252 14.156492037748714 12.277700934326463
Zn 12.073645814303887 12.273360341444413 10.518647600272041
Zn 12.521652389833857 11.112492137539553 8.063937512682473
Zn 10.709044394977244 6.788704010124437 11.143302179956336
Zn 13.47039633985868 15.10744097166001 9.834415397044488
Zn 12.18659526672906 9.65884478395645 10.380048755303765
Zn 14.13689724799306 11.590603800285322 12.278461344400663
Zn 10.968410661885112 7.615176755742075 13.685219509408814
Zn 12.519831846326833 9.66213924498933 13.063989477505427
Zn 12.620711621948555 8.433542722440677 7.590987688012655
Zn 14.171163873731002 13.108176648705658 8.338194243595598
Zn 12.831833997331714 6.909180276424688 9.629443652211497
Zn 14.743815320183362 11.004846359436778 9.787751307668772
Zn 15.071578216686051 13.380418107006303 10.758331734288086
Zn 13.092223580103148 7.2676698737021805 12.179393672740472
Zn 14.724239979440613 9.130993920058577 11.575236419111228
Zn 14.67549673289634 8.535742561491064 9.063178772895247
