49
Energy = -35.20889413 eV
Zn 10.159461531917739 8.648261308463168 6.116658724485719
Zn 9.280817616776554 7.035096570851953 7.760216831805386
Zn 9.811998675230246 11.22532576604641 6.852090817577916
Zn 8.075806132633183 9.373662307647171 7.730687419472394
Zn 12.149510352117495 10.06020873140333 6.892361422131173
Zn 11.915869301014427 12.623422037106673 7.271405535587719
Zn 11.899558588175042 7.657810904684361 8.017304166263994
Zn 7.583651218795233 11.898176779001576 8.061762826330172
Zn 9.534060803375366 13.499284751914066 8.105259175190909
Zn 11.667329704625212 14.74428611641959 8.657437283077735
Zn 14.226039571346185 11.461024936952892 7.412501872058339
Zn 10.609679920389226 6.7355518570933866 10.05976976453375
Zn 10.417664566492027 9.659718131836785 9.00115561942107
Zn 12.244560337965543 11.316974294125378 9.68750906632717
Zn 7.620157213313016 13.427041986262166 10.072098627723465
Zn 13.885270280908067 13.537094836776824 8.907924428266101
Zn 8.332503251698935 8.14727270085809 9.971215323660413
Zn 13.86820878775275 9.215164635656043 8.692868627851569
Zn 9.667906649235846 15.048965184060114 10.142013368674702
Zn 9.565066241017323 11.553418725762755 10.505305156560123
Zn 7.02390421646974 10.447467022959243 10.035679569985877
Zn 12.892234062487386 7.655778770297495 10.652469459274698
Zn 12.940093401630582 15.302242124619488 10.76863466636569
Zn 15.21490358531795 11.372519057279971 9.738406049812221
Zn 10.884184261688077 9.389238099768686 11.462172750759681
Zn 14.51766168388562 13.304056488649744 11.35478976403134
Zn 14.916318141776943 9.151100639208089 10.985640335242847
Zn 12.818199804229646 10.986973256203974 12.150985913558383
Zn 11.332848980243794 13.062578014478571 11.468289702991802
Zn 10.883289546216856 15.736611351352998 12.260017743052032
Zn 9.231366746667389 7.160452081928698 12.152061173536085
Zn 7.265653125072381 11.934961666987535 12.191857369600623
Zn 7.88199984261942 9.361720644739231 12.162851801669339
Zn 8.661901147722169 14.202919886213566 12.29621143953587
Zn 11.523555124957117 7.271643429045654 13.150518456224551
Zn 12.958896541272429 14.456578624709422 13.239979203349879
Zn 15.70915188484097 11.111448408195207 12.285705440990961
Zn 13.731903335519279 8.363220662103302 13.066030512925188
Zn 10.141452058224946 11.23141092647526 13.12356661460194
Zn 12.428428182996795 12.294030969917626 14.668539178712347
Zn 10.543113155915638 13.968138333662502 14.12454841326111
Zn 9.47709102195939 8.685396755188195 14.200561315405292
Zn 8.265047526965246 12.838167531293637 14.434661868649473
Zn 7.519223320805717 10.41061429508141 14.405641200198795
Zn 11.813653516699878 9.660334218975827 14.567857283854028
Zn 14.818756419811837 12.847213419785433 13.870518060360537
Zn 14.345704127196 10.413566512574528 14.442327142756804
Zn 10.305663465602823 12.04830785481258 15.964327187982233
Zn 9.021012070496676 10.045877434639387 16.439935368382645
