41
Energy = -28.42653593 eV
Zn 10.8951929370583 8.120951220632382 6.45107907292791
Zn 8.36302228225368 7.837440685516287 6.154027040818311
Zn 9.176671061478663 10.291394929794512 5.773092050154369
Zn 11.671483093210458 10.540361528179472 6.075326382203184
Zn 6.858958541785975 9.831678107291207 6.760581995223287
Zn 10.25793328047233 12.135458498646619 7.485432302991956
Zn 12.884731652917793 12.227045582743264 7.61951652747069
Zn 7.735498941142413 12.131437304391694 7.272189288522984
Zn 14.825844777137487 10.724338732170606 8.32329266132307
Zn 9.452193827605216 6.600468773287992 8.132582446278064
Zn 13.133842707616282 9.037466764806194 7.503689582701728
Zn 9.305061635123245 9.553918776153697 8.490970240583485
Zn 7.100613510934531 7.98316993644056 8.451405586084212
Zn 11.49808378077975 10.538718813863767 9.397185503878216
Zn 9.08833994611176 11.387091037457216 10.29432181608013
Zn 8.790223753992818 13.806916794003223 8.92550778544659
Zn 6.5848461916805645 10.768874668332677 9.15915567531437
Zn 11.372921468301849 13.230637621166732 9.581725321911936
Zn 10.484386599780642 5.905326322450945 10.424526715568794
Zn 7.985263600239107 6.5189789184876545 10.331836427188117
Zn 11.625130160343296 7.850523277059667 9.194107639575112
Zn 13.706554581251325 12.13470708193055 10.164491350273419
Zn 6.985041009378855 13.6565678440002 10.644888701592851
Zn 10.770565482377368 6.280752653599456 12.831158567113032
Zn 9.87237454486437 8.797600177462511 10.901591214759737
Zn 12.391731149310257 13.251169300280097 11.972718459306344
Zn 7.152453175114826 8.905977407487791 10.906214869360841
Zn 13.737492364453296 9.32114420905905 10.152815534930262
Zn 9.675264511240142 13.917837586254725 11.394962461458004
Zn 13.875154806761367 10.658247374956591 12.347046415478419
Zn 8.301926106604128 12.491683299057199 13.189200948107526
Zn 12.193644590004896 8.319478941600147 11.99698674804077
Zn 11.005138311134068 10.891105166242832 11.953339902067743
Zn 12.731167710326135 12.052880359222385 14.21216120795373
Zn 8.357694525008815 7.283142549566301 12.741105900297022
Zn 6.6314299959062035 11.39092239181573 11.632106498655855
Zn 10.577571537648039 13.326772924059874 13.743552466406781
Zn 12.566348977785566 9.53167179993439 14.321849781008495
Zn 8.472000603364267 9.9378045057806 12.971703481704965
Zn 10.281415627622202 8.472449923306284 14.083418771258437
Zn 10.255277697956423 10.986377269586448 14.66762571605745
