47
Energy = -32.47936209 eV
Zn 12.904249631045591 12.160273142856113 7.125283802981609
Zn 12.467681126416876 14.347530744274337 8.615765250024861
Zn 10.474370254016446 13.50485657095052 7.273795280538854
Zn 15.025496004092762 10.775169624036124 8.706604458858086
Zn 8.622497903092096 9.81649219345807 7.376834412479716
Zn 13.044142968306392 9.569743082944127 7.6480069261802
Zn 8.549392104401761 14.636742228417535 8.39925554845575
Zn 9.208523905762885 15.590947949504084 10.722083078124156
Zn 10.849452777668999 11.055559913880316 8.32874200642246
Zn 12.729858118990391 12.005743831146008 9.986321394635887
Zn 11.750812717201972 15.714489743120867 10.662420147165513
Zn 7.452930403632722 13.702734248019315 10.4881082357256
Zn 8.30255180151867 12.002677634689537 8.666619874994034
Zn 12.380957367519805 7.355594946850822 8.777239493238037
Zn 7.719520906418741 9.623770280779812 9.867935702554648
Zn 10.555972562579413 15.841360784321628 12.961091137441644
Zn 10.386938154878354 13.07239532752637 10.15197710721458
Zn 12.001515346163727 13.270921680779972 12.13202378043271
Zn 13.075971189453611 15.648013986644882 13.055936397561426
Zn 14.043186073124405 14.622825657184212 10.683480010817902
Zn 10.778030380435878 8.424744780484096 7.104375196705488
Zn 7.368089274308472 9.376974948447266 12.46871102988204
Zn 8.807797839481175 7.614400687300092 8.58087727298465
Zn 14.83877425837412 13.253594605665194 8.411889180779536
Zn 10.545005409776296 9.190640378028936 10.019411667730747
Zn 9.205282762564552 13.670043922122147 12.584859557119444
Zn 8.402488424102755 11.489473257382791 11.529259309679594
Zn 13.403300247597457 14.114304787765034 15.125813924042884
Zn 11.146638072754149 10.921690623309617 11.723899936351321
Zn 15.604287227160146 12.492853452648808 10.682707816433432
Zn 7.8389615530907255 7.104348500289369 13.638968653171734
Zn 9.781322661275393 11.526215296872383 13.925408458618664
Zn 8.620630651225952 9.331161745886178 14.721629166573669
Zn 8.174316982414464 7.226134528037825 11.070461083861218
Zn 14.692338956186912 13.581397902553592 13.003422649043538
Zn 10.931625321332072 13.842967911925857 14.574974794510435
Zn 12.544990482496868 11.68826048317651 14.322284519586871
Zn 13.983972787241578 11.270462102434506 12.18050205573337
Zn 10.423345694825032 6.411421253359607 10.152568983415911
Zn 13.410159903136387 9.41048251295092 10.348888889063467
Zn 10.152332816468085 8.752091486470018 12.423607061408662
Zn 11.195099348329205 9.48307039832833 14.768763442321417
Zn 9.854855086678253 7.120009222332797 15.201465719843076
Zn 9.991752186303298 6.035272402064748 12.676201345629625
Zn 13.119349701557667 9.102251494982694 13.023363594937978
Zn 12.512943895524774 7.118983147785419 11.39518795984603
Zn 11.998773365205565 6.985792336768898 13.93469060071358
