40
Energy = -27.11030561 eV
Zn 14.702664945744731 9.46291283308853 8.031780131952283
Zn 15.33986493865448 8.082235702269275 10.018298266908218
Zn 12.275708724614976 9.7736443232467 7.354209824454502
Zn 11.920889927497932 12.289750814803018 6.523613139240276
Zn 13.774909525650544 11.904557044455885 8.173197956283069
Zn 15.246975786874989 10.695625089103741 10.283656180730988
Zn 12.894607777469641 7.717994576950676 9.187205125197597
Zn 10.540600841747528 8.524639985541143 8.906282965094602
Zn 15.125842554140272 9.136459124292712 12.356252126035782
Zn 10.08350046396012 10.965914477113763 8.043124834792861
Zn 11.593383350615982 13.275458372997015 9.219511808916312
Zn 13.594184853781123 7.1930012511702275 11.627309548096816
Zn 12.317945043353097 10.4170513585142 10.080596560923242
Zn 11.121477712761063 7.132582385331861 11.835466868459637
Zn 13.75465681621567 12.84435286936131 10.544792441383965
Zn 8.963922096601452 7.277664816338203 10.405124856766262
Zn 8.33695902247292 9.830603801763472 9.585784362733511
Zn 9.81870666117277 13.48319111436685 7.2408496717258855
Zn 14.66590964641067 11.578751004966282 12.750820785314254
Zn 12.58032730660004 9.246695525358271 12.979086814291605
Zn 10.302303392297262 9.680361519755394 11.458223069888694
Zn 6.984326260895608 8.603645279676105 11.425595067137797
Zn 9.301692993222249 14.518960784386797 9.472640189934038
Zn 6.551923727363376 11.165586726481804 10.98899624902075
Zn 11.843151953651159 11.722677638158737 12.228739139034875
Zn 13.367980408936248 13.957005559730066 12.753015331019157
Zn 9.595800970555514 12.10163042872327 10.883755308512987
Zn 7.982286552504706 12.266917299745954 8.631780449444491
Zn 8.747446000805734 7.450558632543627 12.927929060449777
Zn 11.015608641529631 14.33693829665553 11.623245906434061
Zn 10.240683917971033 9.082070460387826 14.144346435041076
Zn 11.862469198773669 10.888975128291358 14.924536304813161
Zn 8.295626804930121 15.224729862358377 11.641919074825864
Zn 13.742870199511954 12.54286588687253 14.912154092975468
Zn 7.442178080169143 12.898286647203518 12.809760905556802
Zn 9.74101897764477 11.957206977581437 13.852070056522662
Zn 11.526369722186827 13.746295904929534 14.477900694943486
Zn 6.809509676117697 13.595668509077624 10.360966710863146
Zn 9.280425732121493 14.61918092738342 13.794937070387425
Zn 8.1477635604231 10.246303967209471 12.957077622647846
