41
Energy = -27.30953827 eV
Zn 8.766393333915941 8.55356006939013 11.864165575515976
Zn 10.792454759595202 7.790112506760219 13.075025399958177
Zn 10.85128258974635 8.069807462545691 10.255977368531978
Zn 7.2963071182605415 10.381491529886837 11.135757637110029
Zn 9.247120817894094 9.818093190236377 9.409966982419604
Zn 12.898559817895034 8.29970246015515 14.312509082087516
Zn 8.340026646850987 10.748863958903254 13.717838133239376
Zn 13.002943799179526 8.138831041602415 11.587549084431753
Zn 13.224955063806062 8.154775469886465 9.015683120040512
Zn 10.673102849781534 10.661157968775731 15.220187462699695
Zn 11.264574711305418 9.353201147311506 7.811431067729815
Zn 9.506882387523733 11.214444933432642 7.101148857066994
Zn 7.688278019652811 11.837685778704776 8.790448287818181
Zn 10.667097058415841 10.42106806673212 12.517557937617246
Zn 6.033150501180566 12.481147526375334 10.629543934202967
Zn 13.087634248584722 10.368543989431354 15.889733381249155
Zn 13.238971890346587 10.621534516106914 12.875159353927286
Zn 7.750100826922626 12.862392823846537 12.47640387834331
Zn 15.259594386326066 8.294772571181028 12.588631472694408
Zn 11.951471731330727 10.540226029637935 10.368699564859655
Zn 15.178040066998488 9.413160476877069 14.9047855451374
Zn 9.754553307293373 12.13020944859275 10.639245996558522
Zn 9.932826613302348 12.853410713719459 13.972381412454288
Zn 7.853652717301687 14.22980168415062 10.124786894598982
Zn 13.752225750134075 10.349133131403729 7.95047858191014
Zn 16.178652717787045 10.595963413557044 12.735422648225546
Zn 14.812955219864495 10.119896859564587 10.512363285917726
Zn 11.784385889424543 12.06809787670966 7.880565838890847
Zn 11.992213264936284 12.647864982243892 12.016385920203161
Zn 12.43276720469275 12.706083621760076 14.70599397822712
Zn 9.582973794245767 13.600792376557035 7.935368143336539
Zn 9.687294797873914 14.590169207921354 11.97079869302175
Zn 14.928541463410976 11.94116852938101 14.57631773791675
Zn 15.119036902924794 12.675907904257864 11.877042962970236
Zn 13.751409766615799 12.361086375552029 9.666455153742447
Zn 11.581545088672172 13.92697355972117 9.694693896530005
Zn 11.748938233382015 14.983670057887743 13.488590013230715
Zn 9.663419400079388 15.774859807933106 9.362902892267668
Zn 14.204480292282383 14.3174680084566 13.739400671446711
Zn 13.681401505507603 14.67012011031318 11.248820795839281
Zn 11.62325814970707 16.144074012397347 11.142328200578017
