44
Energy = -30.52353915 eV
Zn 14.54348864654768 12.976186615024403 14.803315127573912
Zn 12.170261215316017 13.425660729090938 15.569162074727748
Zn 14.984067195850807 11.087169793862502 13.197071070585038
Zn 13.22656058007093 10.86942058474779 15.209710152369059
Zn 15.33489573159605 13.82423047209687 12.527619356653299
Zn 10.913996411465519 11.281057680085542 16.26737075308853
Zn 13.221721219029778 14.851205993091009 13.488813059890331
Zn 13.580885818276837 8.888766833091937 13.597566789263198
Zn 10.795799220985879 15.089808045602101 14.222272288395677
Zn 15.326082025039927 12.108109029558092 10.61358865196411
Zn 11.271190046925419 9.155791493683092 14.84490241192905
Zn 9.48389650940003 13.243213148503733 15.441210926899105
Zn 12.879543589377713 12.30275386083613 11.597039871831493
Zn 17.682010221839192 13.23354703556313 11.369817132004046
Zn 10.9517982174318 12.229614358491705 13.233346194069227
Zn 13.815113821006268 14.819522121432847 10.777142683700006
Zn 13.242991032685785 7.387299307746651 11.548757669763694
Zn 11.550376032672231 7.083014562731566 13.334612153079107
Zn 9.133538854369709 10.616093093697021 14.56451551292904
Zn 14.292756825856427 9.731971882816232 11.127038236680518
Zn 11.344154010228383 14.68370780206429 11.726561686929738
Zn 11.703875939963474 10.024873827214428 11.944361002709327
Zn 14.313703609549023 13.443646921751721 8.6491645363734
Zn 9.62627002556249 8.668887672166509 12.798192180059752
Zn 10.81234038868731 7.460515624237132 10.674704757192927
Zn 14.33302560841266 10.759384307719177 8.651617218453827
Zn 11.65750611778046 11.023579036108893 9.542469355379746
Zn 11.87123235794161 13.853692544634786 9.325599911187059
Zn 13.01124796717411 8.422893324117034 9.28307746312928
Zn 9.34959906933904 14.202402518647583 10.128615274087812
Zn 9.681611938144869 11.602395328385855 10.991862404308158
Zn 8.905185712052841 14.463596079678577 12.70814952561584
Zn 7.671392010912035 12.543255972986175 13.81328782772646
Zn 7.755034035314642 10.402149620033299 12.368850514609148
Zn 8.710951896473894 8.916821419903279 10.312243649322182
Zn 12.508699499923745 12.341407463263756 7.219509993051475
Zn 12.760694625206717 9.551113723004446 7.088970292160404
Zn 9.944250960117692 12.84308714297267 7.912524238996713
Zn 10.52818270320122 8.647053206782479 8.40204480446253
Zn 7.62742679696639 12.835281021317254 8.82255213509151
Zn 7.2900596510650155 12.960916605241529 11.353105076548257
Zn 6.873987973387617 10.760958537519357 10.016902648311975
Zn 10.60498655098796 10.70700999451454 6.697038967842479
Zn 8.590789728893817 10.410160671419568 8.17825652065852
