47
Energy = -33.84288298 eV
Zn 13.962140042177598 11.68651981293554 8.11756459032346
Zn 12.774759101869872 9.805434337325178 6.772908248545901
Zn 13.842472872870172 8.603030282612314 8.708837564442707
Zn 15.03319937132415 10.568231511559272 10.03482180483147
Zn 11.790288181403536 11.812658101262647 10.657223124140387
Zn 12.386886658653614 12.481972106574446 6.288215403331849
Zn 14.124860921486475 8.618382131407323 11.242028112847377
Zn 13.019365245195205 6.822646921663573 12.514342300072144
Zn 10.30831386423215 9.627721060512492 6.226370224218525
Zn 14.227476251467388 13.005416882491163 10.448903706540323
Zn 12.387320846283096 14.724244018121023 10.932133570113214
Zn 11.439127050592887 7.644491177773435 7.692803775020234
Zn 12.409699925992662 13.83416940901222 8.582735790670412
Zn 12.759469843580543 13.261369951934942 12.91045049243068
Zn 12.91820547213681 11.38127449846988 14.583079724319507
Zn 11.384167877000243 9.336811394479367 9.755933464555673
Zn 13.64807104956037 9.049618701601018 13.86007525143608
Zn 12.304200691997794 6.843558153980049 10.053725340102304
Zn 10.999621278783572 11.290023045349475 8.25831294576466
Zn 10.299364000611936 12.020609598494895 5.059336660378345
Zn 14.209098884942366 11.144881751842139 12.375054359849782
Zn 10.351808274546435 14.233935667134686 12.371120892342043
Zn 10.09118665882943 14.461177353570518 9.785206194542925
Zn 7.0173969693075895 9.133074490345122 13.072164927192901
Zn 6.2261674771628215 9.7184718999974 10.7666970042924
Zn 8.003169648106349 6.916780228265191 11.895279029623303
Zn 8.356388105194739 10.843816988114277 14.52484558439689
Zn 6.885504309523611 11.662361386223058 12.390615458728261
Zn 6.40621092645408 12.087641316285678 9.829780048291516
Zn 9.2030321211632 8.234963548253488 13.896669604313601
Zn 10.536452414600781 6.662491917231874 12.035636869232036
Zn 7.01455410657418 9.9565251929238 8.354581242298327
Zn 8.014705857885893 13.72859761217048 11.168714716804784
Zn 8.350159702339601 13.343214441711211 13.684349659920667
Zn 7.3110108265875215 7.732320859397395 9.604918563460352
Zn 7.920861490067353 13.629481841763827 8.51481008308172
Zn 10.692032335280473 12.638228388212765 14.504600283431541
Zn 10.789038543608942 10.03910966795804 14.937381581928518
Zn 9.215936961082784 9.140169837027143 11.166434529914518
Zn 11.577385882654628 7.612843679387844 14.378507953282979
Zn 9.737429538699649 6.690047544738056 9.585133758209006
Zn 8.861539374325083 8.238079948037738 7.692080854589815
Zn 8.53273650575315 11.451195269188618 6.99749210287753
Zn 9.790839090061391 11.519248846834401 12.239707550560183
Zn 8.978165955449269 11.269155037227621 9.810484320432304
Zn 10.127578046975053 13.630850048168853 7.264467129599946
Zn 11.592813891143843 9.675366585967625 12.265678048256179
