45
Energy = -30.92037389 eV
Zn 12.665850638446743 11.941452151747814 10.625246089397645
Zn 14.270836187943422 12.164414844834557 8.125547028018598
Zn 8.810455552537617 12.781481632196641 14.343962601898264
Zn 13.11242827361025 12.25828686505357 14.209132052765606
Zn 14.09296070819452 7.6642325337391295 12.574679506111954
Zn 9.52449969826625 7.520765146307443 9.445827559901087
Zn 14.928399360164612 11.925878187351973 12.292931344191567
Zn 11.144390426766243 14.734103781509441 8.253516360601157
Zn 9.13552687562981 14.806647563984702 12.801087615797275
Zn 7.263504384704173 12.224295466555066 9.920212826458059
Zn 8.072949455965325 9.648760601621 9.546145608159497
Zn 11.624601259134112 12.055853975940252 8.028603447389736
Zn 10.220140394868643 12.802862190418896 10.297254994961735
Zn 12.26845080414273 6.028864005247159 13.451224340024153
Zn 9.89633100488887 13.275122381141106 6.518497588711807
Zn 12.444334640409492 9.875658972870065 12.496052468970753
Zn 14.811142490332285 13.629251597771033 10.34715878943784
Zn 8.530602574606096 14.14548739501558 8.468581952599337
Zn 11.110556826672372 14.103300859120633 14.379518094696463
Zn 8.690439618629282 11.512340160670032 7.899288786288738
Zn 10.222329946356762 7.7157490065358205 13.788586442049423
Zn 12.966081839395077 10.512119205870832 15.998721064100263
Zn 9.177132438379868 10.162223540132956 13.98130162655286
Zn 14.672327786205766 10.057241334856576 14.136601462262353
Zn 7.532004627753614 14.814209169179556 10.666167148721962
Zn 11.446761659470594 7.565878089418261 11.464730136395689
Zn 13.636524593078446 14.539247771596626 8.224462267629862
Zn 10.783838629626844 11.845094171554603 15.580713416114053
Zn 13.2463056970694 13.984284201711011 12.42060941986797
Zn 13.012129569942726 10.011051674047883 8.699755966848416
Zn 7.1844015201851 13.052510801375073 12.397182115066228
Zn 10.409206485435394 9.658921900650082 8.091650678941255
Zn 12.773815382749126 8.219852314105758 14.686579537470957
Zn 11.980877253176187 7.690699719117764 8.98559899591692
Zn 8.557647624296989 10.999022329664923 11.710142027572118
Zn 10.80038320181542 10.132305299784006 10.623804625004423
Zn 12.642841532186143 15.358761494187384 10.382442845788633
Zn 9.993645708461726 15.501325757338048 10.436473729156132
Zn 10.714405015621255 9.291703877560241 15.758998647355806
Zn 11.452324622042402 15.811519700407718 12.531732285308516
Zn 10.93319416852071 11.951684714009184 12.632644237019303
Zn 8.848542115915734 8.403100665314087 11.7730278325516
Zn 15.81259045923777 9.483550139987296 11.945181681601136
Zn 15.402745366122732 10.806159490157187 9.914400900285798
Zn 14.192849800023778 8.346031537322743 10.157330073019779
