44
Energy = -30.58659558 eV
Zn 12.6995404774121 7.639555330056886 10.375364179174833
Zn 12.222679387059612 7.322070573838147 12.999026367538882
Zn 14.707178002786877 9.102052675001842 9.692615347349301
Zn 14.349443558721298 8.58582271247652 12.22962259644773
Zn 10.280540840875103 6.691257466143152 10.771838181281293
Zn 8.308218204512011 7.0474197221690735 9.115221752305699
Zn 12.858791040648681 9.249438173024773 8.010127922539278
Zn 9.61924657121661 7.1685829650074 13.160293151189355
Zn 15.836186743409261 10.848411285604964 10.98876218404987
Zn 12.865942389207703 9.600311179243432 14.22141364758953
Zn 10.756098357822461 7.83985224884386 8.491747806689926
Zn 12.977925577850879 10.780410702478433 11.082536864723942
Zn 7.857916897627613 7.923047356493531 11.448134925031265
Zn 10.97262598189693 9.30913842054847 11.684216486667019
Zn 14.48748803585033 11.79833839132502 8.954452607334511
Zn 14.833453419838188 10.977573104199722 13.331572100591043
Zn 8.55632390835289 8.548062589198011 7.120119025228426
Zn 10.60611361947982 9.920293321650554 6.669513656048999
Zn 6.7456504646655935 9.246719722976083 8.831518297223125
Zn 12.727763511197386 11.311787791237698 6.546506183722959
Zn 10.50160463670946 8.868760713293442 14.717658487631216
Zn 9.258948741784717 9.71593972581954 9.823121224288382
Zn 8.31115137902083 11.102084377250435 7.464037958782716
Zn 6.785853663043259 11.947083447518448 9.48785120069591
Zn 14.995316685025989 13.085166629066265 11.682218459861485
Zn 11.250772161238064 11.226561378850446 9.188824099822288
Zn 8.646078696760677 9.948543295735213 12.86550076056997
Zn 12.863469851954438 13.572481106868745 10.383445763934546
Zn 9.361414076642015 12.075999541166706 10.747787991141397
Zn 12.731012350503638 13.388341103802196 7.844237461932839
Zn 13.06527118912745 12.190226834738082 14.720186678198283
Zn 10.392993198887375 12.610855987608382 6.905922353859559
Zn 6.502254984332785 10.08113083071891 11.253199491277822
Zn 10.792359665088844 11.205153128450954 15.435702021136814
Zn 8.294359356405213 13.53332209924946 8.160572801359626
Zn 11.1290138113756 11.723114174167849 12.551793829674276
Zn 7.11915690218631 12.393135576229906 12.136108070934778
Zn 10.532230937149484 14.034889940795573 9.13793455048655
Zn 13.061228469963066 14.093593770075799 12.972364651021305
Zn 8.779756704051698 12.128100862932994 14.231580534985346
Zn 8.167337031238768 14.469255334413683 10.490459759286598
Zn 10.876707453501432 13.687355808358204 14.367952267240343
Zn 8.596538795244422 14.349251812542057 12.987797632765208
Zn 10.752686501398342 14.368468920672324 11.713711412494114
