46
Energy = -33.75779347 eV
Zn 7.9420994548904735 9.576467477961895 13.62375415180764
Zn 10.130262188755117 9.675451203180492 14.838155517906014
Zn 8.04612351172792 12.081888728221838 14.065787808619842
Zn 6.70244278888506 11.282600131254512 12.113553952314959
Zn 7.365188386530432 8.816138923751138 8.795190842883583
Zn 7.101390841493167 8.806418668727844 11.322718458494908
Zn 8.953109727210313 7.5148473330198975 12.575591331048011
Zn 7.674060448420654 13.631901001368881 12.008242709932661
Zn 6.573826838022579 11.117054005563816 9.654251737656324
Zn 10.095579037271134 12.203605309367974 15.412031764968926
Zn 12.672634493059924 8.888003734139874 14.931234094841537
Zn 9.56690573912807 14.329101468899701 13.669124361984691
Zn 9.185738758794487 10.476860738616084 10.594489228633703
Zn 8.100254818609558 13.1810630577436 9.543801229119246
Zn 10.354489760329574 12.10515551512315 12.353435619070288
Zn 11.059163255539582 9.56916945187249 12.229060062666372
Zn 9.163485969753188 7.52494590838539 9.994698411103139
Zn 11.203363906196744 6.864903961772525 11.370795485188747
Zn 9.650166832022208 8.716547084661308 7.628293268065898
Zn 11.039870680092326 7.271205258131452 13.951620391919434
Zn 11.902420312656654 13.827486263557532 14.692951184387654
Zn 9.728288684308309 14.864147844166784 11.143050625573098
Zn 8.319918121743518 10.954998733486013 7.822890198445185
Zn 11.688059671626949 9.776859415500613 9.679338439151616
Zn 10.819036129547612 12.34110138001756 9.713373293607596
Zn 14.341739527193218 10.208998004489859 13.426941853209769
Zn 11.394304257551804 7.1675444766363645 8.740307311429072
Zn 9.876057458908715 15.003858866635174 8.65912623363432
Zn 12.247497847404262 11.301563723896415 14.433742037602025
Zn 13.99352976541624 12.947309636172175 13.487826584329008
Zn 13.383723030624122 7.8620184579644175 12.674244876622529
Zn 12.762970341232558 11.543092328966353 11.270458007290081
Zn 10.692013411790041 11.087309603323092 6.905982090098889
Zn 12.01384084914693 14.661847224528506 12.36539747785414
Zn 12.10842778083341 14.863851570340124 9.862670136586111
Zn 13.41898563729409 7.324091686858346 10.22089812379258
Zn 15.525334548378405 11.80095833348627 11.756097920506829
Zn 12.114232813554652 8.930375200048775 6.9448544672755546
Zn 9.181386910695478 13.182810514293038 7.134764304849547
Zn 14.127045059834073 9.019330225662356 8.496202705652374
Zn 14.207986953921937 13.990269372276481 11.15135509119652
Zn 11.750044702069241 13.514041497124651 7.40284923124062
Zn 14.718008234213656 9.379196685763208 11.039693944578309
Zn 15.051443909277133 11.284832533093741 9.317100662287988
Zn 13.876681072398217 13.415811111131113 8.734051387943149
Zn 13.154817030102551 11.275389052346574 7.533504561452172
