41
Energy = -27.6868313 eV
Zn 15.14998798795175 10.372453337355395 10.775998343749489
Zn 13.33882526429995 7.573874834023258 13.316873064239216
Zn 13.93840487206408 10.093641147942645 12.972230086561293
Zn 13.844294413003906 8.08900491391936 10.954536799215932
Zn 14.54865398597372 12.032811314076937 8.922569010524985
Zn 13.608314323791964 12.344809267587179 11.361449941104903
Zn 13.453212944175165 9.689689035166502 8.810889685423358
Zn 11.443116296352846 6.628900110903526 14.767996432984754
Zn 11.920353686992218 9.518250564172787 14.428908614913649
Zn 11.8492100923021 11.854088791614583 13.193546282939177
Zn 10.83239255393945 7.870327788484887 12.100750181817759
Zn 13.955078202912494 13.439475488844314 6.894817339731596
Zn 11.866228615589947 10.05979483198581 11.14997703571966
Zn 11.725821248668348 7.737462847292333 9.542440639285616
Zn 12.931971259524007 11.17989010923046 6.658843783087742
Zn 13.029808098474605 14.098672533656282 9.331998879878606
Zn 11.41031077735294 13.839616715930335 11.420176235680104
Zn 11.516464114386523 11.90626175300606 9.414702468798833
Zn 11.591413277345556 9.065073065847969 7.206039406530729
Zn 9.545032533296887 8.225063639010395 14.765817749372987
Zn 9.785792835392414 10.795857147057008 14.6620085831123
Zn 9.910474984734634 7.125980037846713 7.754238069096818
Zn 10.009654158608017 9.837740873094836 9.359746297351897
Zn 9.530730409995947 10.990684535639481 11.666554883608542
Zn 9.638427585452547 13.219221458144533 13.199815572263887
Zn 11.429432900720801 13.659478947457707 7.224205383373618
Zn 9.103210910263735 7.375080182291774 10.180394616260697
Zn 10.69733095052807 15.10326778403912 9.261832951658691
Zn 8.24066923081093 8.320207015620436 12.490122107343401
Zn 7.387218518999658 9.535744668669478 14.533467712278968
Zn 9.0713353348012 9.184649283143402 6.417239168298967
Zn 7.557748688298122 8.085028393027292 8.108594316216006
Zn 10.296827149788495 11.417486157915642 6.8761427415499226
Zn 9.196168634736255 13.08335080092295 8.580408656687998
Zn 7.473129296114237 9.520622549505106 10.19893907438913
Zn 6.770568152048657 10.699731061362806 12.346162665838278
Zn 8.843874563668644 14.662897656462713 10.89213750245585
Zn 7.599133781093462 12.008620348211501 14.40962737485563
Zn 7.880450734389714 10.891326970530912 7.969262645270704
Zn 7.49263644780457 12.148071815098355 10.224027538326817
Zn 7.233886358668584 13.469593851245476 12.373914243095575
