48
Energy = -34.33912533 eV
Zn 14.174991179136333 16.13277837918951 12.09824912392502
Zn 15.95192671374104 14.501761007750602 11.110912223732432
Zn 11.743916923504582 16.61707916214964 12.672183733208675
Zn 18.117815311304486 13.221895048848124 10.97731976273794
Zn 11.502466076289943 15.925810658134155 10.226552538048193
Zn 13.948884189536109 15.48539024476331 9.640857643925582
Zn 13.294392801594784 15.90793992511879 14.559923930575032
Zn 7.52756716490766 14.669187922118681 10.97743883195557
Zn 14.859990797557474 13.21276047943968 9.042093095822695
Zn 14.739648273035426 14.073212434098584 13.58290085992467
Zn 9.640510969923744 14.466227088955284 9.344897010723562
Zn 9.495396913855503 15.783649189705145 11.994308995064834
Zn 12.70548695789477 14.191911366399053 16.243632904738053
Zn 16.388337981963225 12.188535000010585 13.594369449187287
Zn 10.74088548877525 15.26512643260241 14.643623978395498
Zn 13.29537931062196 11.489428158728737 8.059054668544931
Zn 11.349238656601488 9.924042579570933 7.949284363054821
Zn 12.674507091373862 13.831943384911368 11.591882523034618
Zn 12.205964808143653 13.848278511868024 8.692655351061092
Zn 17.137505417034937 10.932399749215886 11.496462952098673
Zn 10.294880219307002 12.184530727506809 8.39642111730895
Zn 14.318472355320575 12.203470633957684 15.36970825168128
Zn 15.435426370505732 10.754747058278467 9.492728524295128
Zn 10.212346451661523 13.097423874176384 11.718176153392784
Zn 8.18492531206912 12.298431720746843 9.901247794906551
Zn 11.935713394277627 12.846147861141155 13.833740584962
Zn 12.099891688777387 11.824692364442745 16.640438276224558
Zn 14.669422652612537 12.219997671693646 11.508445331033835
Zn 10.006426416815067 12.99306170354802 15.760304405739843
Zn 13.18700904982041 10.779173168041703 12.951304366666289
Zn 15.466189681185046 10.013292688589567 14.411331902837327
Zn 13.445488119034263 9.20469973717679 9.56936525419412
Zn 8.633888317272698 14.1240419850558 13.818393732866234
Zn 7.425842922730928 12.519975012476014 12.301998709547819
Zn 9.429185566534796 10.072648056369061 9.779110419305407
Zn 12.09240548510057 11.456789497245685 10.571746969125734
Zn 15.03636696423326 9.295145468035237 11.703611971306188
Zn 10.662470239214224 10.744273909696439 12.70795610574332
Zn 8.42648406262954 11.44727605669005 14.326434996745443
Zn 11.1008165199609 8.119537547884851 9.653110329786411
Zn 12.978517728208894 9.789935682513077 15.514341832566597
Zn 10.379240959655858 10.28403137690672 15.629345046947211
Zn 8.105031201889222 10.132594031247281 11.93956012022148
Zn 13.952919194381856 8.124331784548563 13.781131113416857
Zn 11.369903489285084 8.320020731784249 14.0369121489748
Zn 9.790136910024268 8.191037439444157 11.847224012653781
Zn 12.592197810142299 7.953016949321081 11.688791243336711
Zn 8.791619650035226 8.85435029738537 14.166547103936622
