44
Energy = -30.8402006 eV
Zn 13.232904546850794 11.67265472142254 12.591198078683947
Zn 11.797505016102559 7.734375940643819 12.424351917618424
Zn 11.167401676251858 14.195498270653367 6.712871598754023
Zn 11.763317664961264 10.16825223850174 10.955070374480634
Zn 7.787671797241884 7.335804015200032 10.046933372965125
Zn 9.73352110882368 11.913541070819846 11.413837564223563
Zn 9.723821353232237 9.231718982119913 6.3955625616718095
Zn 11.017119355468195 12.41249479614696 13.823669945660791
Zn 12.937070603216883 12.414642327096072 7.289841907504509
Zn 9.115734436600231 9.8366765828945 9.889356414359327
Zn 8.374278439798696 12.62576743275197 13.971536615814303
Zn 14.80568925583136 10.313194563483544 10.77900112359641
Zn 11.94332832993852 9.957836515433167 13.9768262488753
Zn 7.596528127166645 8.503765174832738 7.753991509424803
Zn 13.660400949957996 7.965772044607993 7.537765799146887
Zn 10.42008920027747 7.38496737787411 10.323979543412019
Zn 9.54889047753225 6.895011385193897 7.887539351751742
Zn 13.768879488277157 10.284454536097035 8.476210919566686
Zn 10.49882406552446 7.862968371425541 14.659265058753904
Zn 8.021832619477571 8.008726948121467 14.583068896372623
Zn 9.034448674428715 13.495878352695874 7.764827070304784
Zn 8.988663505604139 6.883342629859757 12.479233412974704
Zn 11.924714495431363 14.328608335897572 9.073952762511006
Zn 10.780106750497271 11.786127592746563 9.059500259979286
Zn 8.333944401465846 10.970830411640243 7.59484019300758
Zn 10.386958515389543 11.75829796345704 6.1474406055240065
Zn 12.375639853079093 10.008103398542916 6.186766636878314
Zn 13.992084380961884 9.001333800188565 12.686818998771367
Zn 9.674787602855924 9.590406954199532 12.389052205311879
Zn 11.793625158997381 13.706838146991453 11.633197230361905
Zn 9.646684681139586 10.44663375370434 15.021209311594957
Zn 7.531713694691012 13.86750102265537 11.77927933394294
Zn 12.025748390736796 6.278481255069596 8.507558165219107
Zn 7.257926748727006 10.34198958769325 14.100661671995416
Zn 7.608583463029382 12.401310825080536 9.605236265104871
Zn 6.9812736488823495 11.321359770118994 11.804984433417877
Zn 9.716870774448243 14.58847912912922 12.838886397320302
Zn 11.211813701166907 9.242293050796846 8.596971866215435
Zn 11.53103324412923 7.406463524769338 6.203153770659792
Zn 13.270566059566624 12.28010674960084 10.026081298184794
Zn 13.267069423999667 8.013139598452787 10.18256980049824
Zn 9.488957025473848 14.450886844542095 10.210517169021218
Zn 6.533489395480969 9.729352582695125 9.78911646782462
Zn 7.026402348675028 8.682025875539756 12.124180322126781
