48
Energy = -32.85293085 eV
Zn 11.671939871749432 13.420197909984896 5.973447497420736
Zn 12.345709686652473 10.821385782422002 6.352160728880044
Zn 14.098540483795377 13.543622317920587 6.3286869994605714
Zn 9.949659368361232 11.682932788761414 6.926817359919338
Zn 14.75784936314368 11.320118332144494 7.17098647570017
Zn 13.508025100481095 9.414955356017195 8.245025759708824
Zn 10.179314694287713 14.002732260459648 8.228090971597133
Zn 8.123142158542567 12.459094499721209 8.494560192919856
Zn 12.719614727507235 14.964436126319777 8.002862186257342
Zn 10.729314871105128 9.542619093758779 8.128077731319603
Zn 12.383417934263006 12.220329289145837 8.623410749415832
Zn 7.892612325214959 9.99403110476492 8.969700343538891
Zn 14.86464506765649 13.308653830962143 8.89157649807971
Zn 15.281456196343797 10.847891223041692 9.687422670301746
Zn 10.295379183303849 11.52425871084428 9.916235472148832
Zn 12.10015411592134 8.126035637200053 9.876735384746835
Zn 9.394331420810717 8.076482907250593 9.763597832273295
Zn 11.255867941962048 15.586642077792462 10.041271248673914
Zn 12.693512285389504 10.6944420788546 10.714929525446385
Zn 9.205800019117273 13.899881335111257 10.597778852924327
Zn 14.588850332270113 8.344163335587899 10.488577553592052
Zn 7.829760499994947 11.72041729129712 11.088411314345583
Zn 14.10566854041311 15.144755137766232 10.456230847521484
Zn 12.116658925496777 13.276522898869883 10.931100532021832
Zn 10.589143034206009 9.522752479522742 11.65584727110837
Zn 11.066201814420404 6.540453304493329 11.539165223958197
Zn 10.75494996859046 11.958317406010709 12.516186904508016
Zn 10.346682082204959 15.184292656992119 12.476877712305795
Zn 15.189192217478013 10.098941051536391 12.14809464096596
Zn 7.8570575487797205 9.210671642622035 11.588232143955686
Zn 14.591759805817285 12.631052818562331 11.52982320664619
Zn 8.702244815608156 6.8297344091548355 12.095671199285293
Zn 8.552682360476357 13.312842930141835 13.155675523866279
Zn 13.026196218259857 8.40685236946291 12.610540588396379
Zn 13.185759383303497 10.955008381372759 13.429553109586305
Zn 12.85741802230279 13.570076632752334 13.478650679593482
Zn 12.720665718854235 15.965091828319723 12.348587233999204
Zn 7.62571864813888 10.949042648703752 13.569009148842168
Zn 10.118937112703515 10.108667923798189 14.036502758087758
Zn 10.839156351018909 7.4782282866964085 13.888537127934699
Zn 10.60296853961384 14.018742918649282 14.730757799778132
Zn 8.110152493060038 8.323529730127383 14.117293289140513
Zn 11.878016399706953 11.913449060499964 15.414026507131966
Zn 12.293393078699586 9.192454582523972 15.269097111239217
Zn 9.049350317919554 12.181995560076926 15.49727265778739
Zn 8.025395796705617 9.759379794812055 16.243804861891167
Zn 9.865724370980617 8.024474037476061 16.23262878463725
Zn 10.48812800006866 10.355465432394228 16.958588999843467
