44
Energy = -29.15999694 eV
Zn 11.708675751822435 9.764546740756483 17.076079918507993
Zn 10.274216722273001 11.73644882966803 15.987923997552334
Zn 13.105251201148246 11.53807149105523 15.950981994077535
Zn 9.9903794607954 13.578833650765164 14.067228159779694
Zn 9.906809904086257 9.307875190503776 15.15465866792447
Zn 11.868979867797318 13.791458541258471 15.760081392002094
Zn 12.46102692376431 8.939296114055965 14.771428376616717
Zn 8.698922819478561 11.21743635686432 13.841945608811534
Zn 8.280049877207691 13.435463095451922 12.205299375396297
Zn 14.26852824879686 13.664383050283755 14.771819453949842
Zn 11.476868526552792 11.400813578211874 13.486366442089317
Zn 8.22645776240372 8.602134545736881 13.339679708753009
Zn 10.883925750178292 13.600591228040557 11.493200486483593
Zn 7.246414197447898 10.384201702155728 11.829144061732375
Zn 10.76095958524442 8.683195389411999 12.736753587930608
Zn 12.228930344072756 15.13478690226507 13.681020959907663
Zn 14.062632890725526 10.587699266687938 13.764681021075289
Zn 7.232529029847282 12.356539606446953 10.14661700877383
Zn 8.58503459614268 14.533136875772263 9.895633865434117
Zn 9.889516099525446 11.135532677342146 11.360932061293543
Zn 15.88979260720714 14.674225909957771 13.110435243804249
Zn 11.630565310897449 16.28205857763444 11.482294578238044
Zn 14.051602842639582 16.000268200151037 12.115210879552203
Zn 17.494157203698883 13.43915586857624 11.453159474702407
Zn 13.413653605305113 12.996756694128933 12.219189636294931
Zn 8.99025366338645 8.447311042518884 10.861694165171265
Zn 12.502964582249376 10.734680686924252 11.229153930448259
Zn 10.51306322430095 16.014927603010076 9.287141141977404
Zn 7.742171491953527 10.016445503538272 9.307098209974281
Zn 12.705628545148478 14.636440517044587 9.65870075735797
Zn 13.347900619042997 8.321112513957411 12.413986313482077
Zn 15.899201411749873 12.133641970751762 12.942070351812976
Zn 8.833283467590785 11.971032544315818 7.970845805219647
Zn 11.237414414115861 12.322499170642825 9.206252090958019
Zn 15.24441544476986 10.062171558257493 11.51473698269722
Zn 11.63014315225604 8.069903094864138 10.38791800887217
Zn 15.1507665878674 14.276154655402587 10.527734303632153
Zn 10.232881820228592 9.769157288079835 8.922575728707672
Zn 13.909817669663296 12.317142299850127 9.420689450169032
Zn 10.035057738715455 14.15382634807161 7.706721775520177
Zn 12.71883538002533 10.016872964016226 8.67754647037723
Zn 16.59682008676941 12.081922718529501 9.620547523921367
Zn 14.142305995643438 8.103041243769376 10.013073742008872
Zn 15.254778953280951 10.051264013486385 8.939712420872151
