47
Energy = -33.36550531 eV
Zn 7.18229450130746 15.481361774372706 9.793079862044076
Zn 8.186821609672668 12.066391793209089 7.712060034315107
Zn 6.791721442420112 12.92804087792608 9.766978622116012
Zn 9.0202390788419 14.3847874247847 8.413650478751165
Zn 7.343077776402624 14.148172789977796 12.064541232230283
Zn 9.504224066009506 15.580615056699093 10.844975356692848
Zn 7.692372312907026 10.405839057750708 9.756274534439141
Zn 10.728612981127606 12.42295625877112 8.051765605794287
Zn 9.275816613532394 12.826702679430312 10.584627976577567
Zn 7.107373409958311 11.467808807386549 12.047750400299257
Zn 9.54246606418405 9.896690541590413 7.83142402759208
Zn 11.425060040795488 14.631155263035035 9.37232977743921
Zn 7.928871833476512 12.795760964383238 14.251819103376008
Zn 8.135411034726575 8.934683465697418 12.04312003807696
Zn 9.857694924925946 11.577699774110364 12.700142308420878
Zn 13.201639672748467 12.670574129527926 8.919435438508089
Zn 12.2840502760341 10.339556534816852 8.010716029918605
Zn 9.655877408993776 14.361476667030393 13.146502774944597
Zn 10.469930767187975 10.618860619086085 10.26262525197979
Zn 13.794605231175991 14.856071470130074 10.374308841832827
Zn 8.920850924461694 8.196263502140464 9.752784035827407
Zn 7.7907241219901735 10.25151404534625 14.236743865389593
Zn 11.838387155597033 15.221415949284342 12.012002272275426
Zn 9.933805095807493 8.855917165481339 13.973811749822415
Zn 10.000096821957465 11.198391538677349 15.323692703940878
Zn 11.803616911931371 12.647860376540729 11.198252362221425
Zn 11.30256894678215 8.051020785906232 8.937618780857456
Zn 14.258707796238701 14.500766588134388 12.857056624303297
Zn 11.901088089228164 13.16770791657173 13.867001493972099
Zn 15.551133643174865 13.049429659547213 10.09851268664434
Zn 14.907701739049136 10.736125873545063 8.876785233636742
Zn 12.067366189923733 10.492511379434587 13.053434444576936
Zn 13.767728119808778 8.212202388697444 8.464715120021763
Zn 10.844346977475054 8.310160945549148 11.602882285617248
Zn 12.435022558226118 11.609848803567658 15.902064857908691
Zn 12.899694989309166 10.135863899796588 10.630588565064315
Zn 14.015587588029208 11.936128229640827 12.078091361680686
Zn 11.773686179589966 9.167875424575902 15.688452857431546
Zn 14.385134530531886 12.71653723485231 14.722677708681879
Zn 16.694040621322774 13.164307674081149 12.44702232299212
Zn 13.287769351218781 7.449439879357316 11.085804122947236
Zn 16.375937363808188 10.842507146607808 11.102790873786946
Zn 15.469882593606988 8.593137901917832 10.171869577470432
Zn 12.6599539063735 7.838421482190079 13.614207927094624
Zn 14.11960480647594 9.886514635246176 14.970963691143599
Zn 14.696606378451158 9.22251867708528 12.552262125850541
Zn 16.081544276409048 11.095855008394459 13.745834173712128
