41
Energy = -27.22707438 eV
Zn 15.008931423723611 11.261346156280927 9.458514237846936
Zn 14.567125554170884 10.585758900886711 11.840930684224006
Zn 14.68971888542307 8.02917524797907 12.424943716535873
Zn 14.636115854822222 8.635399304304634 9.890224323184215
Zn 14.046464282802921 9.731708984685335 7.6242462320481525
Zn 13.17524431611685 12.867653394772415 10.902600610867768
Zn 12.533409320133607 14.300957637411726 8.889525795502168
Zn 13.286839998086348 9.425197204029194 14.012398146431066
Zn 13.310422047828771 12.13770803932209 7.76744581182664
Zn 12.802142737464509 11.779761685917187 13.180050718038304
Zn 13.196129049422613 6.5880575266259465 10.84813077177741
Zn 12.386861616843793 10.357414570674536 9.996082928034715
Zn 12.937424875456951 6.46115419919068 13.440528702832554
Zn 10.625530521319899 14.222651434442668 10.851768764960442
Zn 12.463417773575719 7.93480729747945 8.55098917218696
Zn 11.882429416710147 8.742335250667573 11.820494008060276
Zn 11.169139933792305 13.16557384133665 6.851018822989124
Zn 8.959296568008808 10.829048005300614 7.612335399785969
Zn 10.240704970809874 15.127221238069094 8.372581352708979
Zn 10.62587937365764 12.082293057182303 9.306017471754144
Zn 11.258487150467237 7.925267245630983 14.645458563663173
Zn 10.32987137403246 10.6083200887708 11.514905669804623
Zn 11.485116186500253 10.263808225689791 7.292083323665995
Zn 10.851413989109234 10.492928977492715 14.280182455438304
Zn 8.637876253814678 13.316628833719808 7.247710813790495
Zn 9.992506999201833 8.892331271812301 8.969717642130448
Zn 10.584326659583775 12.958393389041134 13.040965545869373
Zn 10.505849827145077 6.522832453249839 12.560357380336555
Zn 10.814817445590435 6.6761509299095 10.021502663337307
Zn 8.178876713134732 14.493343819873452 9.712394579408924
Zn 6.748857234724668 11.999117125779824 8.389051021875833
Zn 8.408505449540518 11.731204974944463 10.483244369073939
Zn 8.760975977371528 7.8253355621884975 11.038482558948898
Zn 9.131989157292539 8.790662155897785 13.402869503371962
Zn 7.4982125010279885 9.523978502719713 9.376829023298829
Zn 8.267186084377071 13.672186005073838 12.22766584281781
Zn 8.480809681488322 11.35177160481444 13.457797047768477
Zn 6.062983314110519 13.39432504659054 10.603633250178856
Zn 5.46620045206597 10.89574447347971 10.363176595662017
Zn 7.045692403832076 9.531720434042873 11.958540888003148
Zn 6.097899103209456 11.933864709409741 12.664743776339014
