48
Energy = -33.33361468 eV
Zn 9.424984200447625 7.855240538858578 13.462015139850896
Zn 11.089939668119655 9.020986055611608 15.087799918281569
Zn 8.773805164977928 12.891696268680791 15.108902352800307
Zn 9.008321265173645 10.339105006416935 14.380889952352467
Zn 14.48676343388223 9.163131210495463 14.317965943467259
Zn 7.093942534111285 11.833213457088265 13.434647638036173
Zn 11.043514293238879 11.65045749209735 15.68583365283964
Zn 10.391552108887916 6.366615876514749 11.677435725450549
Zn 8.661219196689517 7.835111327976409 10.619353549744554
Zn 7.568225851047341 9.412081799585057 12.387518537001
Zn 10.764682743454978 14.368184051699899 14.33244100179125
Zn 12.191727180985023 8.041494481992615 12.776215638408635
Zn 10.365369071030596 9.820366568115169 11.793505608546708
Zn 8.413037768275071 14.185079766589102 12.932412200977469
Zn 13.1243560841727 9.877207472547337 16.448641604976057
Zn 10.451895394303127 12.151476624480916 12.87701687075249
Zn 6.171115547096192 13.533641795770597 11.696063328007028
Zn 12.438500057456379 10.729896105282375 13.503534129006132
Zn 14.128223654261024 8.28816856874862 9.54186072909717
Zn 14.732374988551456 11.578310554784464 15.45688039184696
Zn 11.516835403163004 7.97109341241161 10.090590336430601
Zn 14.720984723267295 8.228348970789352 12.024141680524583
Zn 7.2656969411333945 9.908147252413816 9.650210346840089
Zn 5.739238500847764 10.984275969336469 11.351542125909816
Zn 8.609853538669112 11.700888322929842 11.208118075314028
Zn 15.08124884033995 11.367485463630562 12.877062593693159
Zn 12.830713303841655 10.254161153688175 11.01902371327445
Zn 6.278946542733408 12.442413259925022 9.384279828302056
Zn 9.756590408843875 9.71916342042097 9.01547206263381
Zn 15.46007601571327 10.471915682516743 10.438036165757614
Zn 12.931102704490849 13.26624652647884 14.815012224491847
Zn 12.245612468896267 9.757784115807366 8.295817617638953
Zn 10.955344492966063 11.941704919183199 10.248108917575314
Zn 10.547334091777714 14.455887165033705 11.517871654630738
Zn 8.633292546081991 12.14799075515166 8.528376946014058
Zn 8.181741492358098 14.197585633564938 10.225591780732056
Zn 12.910638651279111 13.032046902660543 12.13820198132894
Zn 14.851018156058192 9.922549970050456 7.7708771091550615
Zn 13.293896384910102 12.153701882187672 9.3710986218342
Zn 15.451047434134326 13.143534533193634 11.07874874499017
Zn 10.921000444555641 11.893598139691571 7.450671096820792
Zn 10.331892026995932 14.208940493030667 8.781987483195246
Zn 12.679763988772056 14.708011171213771 10.108479730542001
Zn 15.794894319686476 12.214537343003371 8.460281025476771
Zn 13.396759592100564 11.684303523366726 6.606995856561252
Zn 12.534563696234827 14.083542889813387 7.493910544313218
Zn 14.973208815156205 14.605206667073848 9.022586966525378
Zn 14.867801778130927 13.760928570045143 6.606965756255618
