40
Energy = -26.79092619 eV
Zn 6.916509616312167 12.1664541038053 12.00736467529385
Zn 8.499905687255124 9.47490944958508 8.905112102606315
Zn 10.830560413153163 14.26514336725961 8.943741465497599
Zn 7.545430138631093 11.513967826711003 6.81549139242744
Zn 7.102895362373814 8.47340528305991 12.697756346069381
Zn 10.94033434703941 8.84741816253026 8.714519583260893
Zn 11.482646711948405 6.39544128570153 10.313353742297389
Zn 5.801639463976455 9.79372658249776 8.168282044032436
Zn 10.355303799979463 11.33068602167819 9.328197173358621
Zn 14.234991615120121 9.626241391448147 11.030716303454126
Zn 11.432469823402093 9.659394877632865 11.150558408380254
Zn 8.92965090130528 10.329473384010333 11.327472373414635
Zn 11.348393459655584 8.1304589490901 13.587195919823067
Zn 7.185377486855084 11.765614081349486 9.45546067259456
Zn 11.326337640789683 10.732017563123891 14.023099739281843
Zn 13.557652395384277 9.397440827077116 13.50886711675251
Zn 7.00760350421395 7.547236410588132 10.403423118041312
Zn 8.957834558901606 13.291921780607 10.704938709497261
Zn 11.391951955427357 6.231943181177591 7.757370595699931
Zn 10.090748585304267 12.369457528025857 6.630640844190926
Zn 9.019216631859923 11.995804569156723 13.49803761436419
Zn 9.112518519124157 7.305147737401777 6.612207274230711
Zn 12.425148600412859 12.739119162259138 7.68267130339345
Zn 13.080586200298262 10.45888995086518 8.855935887480975
Zn 9.122703192819916 6.666317570873509 9.167647840139729
Zn 10.94349374361307 12.231135901434472 11.88765462926052
Zn 9.140074937007682 9.206857867296709 14.041445474400973
Zn 8.509752120535085 13.556412219648257 8.181746545190837
Zn 9.517480837500226 9.864315882733804 6.248321184798299
Zn 7.0954610018058295 9.08076676985527 6.125758871812432
Zn 12.006970177556912 10.594587995034335 6.373019617338282
Zn 6.839839074503165 7.303527407851815 7.874660373931599
Zn 9.54760775758838 7.791225544775027 11.540298039193724
Zn 13.119114483614261 7.3609754574643285 11.937828458424383
Zn 6.027036779358397 9.966946661928011 10.86213310973361
Zn 11.60511765693401 8.117834964234989 6.119094171021651
Zn 6.956689077988984 10.6047700987594 14.00911170074512
Zn 12.730725704536612 12.737191601421822 10.188799924562199
Zn 13.425638434522703 11.666091094697842 12.480243498955273
Zn 13.320272670350064 7.893414554308293 9.323507224007871
