43
Energy = -29.28885419 eV
Zn 14.878124062863758 10.294149292563128 7.681593566008444
Zn 11.858504741284467 14.154965086497807 7.477502006813894
Zn 13.323749419936243 8.409140851856685 7.68102478987644
Zn 8.871537681077285 8.165490603915826 7.760023500503431
Zn 13.82697549943571 12.622099163748977 7.419169042249179
Zn 11.054009884473626 9.142242389755372 6.810322060736004
Zn 11.518765265585104 11.621994692559019 6.828287799988305
Zn 10.734930710353218 14.639823441412112 9.749044800056483
Zn 9.5960612316592 13.147156667528757 7.923892579272827
Zn 12.583072698538803 10.852715551990782 9.231699751531748
Zn 9.091548404259925 10.690310608332211 7.4128755524562076
Zn 13.315612938093782 14.043424184017264 9.61007867752055
Zn 8.852351976780641 7.547723151794406 10.191972469234596
Zn 11.191443877798237 7.640521733526804 8.939926700955674
Zn 15.155882177633682 12.128262054431655 9.570168079497819
Zn 8.235881141416275 14.145776025065906 10.060598128616753
Zn 7.430396615383179 12.146763008036638 8.734579759313165
Zn 14.641389702180792 10.595842011738428 11.505729260127692
Zn 12.595048446896273 8.862128494614211 11.027331528031063
Zn 9.579785947129588 14.89527681004625 12.120190532408674
Zn 10.191151518786409 10.30338257595774 9.943853971497056
Zn 14.598847653868157 13.277366777542577 11.774031934228363
Zn 12.11867303264189 14.423439955888023 11.87155601094501
Zn 7.530635544462483 9.700987585018382 9.343656714449086
Zn 6.930665311190127 11.751792163842081 11.154132957816264
Zn 11.041384623423008 6.694620396840767 11.297232186677334
Zn 12.175341121747774 11.681276944301748 11.832867569392937
Zn 7.308718509057863 13.939169738566088 12.611873679847736
Zn 13.357085801327992 13.808424632121994 13.969832905884834
Zn 13.695270239331888 9.487594952306303 13.701938316135687
Zn 10.554437363901025 9.727085981853167 12.499697601239863
Zn 14.796712009045892 11.705563718078583 13.846802281349348
Zn 7.8952150728724995 9.46331272206475 11.8702905177829
Zn 12.183426540886646 7.456488179012875 13.337414432690812
Zn 7.662155542371837 11.568780194572813 13.609955058838441
Zn 8.962853178765975 7.267593964611254 12.706777597749365
Zn 9.688443591332419 12.111647599163378 11.781940035351857
Zn 10.756726840891146 13.557353516907073 13.937294925349821
Zn 12.402583651463015 11.674376324133595 14.945564270619407
Zn 8.50496495932567 9.240435476257044 14.427478238433729
Zn 9.869186860026526 11.372731533829976 14.838266072783645
Zn 11.529596228471467 9.35009545967164 15.14557412093646
Zn 10.169944911727924 7.270779094018135 14.89402920992803
