49
Energy = -34.43452857 eV
Zn 8.816685161116022 15.25430926266115 10.296782373432979
Zn 7.6978586707049335 13.076179444638433 11.094678853716607
Zn 9.326809381211596 15.165748635649878 12.815724392780181
Zn 8.697094410484583 12.710271653663366 13.423171542515949
Zn 7.578694198554851 10.738365862113323 12.127519013975146
Zn 8.464468538116334 10.918377751762927 9.694306590852536
Zn 11.231257393322775 10.743930463609122 9.993130035434728
Zn 10.872393333914243 15.158424969148617 8.666769881402384
Zn 9.08419213823742 13.225211787207238 8.739930197810198
Zn 11.344559961009576 15.521258743067452 11.163982845437559
Zn 8.240583781384661 13.159064135899293 15.946865136776847
Zn 10.47387668843652 12.94185968037281 11.261770861334885
Zn 10.026056287376795 14.915642647835911 15.27434919881895
Zn 8.447803610142344 8.836465256859691 13.565818528342177
Zn 13.090431142024718 14.98233625167847 7.1343139374075095
Zn 10.380455077077238 10.719803881354784 12.570406548940833
Zn 9.946525066864343 8.816560778500053 8.417092522897953
Zn 9.309503738052735 10.870208746890645 15.173769862936272
Zn 11.386570757756182 12.813462032246193 13.703837534923828
Zn 10.619334791726288 12.896652845977982 16.737814706215385
Zn 11.136780673614293 13.13464378166439 7.03388920896674
Zn 9.559100046570457 11.10759271517334 7.364379539436782
Zn 9.183772465844186 8.80430796688973 10.980517431091387
Zn 13.323576115835756 15.659671628105112 9.537390264633203
Zn 12.064983969406793 10.649418856382201 7.268227465907788
Zn 11.920078989774968 15.53817496854789 13.640565871603787
Zn 10.286638004471051 7.227991156817229 12.643794337430714
Zn 11.138711514145166 7.22505398586213 10.034666254763598
Zn 12.615502183691856 14.121782366009136 15.845324115865449
Zn 11.943319466003029 11.032248001037805 15.782630452965318
Zn 10.87837314738127 8.90606525822199 14.634388145428339
Zn 12.211784978034489 9.073536574697739 11.727404729307585
Zn 13.728932784469094 12.628266936478735 6.862220020231786
Zn 12.33455519785351 12.932716217125822 9.542722346372953
Zn 12.983786034309372 11.591503197211354 11.96920923149669
Zn 12.819692179931671 8.801219937589462 8.812454702046143
Zn 14.893056291900638 13.666391590871022 9.063513686425367
Zn 13.766205492457456 14.06560848099215 11.61745011159621
Zn 12.409204883691812 5.770994889357047 11.820789074175654
Zn 14.306607026750045 14.516930849035994 14.032708247716176
Zn 14.165572988826007 12.092657877607852 14.623182044087002
Zn 13.342257488116294 9.683692817689403 14.150911622824859
Zn 12.594346797743555 7.103867999086668 13.926290880118005
Zn 14.198764032707611 11.031558118587453 8.746818565541606
Zn 14.775008814302094 9.545835632522202 10.649770348146673
Zn 13.866596513712794 7.035075039022052 10.277561274570088
Zn 15.519433100197931 12.110188519959797 10.99461232057341
Zn 15.491848738397213 10.548197227141241 12.96481979895433
Zn 14.654504698894957 7.985289835472387 12.669437305876848
