41
Energy = -27.39041595 eV
Zn 10.912492789119531 9.49797629329958 15.06228298740812
Zn 11.23792725304069 13.952662601389552 14.60771769488508
Zn 12.084523298029623 15.637627426003178 12.726929819762049
Zn 12.414910070199015 11.666580293213467 14.312006187504988
Zn 10.208174943888695 11.856575836309613 15.623755849559267
Zn 13.565726973271927 13.777359294750703 13.376398992188028
Zn 14.494481972645756 11.498292377107388 12.700440271181531
Zn 12.97671196543947 9.355019677122693 13.168912148496544
Zn 15.061675635906806 9.227591749743187 11.656846496903132
Zn 10.915926520864264 7.760312057404259 13.219588136292744
Zn 9.523893986594489 15.36937874981359 13.130410392035394
Zn 10.674446237076408 10.565794235676394 12.514253409778235
Zn 8.719881013319213 13.108305316035677 13.91725625680531
Zn 8.41838346958792 10.543841648871474 14.445767893314065
Zn 13.544314914593647 13.35303595281106 10.801705049931815
Zn 11.140749066523746 13.002946991218586 11.854486667422213
Zn 10.445111833399842 15.474020568485736 10.721365856348326
Zn 15.063709077708936 11.138432361777406 9.993857995033627
Zn 12.530485040597025 10.550519688833676 10.614923545664038
Zn 12.489721215907906 7.885337441871003 11.032860020039621
Zn 14.48742681757623 8.337762478926843 9.401551213633738
Zn 10.302069171325618 9.331529778797648 10.181032921727505
Zn 13.206889534503135 12.308007989905917 8.519034663882696
Zn 9.899410002086166 6.824776945110414 11.12727272051527
Zn 11.281744356403687 6.743314797050678 8.958104804039596
Zn 14.197468253052014 10.210405225231245 7.667959739249998
Zn 8.523702400938719 8.83518431860984 12.538573600950539
Zn 11.469529517227398 14.073198732007977 8.860222526847139
Zn 10.432149023778596 11.814874105078108 9.756312573720187
Zn 7.367253001199785 7.2884773417501565 10.919353806865026
Zn 8.227874750571166 11.411141239278242 11.86151480535026
Zn 12.814013417626557 8.132712038230943 7.440924023408261
Zn 11.439359084664527 10.66676412987031 7.431792664105964
Zn 8.707988571788512 7.58365663982883 8.789715134578097
Zn 8.325536269785408 13.916059284621236 11.28666402009411
Zn 10.364557349672573 8.361286189890023 7.055780826700617
Zn 7.647152079616296 9.738176368432981 9.987709583273064
Zn 9.670675865169665 12.629451730389878 7.281215018989768
Zn 8.807841964116504 10.244717493842563 7.736271417750214
Zn 7.848337953160012 12.21641389423805 9.275345130516833
Zn 8.941550476552173 14.49625585570044 8.827660271777107
