41
Energy = -26.36191411 eV
Zn 15.120753025588314 8.570484046176055 9.823155299044993
Zn 14.924858734705815 12.615029602022666 11.514112774414606
Zn 14.426072584426743 7.129975844004755 11.880523006504367
Zn 14.786871666749429 10.99943797427113 9.309444745548022
Zn 14.891623996575545 8.871751738077158 13.68415836241256
Zn 13.178722401231889 6.8763916440424016 9.657220181626696
Zn 12.828998364971044 9.290899068763597 8.698097391609375
Zn 14.30415812425152 11.383875156837162 13.682097382919814
Zn 10.74679190836517 7.619477995516172 9.52503820333691
Zn 12.31951385020628 11.8178509649723 8.452474180863092
Zn 11.747815589036168 6.631515001674461 11.779904955644215
Zn 12.906493169595855 7.26808811195225 13.966246010873025
Zn 13.954204545946132 15.15474974378237 10.881509808338535
Zn 12.254467316031922 12.875618661569089 12.055152410238183
Zn 10.418185964545442 10.141914520198737 8.944756993709621
Zn 13.922076975777657 13.934428578271413 13.8587902281031
Zn 14.13924744870345 13.396415841905528 9.188166439820002
Zn 13.74669767317685 10.05764746021444 11.527993964616037
Zn 13.713923436116776 16.29232667476678 13.070823489481802
Zn 11.136471277349868 10.293926377077307 11.631268213901235
Zn 11.74702860132819 14.360035617162788 9.42457924550193
Zn 9.27542677627825 7.209017033036579 11.688047802809809
Zn 8.538337293395161 8.917272090684056 10.095046712740759
Zn 12.386175504894862 9.743485422092624 14.415223531297915
Zn 9.783094721482911 12.380820752466583 8.083394035975262
Zn 12.098359236916451 12.188010125406805 14.725209868005381
Zn 9.998990595366102 10.776110580969835 14.167622201721615
Zn 10.152168324956031 12.71917734143358 10.783703324204147
Zn 11.512489283819628 15.370132209497283 14.049010158213528
Zn 9.310018403491355 14.823528849242093 7.823550536017297
Zn 9.28061231412516 15.129028090837709 12.725316690053758
Zn 11.617915686153923 15.986393831597804 11.500236518259086
Zn 10.511517291473316 8.228254180344369 13.629792818645258
Zn 8.060106062422419 11.35816847115659 10.140494274689331
Zn 11.703016133764264 14.199141938444084 16.295254085851052
Zn 7.332015491794204 13.343012582975055 8.660126547093435
Zn 8.33889818497866 9.54192295879021 12.595900869043925
Zn 9.809985837656214 13.344384142944447 14.38680164965354
Zn 9.532334066483267 15.506442141507627 10.193567000500055
Zn 7.692481732418486 13.939283196544695 11.105106696803801
Zn 8.223188066838594 12.08668110015856 12.75318905330036
