47
Energy = -32.07273867 eV
Zn 15.79613230512875 10.21424068301049 10.300830587742887
Zn 15.072425790328927 11.615302517677703 8.119699098520154
Zn 11.270193027062518 15.290868702323001 9.229332506925436
Zn 13.240958381017744 13.362904386842894 7.733041262538107
Zn 13.520501388481092 15.80242445039881 8.118246614010761
Zn 14.586771263890665 9.015390353881575 8.417351868225797
Zn 13.024983051936754 8.744301434475407 10.681651058151184
Zn 12.135981187082443 8.468962249034359 8.11490462181945
Zn 15.628049916058368 12.787048133599303 10.307434514167857
Zn 10.28792741779178 10.210563229963151 8.110982395150106
Zn 10.813356276358856 12.803889760082749 8.824542860574766
Zn 15.21763355344088 15.325480547466961 9.939728482949642
Zn 13.090442064406947 16.542646277832098 10.55784602226907
Zn 13.470075462172655 11.296392183001721 11.671280402721205
Zn 10.43204561510985 7.785787964325911 9.857054140457494
Zn 14.130719830374863 13.346537099544905 13.977361877699261
Zn 11.034206888511711 7.749230620966136 12.374343685334276
Zn 15.700504530323073 14.445875717970255 12.29785586686387
Zn 8.588065882636394 11.799245058257746 9.616749260867705
Zn 10.998092344350766 15.57091270903625 11.86934684629654
Zn 9.240189719169589 14.212627614760946 10.431755226115053
Zn 13.118153560611354 13.594875267857443 10.547915598455464
Zn 12.644191202887155 11.043458068966869 8.971296269929335
Zn 7.250207071323149 13.132566591915644 11.51190718914829
Zn 13.452870276954092 15.557013938553483 12.844849940186092
Zn 6.845742479045547 10.438078222600652 10.998111940294981
Zn 15.81113564939708 9.368520931261335 12.628452237115141
Zn 16.15420676104933 11.91918929491185 12.692525103077276
Zn 8.318810662173169 9.22634861336909 9.316700089539095
Zn 11.158599155873574 12.708749069170635 11.794006846233893
Zn 12.408545412450838 11.964421797600203 15.320267880407258
Zn 9.064290023857614 11.270710355829099 12.422549731615323
Zn 5.51938907267185 11.79066918956182 12.743742334211731
Zn 9.091508924596152 14.115485662841166 13.105987566394532
Zn 11.578248273886793 14.174461405571947 14.062622151236722
Zn 8.57025297617696 8.484594600121886 11.773375519377465
Zn 11.431518040545585 10.59127975699209 13.331112497714992
Zn 14.695722707907496 10.8424050045217 14.464770398581281
Zn 10.818639251895767 10.30874940089874 10.806619588033401
Zn 13.3722662878187 8.782510344904495 13.25101963389433
Zn 6.911987771494839 9.856384090286001 13.608073835472178
Zn 9.827592828036726 12.375728338573776 14.980962559159217
Zn 7.398662412603261 12.407469349465547 14.333598212348823
Zn 9.224417107678253 9.095854982461407 14.215711254557421
Zn 10.61047604924012 10.195666263005318 16.068146951186666
Zn 11.460570487027315 7.988957170328029 14.88491212744765
Zn 13.11550332976538 9.500724090155803 15.937430630260186
