48
Energy = -33.27001795 eV
Zn 12.737419082211552 13.599942561647094 5.667778752241623
Zn 9.544640610068752 10.031151154274665 6.703022503100266
Zn 10.66299704420613 12.154258180663136 5.650760636924305
Zn 14.10486705899527 11.62949268434945 6.663871483908048
Zn 13.566651377081195 13.450175764998841 8.367845988590311
Zn 11.04045955992341 14.097899150816525 7.624992388557337
Zn 9.108183055279229 12.352448113034935 7.887214826361995
Zn 12.129281308355656 10.080049100432804 6.0359067142296885
Zn 7.6124052199692995 10.178036637120904 8.48041990581452
Zn 8.840793441757828 7.978189218913722 8.130085508780324
Zn 13.85604466548265 9.339290488587233 7.85864683020888
Zn 15.294045180112096 11.511499343086276 8.971379697812981
Zn 11.03528476135172 12.402624573940752 10.64961313696474
Zn 11.380621272966302 8.769526219784066 8.217102217244319
Zn 12.215074799055328 14.813915758143251 10.034602534316265
Zn 11.61651409612701 11.51747291144128 8.285065797835825
Zn 7.91010796338243 12.139873390116525 10.139300557963596
Zn 12.98708289344224 7.947787232609767 10.071083730794182
Zn 7.851294411310659 7.499279644566999 10.406998373771398
Zn 10.447611723572969 7.4933337843784145 10.26294652894392
Zn 15.352570585899485 9.039143526612815 9.9195862579008
Zn 9.93316597956323 10.172783369588293 9.946955053945333
Zn 9.448835343144793 14.34509279389023 9.571716760659529
Zn 12.973614935620493 10.670968049450797 10.158207415018499
Zn 6.845981098159971 9.84411965883659 11.014198286816624
Zn 10.421925826809332 15.129786145564447 11.811057781022953
Zn 11.544829616987565 10.054987166304386 12.063436400093543
Zn 14.065799951757981 13.113976640740153 10.92598325911247
Zn 15.557860727164528 10.997650854784272 11.448863528821372
Zn 14.164476824776097 8.845781767130177 12.265811571648737
Zn 11.97985796471062 7.150300840846846 12.39409861137002
Zn 6.857100175818481 7.838023139808507 12.742294188105866
Zn 8.093410102110633 14.060179709838195 11.888174338469248
Zn 9.332392390094096 6.466362857038485 12.44074840746331
Zn 12.240110885664162 13.575382093827448 12.748619300389668
Zn 9.325219496482305 11.603888363497166 12.378593061040286
Zn 6.310129239055265 12.00560398768799 12.270178851199177
Zn 9.296510422112231 9.067040655118378 12.3088453882403
Zn 13.659964082481086 11.39139378610562 12.99497626407446
Zn 9.922310335507182 13.726097795208494 13.917883639817289
Zn 12.47425680666785 8.961457885092365 14.322671495693594
Zn 11.452856271139867 11.528565972182697 14.41963383082642
Zn 10.678125336196814 7.038873913190389 14.560455966808016
Zn 8.226677608988613 7.581152174211965 14.806179419833764
Zn 7.44322601575046 10.162586751060578 13.85591925179359
Zn 7.296612299378412 13.242123550547904 14.198534306341294
Zn 9.99079742357815 9.459615969076147 15.070403205391388
Zn 8.994914248240729 11.765726188363296 15.272247562249206
