40
Energy = -26.30313347 eV
Zn 7.86021700212701 12.663546842527913 9.421450325404738
Zn 11.207979508695967 15.331619099459385 12.366434222684983
Zn 9.408282431984404 14.238369669324001 10.830794344726739
Zn 6.065055673635361 11.345757117016467 10.749976746393882
Zn 7.5771026110940145 12.876654492110854 12.13386063691173
Zn 11.650605929555773 15.113925421227364 9.824485556057308
Zn 7.393813193846475 10.135469807897437 8.813579535789216
Zn 9.403975521674594 14.122317732068923 13.62850473157038
Zn 9.889715485094829 10.41566975106226 8.458311605065987
Zn 10.506179342116573 12.88119026720021 8.904029382204168
Zn 12.520086778897376 13.881737027799328 7.604500393104582
Zn 12.510470315399898 13.45916859675511 13.607336496971488
Zn 13.6785495241373 14.856466634687893 11.764359342745989
Zn 8.997723107969382 10.617232313144441 11.185092825131317
Zn 8.460531988425581 11.928792606704167 14.455314456343173
Zn 10.736564078700214 12.172432039817021 12.174096185130841
Zn 14.194862572698497 15.163205083390784 9.178584053317067
Zn 6.600896097592945 8.873371458980477 10.875965801029674
Zn 6.9784579001479266 10.317423269893848 13.046055222189882
Zn 11.425498092605357 10.06379653524127 10.600484677067993
Zn 15.061158112971693 13.248201793487123 13.26107072172536
Zn 15.568419225215756 13.386791134666964 10.736767355797975
Zn 14.660177385511746 12.726226057082295 8.341460916919768
Zn 12.680175109623502 12.69843182877068 10.600233008255667
Zn 11.180104241087799 11.60969032401667 14.791659801277792
Zn 8.99439770579783 8.19455087343065 9.851466081546173
Zn 9.684573210068336 9.810149328144913 13.695575055817196
Zn 8.08013136455265 7.867762771703249 12.664689055163393
Zn 12.555574519825914 11.11861430492579 8.40188904698864
Zn 10.542918294341877 7.728720245394017 12.165769898637722
Zn 11.420969118276044 7.544770945926471 9.52727724485726
Zn 13.249897477136413 10.869381884561037 12.158670204418419
Zn 13.855334154474937 11.371415587988457 14.682510875283922
Zn 15.034241575771476 10.983459609642184 10.15630878246422
Zn 16.071767706830528 10.995687500532599 12.818903221787359
Zn 12.200502356017537 9.295067760990708 14.06503756766067
Zn 13.626137124406917 8.91076137511186 9.610890614566815
Zn 14.839933915717621 9.060860715347314 14.083878249204988
Zn 13.045438756718712 8.039460802928376 12.002457103454214
Zn 15.397629996910515 8.897897896696204 11.57631716198913
