47
Energy = -32.95528832 eV
Zn 11.979330335358348 9.182535022510779 7.8610712035382635
Zn 11.343204732067202 11.406011593136729 6.902074732154714
Zn 13.670675288172998 9.138687776922469 9.767148101000737
Zn 10.629972492962455 13.675392663502093 6.022169707495714
Zn 8.966580589021044 12.41805026230308 7.528854882340947
Zn 10.987353979479128 7.836985041934366 9.76155561369253
Zn 15.485125396712494 9.024505240016003 11.701089545580995
Zn 12.673817393510273 13.78457467816227 7.6985558037120505
Zn 13.27909180206578 11.393558194888758 8.569784880511552
Zn 9.57780638094759 9.908433401837422 8.360408835255411
Zn 7.690398162840648 11.328038876650515 9.503898994528969
Zn 8.890635430156632 9.389575465636293 10.766184992303854
Zn 8.572792363958683 13.802820601774885 9.665698500302991
Zn 13.112496310747687 7.288429556791055 11.371226234724801
Zn 10.362319617163719 14.973957102702313 8.164757480296403
Zn 14.26667720499975 13.620128177742345 9.741427573957992
Zn 15.015466645027551 11.248199041593306 10.430734689623987
Zn 9.037885482493172 10.22777034330548 13.518932234559989
Zn 11.424857648936523 10.483921900445212 10.63203349209192
Zn 7.044991161299451 10.728802630658901 11.944014318129932
Zn 10.733686195866419 8.418417140779582 12.254535146975364
Zn 10.99602990545858 12.68833264642459 9.511012519009382
Zn 6.714506347802759 13.124489810918199 11.310936900898929
Zn 13.15805641508074 9.991234237341445 12.427159979259761
Zn 10.400488252014123 8.316235423021107 14.77551659686254
Zn 12.486831858039576 15.422843312598092 9.902886032224146
Zn 7.593697693915065 12.592893907166008 13.64104926449683
Zn 12.309044463199458 6.995138679427801 13.792255183575229
Zn 12.713132457466967 12.52452430024088 11.658777865516695
Zn 8.595871781895234 14.657415414687742 12.164431612042716
Zn 9.75400858258552 12.225735303544864 11.67212026336379
Zn 14.74280827494054 7.570232542078036 13.563982076723196
Zn 10.003959142030258 15.899279869800989 10.47975253104779
Zn 16.643600971946388 11.265935373498506 12.453466014030653
Zn 10.874263109529597 10.387524926302007 16.092470547399902
Zn 11.353806649741689 11.34557283025677 13.523963941398389
Zn 11.452509035627509 14.985410759215144 12.31807174213765
Zn 16.089893517785132 13.52450178261395 11.531711811151718
Zn 12.931878033447283 9.260406307766921 14.994114529115967
Zn 15.215156616701115 10.158651985441205 14.246896939778209
Zn 8.960207772930058 11.920321736954337 15.68583035331676
Zn 9.987912314005165 13.790669750081912 14.1282088973529
Zn 14.024670200047652 14.855910715232199 12.176929927489248
Zn 14.892988536771643 12.79104754460794 13.722296196477005
Zn 11.272644245262121 12.94712401023192 16.217556485008846
Zn 12.67927336944291 13.879567005634792 14.299471335615461
Zn 13.423098945576386 11.707730574842484 15.57395892954743
