40
Energy = -26.21079916 eV
Zn 11.200991181808451 6.40835397496732 6.427734459976043
Zn 6.69105939384269 10.241542388440351 9.525253742909257
Zn 8.015485718357976 8.115387979115503 10.083055946144771
Zn 10.343649769331353 7.614820726815852 8.656049620754974
Zn 6.680414716668346 12.194264521405453 11.532587866589134
Zn 7.539811453241686 14.292246274427887 10.336319117750406
Zn 8.6677761848296 13.805288375270644 8.135526118116754
Zn 9.022831522752076 7.872169674849854 12.553636668808391
Zn 8.01298685987842 10.111982739351621 11.985717133426876
Zn 9.769102026588184 6.31339658924135 10.747405915957929
Zn 11.47117114162665 9.651504912670587 7.639755708896146
Zn 9.040805966059663 9.863239894712704 8.409492875174367
Zn 9.152635286823864 11.832527014955266 10.04165693866281
Zn 8.285388089432436 14.20779633769279 12.701772538034046
Zn 10.480207912868664 9.507434948656025 10.754511758724245
Zn 8.283959577867664 11.928654360138484 13.875228435724164
Zn 13.161142914694048 9.398339358509961 9.605604016136352
Zn 11.568016715067191 8.015260884624636 12.81873283430728
Zn 10.02678679427332 9.859530086647958 13.921626693908113
Zn 12.192076865561553 7.145291732338449 10.398942661181781
Zn 14.065578147875357 7.9240014213855465 11.94836754881731
Zn 12.537738078224216 9.508324262227159 14.686930062513786
Zn 10.330615854057978 14.175717243451313 11.117145032676838
Zn 10.6172996644675 12.099357636266594 7.551046889517458
Zn 10.435658077782966 11.82070460746314 12.241628788327134
Zn 11.751450216714984 11.600437013981352 9.87426296482981
Zn 12.538530686970475 10.416181645361105 12.08638470695746
Zn 11.374465763549969 11.83172697298209 14.917275818542791
Zn 11.125316312643815 14.39471301059721 8.637056256038912
Zn 13.33356855826393 11.235266841644863 7.1652931196919205
Zn 10.134823462742188 14.040245915461357 14.32491379723512
Zn 15.390507059595485 10.018859079172792 11.231143280840188
Zn 14.930068604472082 9.52117273837155 13.741634124066236
Zn 13.945000395655866 11.722978515013551 14.457996765889666
Zn 12.91411039715793 13.804608967175863 10.544839565549248
Zn 13.41401179646402 13.563815126611827 7.950034609624136
Zn 14.52275476842288 11.738438333846965 9.470018501658593
Zn 12.400484219405143 13.432445481260162 13.134538392918046
Zn 14.43764972418875 12.299428296557112 12.004894463417282
Zn 6.321068401002906 12.599544397567774 8.890984540936023
