49
Energy = -35.3566315 eV
Zn 10.10736123181567 7.27262816039542 14.695591568459896
Zn 12.389953158431597 6.8258946298790315 13.50417055793532
Zn 8.236524228206406 7.7899924158921 12.800908574076066
Zn 10.196606079169301 6.206046942814296 12.427688489317186
Zn 6.882175468384224 9.863567958443404 13.062762129884767
Zn 11.458325890744014 9.347505996899944 15.179771876343766
Zn 9.009215549396858 9.645524341277984 14.489935968263781
Zn 13.798086197809308 8.69128610954921 14.378534788761376
Zn 11.57417772316035 9.138667351992604 12.30587844003877
Zn 14.217895640296828 7.854579911070948 12.023186037758423
Zn 9.319384356382646 7.484282277286474 10.417309007720306
Zn 12.052166192469516 6.782940528509918 10.844330926891356
Zn 14.64659836143121 10.442894493976992 12.58427014911918
Zn 9.426735489780002 10.279785044235348 11.578713397989702
Zn 8.225511053662812 12.023696120593051 13.617260100943946
Zn 7.192809622110709 9.036734490093098 10.636009074666248
Zn 13.064170493655972 11.193754488279925 14.496688790366484
Zn 11.44261166221258 11.727166884932961 12.282798507673741
Zn 10.750922799175228 9.798067814823904 6.814285499825437
Zn 15.798381332677256 9.312065081089653 10.582438614079718
Zn 6.544620681866477 11.870229505748371 11.65384605681322
Zn 8.686454547088266 8.993388920614 8.443925932744182
Zn 11.175021405714704 8.083141836787263 8.784340634707206
Zn 13.050228555028323 9.074825186264748 7.386520121564195
Zn 13.875518419008268 7.997990798426087 9.48742447060807
Zn 10.463631942052865 11.786540093279767 14.886410123919493
Zn 7.456877886777679 11.223532698804256 9.306288681762986
Zn 10.525450433386315 10.928778695390191 9.270938756951475
Zn 6.439822141371926 13.667370925136622 9.942789367928409
Zn 8.730346938463521 11.228377947847724 7.095347359330029
Zn 14.011534179599055 12.92588743870316 12.599061707533192
Zn 7.6717856561999715 14.266081740888668 12.098672889839195
Zn 11.872708022139035 12.999448296279871 10.138582812669313
Zn 12.298714955036946 13.603878572051936 14.413408177309151
Zn 10.000441265455922 13.885663089643918 13.298889240957207
Zn 14.967605536567424 10.368112847278976 8.434283580849765
Zn 12.801520505818576 10.426531398440195 10.347401007235781
Zn 12.746372010612237 11.584532860455857 7.417659396718919
Zn 9.380468745514584 12.779145982874331 10.740060479373742
Zn 15.456188668759593 11.892231718890914 10.577399520217377
Zn 8.28027725665439 13.553482604161566 8.173835250951374
Zn 10.602243166704602 12.98895278127134 7.129031918236276
Zn 8.070621151105703 15.559580640134401 9.719409956188178
Zn 14.170440881029624 14.230349589013445 10.37597427395525
Zn 9.921710484696222 15.645500092098048 11.394896375041277
Zn 12.708151089820268 14.241522985254006 8.008010086744546
Zn 12.225076755638035 14.757713846273424 12.103189050375796
Zn 14.804655734672588 12.909102520506178 8.264014204577984
Zn 10.43991053900687 14.95984665112254 8.926404603870267
