46
Energy = -32.85887364 eV
Zn 10.000933531843277 10.894769436122294 6.032299928516116
Zn 11.456376405485717 12.918247964392535 6.758617751798774
Zn 11.38274745794526 8.717541538500557 6.37742856647264
Zn 8.917960866118436 13.083110247349458 7.021539827709919
Zn 13.086307342216939 11.005848517955977 7.132896185632732
Zn 8.642675126035007 8.777714053913133 6.740522365444118
Zn 7.566766228840237 10.963354529746747 7.659687496881248
Zn 12.620721743396981 7.038591462196739 8.330657171508323
Zn 10.04546938305902 6.873037710572659 7.819684659889341
Zn 12.940826581609087 13.381143771040414 8.730936507848913
Zn 10.41297809891868 14.420561375305667 8.69316733245565
Zn 10.175578383043842 11.490887874447003 8.889100690312398
Zn 14.734546304826752 11.580171313979674 9.190797855364027
Zn 8.2974258981433 6.63183203048709 9.794653611580078
Zn 7.553100704053122 13.135372981198767 9.164969191470382
Zn 9.288585008978183 9.053913518264055 9.282006589706059
Zn 6.7628671848536825 8.7191641256777 8.797427206740252
Zn 10.894192663431014 6.233185454155333 10.16889981549028
Zn 14.372291588534889 9.09258789899168 8.74643011987792
Zn 14.037120304192511 13.146364037737163 11.17455942829217
Zn 6.264294829159756 10.986404305453638 9.937919532810573
Zn 11.830733738810846 9.456206392463434 8.78636224733285
Zn 8.80201276680526 10.722698444719342 11.12185197369725
Zn 7.212030674548859 12.929869460001795 11.712864240912657
Zn 14.747621358546013 9.911917923067278 11.226339239798394
Zn 13.55756229347643 7.569986476949412 10.729487760727945
Zn 12.0495228741529 14.849071749633486 10.703250533325495
Zn 10.995297281768135 8.833764264771345 11.204215623826391
Zn 12.362173229521815 11.141364488355045 10.574564798899448
Zn 11.938573643338346 6.602500630437285 12.467049453035305
Zn 8.7924994127758 14.794246044531032 10.702806399508859
Zn 10.434568632767972 12.841288041363484 11.02257516434571
Zn 7.061949903047538 8.28637459158831 11.335142945928796
Zn 9.21863866173248 6.905024935005074 12.22397706884459
Zn 6.381440959453662 10.496879695826058 12.449801588572916
Zn 13.28631019809027 8.787538672262 13.057344468790424
Zn 13.75099808135791 11.44501891466729 13.098051255660648
Zn 8.200454458610237 11.740405937816679 13.809868185206005
Zn 8.194949400405434 8.933164078621154 13.544414987387247
Zn 10.85305446606952 10.86390434519994 12.678144094066152
Zn 12.220995088038975 13.617724925788604 13.037406442698778
Zn 10.728545674317772 8.081554276955497 14.124546651460596
Zn 9.34222115387696 14.030979876397643 13.153474521959472
Zn 12.233539615310002 10.290403843765603 14.86001139400144
Zn 9.670609044669106 10.188485692397755 15.165004034440926
Zn 10.701035095177058 12.556925491282518 14.788346431124623
