43
Energy = -28.95533512 eV
Zn 16.3135500707568 13.055452441511099 9.758229544788989
Zn 14.74088092096091 14.264036338573511 11.340239358433509
Zn 14.497608852117851 13.19775088586985 13.752216120634984
Zn 12.169552223137782 13.56860690961102 14.852747789812366
Zn 16.357386039731644 12.304797583352247 12.097909208969183
Zn 14.148486213579131 13.563726327544721 8.568558037301942
Zn 12.458467054048985 14.491774561939652 12.436786302636342
Zn 13.596484484804602 11.261994249372584 15.26470982527051
Zn 12.816527582776569 15.31009478600881 9.969995051471676
Zn 15.35627925698654 10.676829371835755 13.605250611673561
Zn 10.037014484313147 14.24034459516999 13.216164904893379
Zn 15.416577765113196 11.144953024411329 8.545144539022298
Zn 9.665669977972138 13.243816069214732 15.51573689988368
Zn 10.30912011944693 15.57708498101425 11.076263296948053
Zn 13.298730983948282 11.904978226268314 11.094442788214007
Zn 15.242425143228672 10.028592956042527 11.012599689516694
Zn 11.361247891260136 11.605510578778205 16.333185183049743
Zn 11.0947063040844 11.742810716986668 13.080201282765982
Zn 13.18541275902271 9.75845824028779 12.639458785320466
Zn 10.745094716681866 16.08727241227414 8.681522372119717
Zn 11.636538996330247 13.672548283039422 8.157530008820256
Zn 14.154024508340715 9.05943055893486 8.801310031795163
Zn 9.197643262925643 14.047782035010313 8.878806742839428
Zn 11.640836492239735 9.643419683843302 14.69335026085942
Zn 10.846518202651511 12.931796373717923 10.771835531267032
Zn 12.823157956488387 11.330623391957523 8.305752813240135
Zn 8.205098475826281 14.025841796069102 11.328016257403455
Zn 13.133417881591958 7.978301406836571 10.736735090557245
Zn 7.942112221031692 12.79850550883134 13.705577638339431
Zn 10.260604140718025 11.485256513999458 8.470180892536503
Zn 11.234173014741796 8.069897022306986 12.474041083476662
Zn 10.858872591725964 10.360260123114147 10.972605839007418
Zn 11.593896404999002 9.040203033754915 8.544496828381995
Zn 9.039151078864734 10.849289223356626 15.254621395886998
Zn 8.018246614963282 11.928611009585492 9.560850985183215
Zn 12.723867028465063 5.497280572476942 11.64400809555143
Zn 9.338090474292295 8.71875033573663 14.01964004082109
Zn 6.617568053197594 12.078907151471052 11.698238936564483
Zn 9.102021728583583 9.272305268044219 9.175458993804211
Zn 10.614225058351913 7.236132001532478 10.017995440618945
Zn 7.0586830278413375 9.851158411218986 10.618060873208355
Zn 8.778467575487745 8.314143567092948 11.586594168935449
Zn 7.470912516451734 10.150710796272147 13.177771758525415
