47
Energy = -33.92380338 eV
Zn 10.441814707394153 15.045259964946688 12.531085479290482
Zn 11.860186621239725 9.672730788600958 11.91327126075511
Zn 10.626623550576832 10.977155208197079 15.574404053298702
Zn 9.696185178802875 14.198628654664585 8.266302092230912
Zn 10.15320071680972 9.453947458863167 7.075808106348496
Zn 12.632573574470912 14.463510405087895 13.715734340773794
Zn 14.402269946886243 9.759538584836918 8.699251460915486
Zn 15.422960625007255 11.328737825764811 12.778849740665953
Zn 10.583097957742535 15.699971236011523 10.08286984683268
Zn 13.733330148912263 7.58062958229422 9.850170123811843
Zn 12.967690782485283 12.136901708599723 11.459786412447826
Zn 10.613847552181465 12.783982792739183 10.415048869970557
Zn 7.417553157585814 9.759300472364153 12.839354983418293
Zn 9.384375181988865 11.875519591265792 7.322658577703793
Zn 6.3423655352344355 7.747945910153586 11.061250704299452
Zn 11.777117347368618 10.662011260882975 9.526151261545262
Zn 8.395536631519235 11.630468271159758 14.303585815129775
Zn 11.253424143311124 7.229367762458911 10.670630891322402
Zn 9.514645368906242 9.185395447904654 14.11023576651845
Zn 12.923807510872606 11.118646912590103 13.9652771243532
Zn 12.371813627249525 14.444651961956822 8.726729565179578
Zn 11.652845205492461 12.75799374665142 7.007242159218193
Zn 8.902638191391057 7.843078827641184 11.837902853301703
Zn 9.308173097793636 8.107930926985047 9.290900193159544
Zn 8.40548025976235 14.47062140414039 10.762888591996669
Zn 9.47058119556278 10.333869420131514 10.906459547475558
Zn 13.851889973493517 12.24289244513599 8.186747451130893
Zn 10.207643306797388 13.633706391293142 14.754310809241115
Zn 6.745223166379283 10.214273733917837 10.413462461188674
Zn 10.91985010033741 7.203229149253711 13.241524914252729
Zn 14.8970962510739 13.85834530602683 12.183705348102217
Zn 15.426381547330791 11.680922093204003 10.200500063432992
Zn 7.811943822758226 12.498508733555306 9.248416506193452
Zn 14.404427045946186 9.093104245203229 13.790169379596877
Zn 12.370085554095134 12.821809679865488 15.778918870306173
Zn 13.303573526315162 7.345771395061815 12.344885274287476
Zn 7.526727717589086 12.194351212454846 11.839029510724163
Zn 11.852973724285384 8.142129893608423 8.321269695044128
Zn 14.651240103138843 13.04860348019166 14.521279996835919
Zn 10.582905615145284 11.822471103171498 12.792783858244336
Zn 12.795172895607564 15.061034716378252 11.242910423511656
Zn 12.013425996462741 8.86908492037096 14.829357870861157
Zn 12.566863494945398 10.339258883861449 6.951888640196615
Zn 8.211857612297186 14.064877712610182 13.315899376959026
Zn 14.834094853617101 9.370436558061668 11.253648315484604
Zn 14.697099342292674 14.094517591070899 9.706558815518644
Zn 7.976992926572729 10.034481021836555 8.290488989951921
