48
Energy = -34.67818945 eV
Zn 12.89722085353665 14.4382287380663 9.190917820978695
Zn 12.960115699516294 13.41759973930978 6.7438832889282985
Zn 14.080495071278433 11.965514858831662 8.63097900917129
Zn 15.043284189641442 13.67293760740219 10.323359942777403
Zn 10.974118103291442 14.803694614339083 7.468511613403569
Zn 14.09513610583267 14.297399340154588 12.677602206830699
Zn 15.409624188004527 12.149610234283049 12.29773102250132
Zn 12.019191047764444 15.123008328612844 11.492654303528898
Zn 15.151584652458604 10.458188881009926 10.434064678979793
Zn 10.021295050023788 14.700818313646915 9.899198254002249
Zn 10.648041442252664 12.941463520256123 5.723473107923567
Zn 11.217467581713905 12.304166689259414 8.945165939526763
Zn 12.402865700111667 10.858955672668353 6.883253099074605
Zn 14.070759820538123 12.41926685629506 14.457644626584434
Zn 13.67555427359955 9.390716804037263 8.657739337730161
Zn 11.88390805670812 14.112094073574175 13.931989371685527
Zn 12.652116751643183 12.284758228270391 11.084089094135292
Zn 8.923524108949477 13.239915675086438 7.866588118121493
Zn 14.761481083207462 9.824078817601766 12.912320625850947
Zn 9.672158633100965 14.925598604141259 12.450135045311349
Zn 12.512767443023257 7.228632513385568 9.3279919303867
Zn 14.291880281035546 7.994453811595204 11.012034797957881
Zn 9.942907683252324 12.266283043669608 11.306627020711304
Zn 11.828361140528616 12.033753322052757 15.749323992299228
Zn 13.518644773998117 10.058556731044103 15.126987270584006
Zn 11.255479739050227 8.712306858735248 7.698286767585181
Zn 9.79725684417906 10.93118610257978 7.0544350843078165
Zn 12.29368688811156 9.676886449479479 11.235852074956519
Zn 7.723826057505898 13.453026735313747 10.098922906635483
Zn 11.611054796916866 11.36026853937358 13.190193098155785
Zn 11.45871637444825 7.014799718451325 11.571980345729864
Zn 9.577391618683647 13.112928996967964 14.24023264434027
Zn 12.977622142777129 8.060596262680615 13.438596967709003
Zn 10.231452659633378 10.139753247761808 9.789794272468857
Zn 8.637383722659585 8.81866356939415 7.8784637213328
Zn 7.619469168141558 13.422638406311474 12.592962206689913
Zn 11.124765922791026 9.348696543317748 14.936114715392161
Zn 9.425612830620183 11.067013313006509 15.770422696883799
Zn 9.790782333878054 9.771309769481581 12.293003210347504
Zn 7.757194446478212 11.113895149929116 8.807463730111756
Zn 9.899945906801813 7.369439796509162 9.56260672096477
Zn 7.133282844172685 11.184931164369686 11.285622678962316
Zn 10.481530169432492 7.144124548710919 13.849112651822308
Zn 7.819386747244423 11.164366576202926 13.757745848215142
Zn 8.777278042072178 7.203862319817922 11.934666863647092
Zn 7.583416300172219 8.805358366689713 10.192055321450727
Zn 8.604759013672815 8.74648956034139 14.55146463958182
Zn 6.9951224780445145 8.950147958041375 12.656177572756746
