47
Energy = -34.39750624 eV
Zn 13.550401686473732 15.221853566113706 13.041386707243955
Zn 13.138575199041306 13.311573315692202 14.859874696818105
Zn 11.393519129824579 15.13492649689933 14.325979852982503
Zn 15.10361071916843 12.927325319909952 13.260150756501975
Zn 12.188790642208229 10.975331338656774 15.811223918471496
Zn 14.623506221768208 11.240525456367411 15.096549083698102
Zn 10.613645194826955 13.028179194670317 15.347086794206854
Zn 14.998307359877552 14.367237324127492 11.202204628061263
Zn 12.847860562218811 15.394534576337003 10.374133238097892
Zn 9.178022230244112 14.213364276949553 13.351431130382121
Zn 11.839398573145989 13.284204786815833 11.93577672422275
Zn 12.770750336088183 10.856506261636763 12.8147959244603
Zn 10.74479282167189 15.845749499523503 12.057074039841769
Zn 10.122735017241062 11.566548564668095 12.799426607831224
Zn 13.498646547563117 9.001584481093303 14.706246853670118
Zn 15.556242312771678 10.379631114646337 12.880650051074765
Zn 9.634817267099434 10.793289782864829 15.94340062941371
Zn 15.578158753800937 11.949992231848498 10.846910042587094
Zn 8.073308007420827 12.419280110129694 14.770044951071032
Zn 14.356794773199217 13.450332604979208 8.952912624463819
Zn 14.517878014119185 8.096909646294023 12.57977032047967
Zn 10.403613735299023 15.597777986393131 9.644584307278572
Zn 8.54226592365828 14.289270932888773 10.857857043788394
Zn 7.463957673796635 12.428047192772041 12.332289155051168
Zn 12.8762542869254 11.46913223284449 10.279760398415258
Zn 8.178276829791487 9.950645318417788 14.009854731773723
Zn 15.118242101253335 11.026819576643476 8.446655056870629
Zn 10.859307284166846 9.145140105382236 14.505656641981313
Zn 11.907055290871096 13.892921698787012 8.52927646279227
Zn 14.967290898063384 9.473611247876741 10.479947935830024
Zn 9.045292011052744 14.005792323607062 8.300707988752995
Zn 12.130296197503775 7.461852233426562 13.100360029966486
Zn 10.352425127971312 12.073938540332922 10.010610868287076
Zn 7.580386835168699 12.05548527821253 9.865630381854436
Zn 9.3787997488043 8.045552016886706 12.817230523092038
Zn 10.992253576082746 9.725579194608983 11.15936341930391
Zn 7.832644646514618 9.991010483413936 11.481394097851751
Zn 12.95221319225234 11.827007437563566 7.334589807181026
Zn 10.6119371580312 12.67028491228788 6.722523450957657
Zn 13.169754911994106 9.316580576466492 8.421552493454186
Zn 13.040200429995767 7.820311032302654 10.501036695608718
Zn 8.449336446470967 11.725650412651436 7.441262128398023
Zn 10.836050049381544 6.7407582302601154 11.09898539850533
Zn 8.778057184795449 9.882734149886145 9.044882707459424
Zn 8.67711518741897 7.824270753639313 10.380873315065173
Zn 10.891651502216893 10.25553221427168 7.609328784929674
Zn 10.873299343661106 8.083152910867488 8.904495542885844
