47
Energy = -32.79994787 eV
Zn 15.35056093330234 9.836773524789631 11.621266945688694
Zn 12.909309680889065 10.796362492628246 10.312939406268345
Zn 12.131091036591592 9.926926922129628 15.461688059502798
Zn 6.602653698143173 12.248462672063889 10.814544117820818
Zn 14.101261920975327 11.63510579407878 14.863076266939784
Zn 15.642580520811851 9.585465674766159 14.258251218535122
Zn 11.722985180748719 12.53538806468396 12.170178112204196
Zn 11.6039159877204 7.741584418181381 13.965807635218768
Zn 9.97233953230158 14.503364095975963 13.547445513296193
Zn 16.367411896609898 11.965949907307548 10.486544744773626
Zn 7.80422827789052 10.195989473164643 14.594238303333276
Zn 9.219225124608307 7.738985324850429 12.725110540622863
Zn 9.072449033072242 12.319458092835244 12.230897623100763
Zn 11.342502624486677 12.68821696473273 9.051278847772657
Zn 15.514414371784898 14.315180611467461 9.935452296241866
Zn 7.675350633179009 10.399702094061796 9.395147815451281
Zn 11.500439956316706 8.740668837753697 8.894909253894038
Zn 8.724472343206102 12.787905393732512 9.358620222345476
Zn 12.94579076807422 10.251758462306181 12.876412369090831
Zn 14.12676170964511 12.630915114989055 8.579071301703594
Zn 9.85534806783913 10.561901080184999 8.052727438372084
Zn 10.415104397992689 10.733830596504642 10.721039086493327
Zn 8.677064735493008 12.755608699897323 14.92296412490237
Zn 6.540280870384804 12.006796725260784 13.355447539577993
Zn 13.905365611845891 8.18369954546075 10.088833477963114
Zn 14.210531655074197 12.400959411170481 11.967795271184633
Zn 16.38371612924347 11.885733132643622 13.47017708492605
Zn 13.38812486271275 13.929839894831035 14.043055137387535
Zn 7.826732416444693 9.945803405872587 12.00392504043688
Zn 14.582963645246583 15.211754326413125 12.207548473335388
Zn 7.255119380627351 14.453148000745447 13.46445191640446
Zn 12.94048965002942 14.248336439771201 10.326089224287477
Zn 16.818685552279298 13.976540169213084 12.155844791689239
Zn 11.39760633824116 12.53660773621399 14.922521049665006
Zn 7.715803104730367 14.592179607715389 11.043139489600426
Zn 12.373912864769375 10.881696476336103 7.534195803690587
Zn 9.786544515537265 10.773218436249866 16.053357967957815
Zn 12.02616359388216 15.540693176029853 12.467759570659624
Zn 14.089504167743076 7.63823692204691 12.560235381280515
Zn 13.873979961179844 8.063693188626587 15.046990470800887
Zn 9.115781105806256 8.427555928433428 10.226903011055754
Zn 15.247984862216736 10.285566085690709 8.950743620595345
Zn 10.288338881482135 14.422448185337531 10.817107708144404
Zn 9.41877499988266 8.309573988934806 15.223380787527269
Zn 10.434299534726375 10.360104115936272 13.30844699554599
Zn 11.622893713043197 8.353660402298885 11.445486472356954
Zn 13.851174994609686 8.793103225781417 7.519034102558354
