46
Energy = -33.72316446 eV
Zn 11.942318144967754 6.632253293967859 10.961050147292092
Zn 12.200252485492928 14.749158857220413 10.981258582579212
Zn 14.077641794832907 7.693233099703876 9.845592043011461
Zn 8.137316876360554 14.17319063449566 9.039111308991835
Zn 6.573922783204488 11.876492950850833 9.347635180140914
Zn 9.90349860457603 6.287384750399786 9.382254207622449
Zn 11.805198084585527 10.587004517588182 9.026371205704498
Zn 7.067822780790463 13.501179832461418 11.251289212764776
Zn 8.022362478006857 12.265544418941639 7.294670221802673
Zn 10.415139469043904 13.242842852951611 6.980886571794159
Zn 10.968901192871805 9.60125315344006 15.051579509478158
Zn 7.653454516465895 9.77509126629355 8.070093248473059
Zn 9.773084373271796 10.600078276302797 6.659658976390473
Zn 11.637086917108443 12.113072933505459 11.367905528654457
Zn 7.430740453359357 8.59005992777557 12.239472993391654
Zn 6.183745675572428 9.514989611652355 10.234772697208125
Zn 10.254025441675743 8.911511218680888 10.161856599366834
Zn 10.579533229308147 14.94534658345421 9.045678410227955
Zn 10.0073003379222 12.325762020591553 9.445213035949678
Zn 7.99108604717897 10.436272509936426 14.18229494193488
Zn 8.581078212211521 10.75407032822751 10.747150382518136
Zn 14.206941362097107 12.876546506576695 10.51261318309975
Zn 14.908938381534513 10.179342004629062 10.258513974314543
Zn 8.417395945233697 12.941260839799417 13.272486482595491
Zn 9.94412410762049 11.974655861545319 15.013791523458417
Zn 14.415575856425829 11.214003558474936 12.580479258941578
Zn 7.796913500064039 7.645918868002613 9.73792793683711
Zn 10.26239997846206 10.344889851065009 12.589625595249753
Zn 13.359461834357772 9.403350792857008 14.114366226282284
Zn 9.380239124898276 6.846809228689818 11.842052682951854
Zn 9.523662954174592 8.100847423687249 7.5670613538558555
Zn 6.442486610593484 11.193479084763604 12.251957161387832
Zn 13.45052751072001 13.593595714906602 12.861869735192958
Zn 14.319304737801875 11.729104179369063 8.254150106680166
Zn 13.857204951846596 9.280936371109705 7.8564379185618565
Zn 11.976186861974616 7.422758602871219 8.413982578646081
Zn 9.520597377870503 14.501509358602613 11.389798556097272
Zn 10.923497324466556 13.829504593249819 13.435534815382216
Zn 11.713961609936248 9.028813727515029 6.461451927532606
Zn 12.337220726002464 11.571856221660143 6.577886702179258
Zn 12.36721963224792 11.746085314755938 14.220001759488962
Zn 9.1388668113916 8.142510896762012 14.045222988219157
Zn 12.61330987339186 13.56593917182858 8.531804858187469
Zn 14.054528746475103 7.7749302410391685 12.34103996373928
Zn 12.470609361748243 9.65227119276426 11.36687810903644
Zn 11.531816032328765 7.562171979907073 13.337986497295017
