42
Energy = -29.00934448 eV
Zn 10.94772477095408 12.659396710350487 7.166193676499105
Zn 9.74282196192885 10.435848670786639 7.987554796367932
Zn 9.344814726770517 12.798640438537692 9.106867744978345
Zn 11.985103582030499 10.465823317011914 6.49150619563051
Zn 12.126212222196218 14.122452043146188 8.987355336578924
Zn 8.84764131577848 8.416126238374565 9.195202477623203
Zn 7.857676492576742 10.724660866060516 9.86036097735207
Zn 7.784597850616297 13.257841578381566 11.069410858123721
Zn 13.495018968767067 12.152342339744358 7.612773040064891
Zn 12.319021287314007 9.214723525942913 8.60941358963468
Zn 12.458141299261273 15.940943051188754 10.79418199704269
Zn 11.601612456129601 11.45518232556675 9.790153004428895
Zn 6.919374994446574 11.160905907604462 12.276646189769536
Zn 7.6063613307537965 8.761101705042421 11.569281399563021
Zn 14.713233654308201 13.383222488717175 9.361608071391743
Zn 9.115177776422499 6.643179829132423 11.00982928909646
Zn 10.069964836326276 12.023355996799177 11.784126235263122
Zn 12.50694882490897 13.214299494021258 11.539440888550391
Zn 10.427390839876143 9.479761682867352 11.297910499718085
Zn 10.093558610899503 14.708331059715587 10.672715790787228
Zn 11.157908044214366 7.204117205156734 9.701624910103405
Zn 8.513179772451034 14.88444248678963 12.859067919993363
Zn 8.386134071794352 12.554247267919182 13.885600970639702
Zn 14.824806231806736 14.99194418992422 11.29503006897445
Zn 10.700169673754063 13.889573149551396 13.925788661638238
Zn 8.738249458274533 10.01562165211054 13.68049882439402
Zn 14.135862743751446 10.704473291666698 9.823749597041438
Zn 12.998644893888812 15.255753068339072 13.493763851552549
Zn 9.118790477245208 7.608729680076381 13.318187179648554
Zn 15.45556079450597 12.318980150295124 11.539268247238063
Zn 12.466456833836794 10.75155764358322 12.253461800265342
Zn 10.765717997361849 16.222932193691705 12.731867888397662
Zn 13.19068872818077 8.394619708974274 10.901978344725217
Zn 15.21463828102081 13.988319889686066 13.59907003067955
Zn 13.01076779161011 12.722561002666747 14.209929923240843
Zn 10.780628223423696 11.362217643157736 14.490191827855787
Zn 11.13123395350686 8.78276569458409 14.261452152275057
Zn 14.983814599044491 9.728013844803174 12.168648673904046
Zn 11.43009237977422 6.931489415543657 12.341073240147258
Zn 15.319930025897062 11.43151402943611 13.983691242168629
Zn 13.247243710953633 10.195139426581237 14.82651175925948
Zn 13.524244644231977 8.066486934973561 13.501447607906174
