46
Energy = -33.38705376 eV
Zn 13.176275775944912 14.127487379244023 8.239493206638214
Zn 14.458291964572545 11.793327580705492 8.255674229443724
Zn 11.548349964151447 12.825959638742496 6.871571766722251
Zn 14.457743510785775 13.462675473300715 10.361792582590452
Zn 12.37946452409354 15.00901597435331 10.520197898112233
Zn 10.474177868738346 14.337862215682845 8.772190829644895
Zn 14.920068125011692 10.98441800881 10.830160891685328
Zn 12.534430219142937 10.261479351543334 7.238220083775482
Zn 12.591309125210687 7.815765543861707 8.152734356153694
Zn 14.473933070591508 9.324548569756395 8.861342033940701
Zn 12.136652142162259 11.987232736166902 9.548729841325027
Zn 10.325711315045563 8.607710936285692 7.3404595839129
Zn 11.659841123508617 12.155948934363677 12.009027386949407
Zn 8.80563286467514 12.84536277585137 7.364653147337611
Zn 12.437598636766285 14.447186534911287 13.036564426459522
Zn 10.491456165890963 6.777267189367237 9.22208436426831
Zn 10.241106873829063 10.858760833905572 6.1809299224500265
Zn 14.408141651230997 12.667517324235702 12.733148029599246
Zn 12.766256831841147 6.900312846320515 10.524107800891048
Zn 9.820208378506129 11.154353305204397 9.025870756104894
Zn 14.089363155203344 10.161396197735233 13.265785341619738
Zn 12.237469091829512 9.63769875243236 10.512382833567566
Zn 10.026546987458676 14.780638649855055 11.336330490230614
Zn 14.615169748082511 8.496765010391195 11.31658315143621
Zn 8.149866592522853 13.748168629980496 9.7807004966922
Zn 8.067218897757199 7.88456590681512 8.414251791079284
Zn 8.023393873103753 10.112444202950703 7.250093108191941
Zn 12.716004865837018 12.242217706684642 14.568995499984416
Zn 8.235073751557943 6.77767810176731 10.634228129645047
Zn 9.21692604693633 11.669248062612214 11.437695207871576
Zn 10.705139767423884 9.885522506501347 12.640253714618535
Zn 12.724021508468208 7.922177052962461 12.949713143917453
Zn 9.68878331229694 9.096365216626497 10.441770057429785
Zn 10.04212442164349 13.750648445106133 13.75125917384973
Zn 12.132373550557341 9.699366720842825 14.937435897984729
Zn 7.842273000062577 13.993566213682941 12.351337683007996
Zn 6.910267412073121 11.682851812872 8.848711680984367
Zn 10.601290584747247 6.766056405488075 11.88591464005159
Zn 6.994577834663005 9.462577903758307 10.234918198297938
Zn 6.565547539040712 12.005320546065876 11.320392136280082
Zn 10.349514376667516 11.635877570284917 15.137243653983774
Zn 10.55475570569363 7.721018193540729 14.322967811811498
Zn 8.29961063770994 7.745084245185641 12.951231117166602
Zn 8.06005088358519 12.00571730913662 13.91966003488902
Zn 6.9996090625630405 9.925390414197848 12.764962549899805
Zn 8.845382128966204 9.650616341064191 14.655200163508075
