42
Energy = -28.66256246 eV
Zn 11.405909534245815 9.876969637389072 6.223759293616322
Zn 13.569471549044506 11.076925847461201 6.950032402719351
Zn 13.445074190321137 8.527606581833524 7.404764332654221
Zn 12.289557117838381 13.212529987627308 6.83433415534924
Zn 9.138482749086135 11.122882025574764 6.232533683054396
Zn 9.772223459247371 13.472686756052429 6.784600051731948
Zn 8.655388307434723 8.861605248827559 7.389676265690847
Zn 10.900560233912937 7.92199796125193 7.947593741766206
Zn 10.839832855308899 11.008219617942153 8.443876278565742
Zn 14.904225852711798 7.66853508696992 9.428538019124456
Zn 6.888861055779199 13.231599640953085 10.785871403642552
Zn 12.810466221502637 6.452770687564073 8.884144226418206
Zn 8.431968840686325 6.642406240575207 8.797204257059494
Zn 12.97301492818433 12.131802901223269 9.393262599255925
Zn 11.042739148053668 13.824968612503746 9.13586539341756
Zn 7.3306604770510635 10.922210178527257 8.110322733368172
Zn 6.928563494357174 8.611292452245094 9.40149669182688
Zn 8.929076274057312 12.238335889441093 9.516359321490805
Zn 9.488283114082469 14.051023546576507 11.23135178490703
Zn 12.27387845727917 9.390958806371287 9.836440724078033
Zn 9.52682739745909 9.361305834949224 9.89424578743896
Zn 10.572561657669928 6.560622653165314 10.242891558533143
Zn 8.286095070204714 7.204030658398699 11.339383627128115
Zn 14.928748043204786 9.123906348961698 11.44014133816337
Zn 8.560299455707018 10.856816213113197 11.740746387667238
Zn 14.77716865851777 10.254758602666358 9.136893411603658
Zn 6.359586112840275 8.990538732137662 11.856710219653836
Zn 7.800850459606538 13.583447533258573 13.131567286759827
Zn 10.995435181274914 11.035402455868294 11.259523574482706
Zn 5.866961734949088 10.909160868197139 10.2075492023744
Zn 13.010040029751636 7.370180361332748 11.289991344338803
Zn 10.637623417162628 8.29250827945995 12.186576029709833
Zn 10.255766173162801 12.81528570595543 13.441879218645363
Zn 6.072974149205975 11.605237003146934 12.69735546288747
Zn 12.058959244819004 13.403619520582934 11.53877950845727
Zn 8.450072122058966 8.684871273393103 13.473312796796964
Zn 13.97941690416595 11.493700109253282 11.635753474618406
Zn 6.208085993984945 9.660806693930233 14.317711976657462
Zn 8.204591340091776 11.312408661281543 14.331195057208733
Zn 10.543458831625076 10.250396125491546 13.97132911149676
Zn 12.815890336490455 9.51008918444782 12.943012999593215
Zn 12.608635144028787 12.011864792263488 13.72970858421356
