44
Energy = -30.58358384 eV
Zn 12.622011255020237 10.836667399459406 15.81614173825647
Zn 10.103743269781479 11.104876243050198 15.591609346153312
Zn 11.20419652391671 8.86689293300351 14.877851208410798
Zn 11.870303894019937 13.228172254243368 15.720846388563247
Zn 7.88754075941363 11.809342004764384 14.633407656565787
Zn 9.536903635026412 13.682714795214949 14.851686206779135
Zn 13.803752810621257 10.039544404729087 13.782530969981885
Zn 13.813052463973282 12.724373622407844 14.087560326681759
Zn 8.767354395120684 9.308609139468903 14.159997453604078
Zn 11.46071773726897 11.872433565538547 13.027536933956624
Zn 7.371434351243571 13.019292108186784 12.397419622497413
Zn 12.743248891012682 7.771482775710613 13.20604450538763
Zn 11.836479429075965 14.537608617629262 13.492368277877187
Zn 10.176890428535998 7.445255139837308 12.888343548312251
Zn 6.838582437500289 10.405047540879158 12.848871508297774
Zn 14.978604104774837 11.688325273427427 12.050342698187421
Zn 9.32740858381949 14.633432837829307 12.533162267107933
Zn 8.369327643389687 8.74849980685013 11.63586016812585
Zn 13.955142368683369 9.221855927662217 11.329773457580474
Zn 11.289263335146211 9.653825411483547 11.80617152694616
Zn 12.768706026333444 11.826700378479394 10.609282268575772
Zn 12.639875280181716 6.985836141121299 10.815583031257383
Zn 6.927061672167709 11.216120264759613 10.470775068803169
Zn 9.402287453740799 11.39088576042854 11.68579110152255
Zn 11.951849360479162 9.776214729656244 9.32101755899394
Zn 15.577516759969942 10.497102664433982 9.777976769106438
Zn 11.335842832495791 13.985412578136659 11.036450086735469
Zn 13.932192064585376 14.146270808716185 11.889236925699237
Zn 8.720384418228154 13.849851584615942 10.129469756386626
Zn 13.344704281634556 14.672274590568046 9.407527827371256
Zn 10.17621289436287 7.659163781350458 10.14982315601841
Zn 10.938387498943117 14.873162814281033 8.623340753957633
Zn 12.163315286219182 7.218699959149795 8.372318451341478
Zn 7.716988479328047 12.234422293801892 8.3645867252771
Zn 15.139072698091837 12.995240182685407 9.695833477074832
Zn 14.27234639029251 8.578392616349305 8.740323242963488
Zn 8.877542494553508 9.84748494088902 9.308825558693878
Zn 10.538471213658243 11.974207097638041 9.382535531677073
Zn 14.12936777546013 11.213636960642337 7.837714686860402
Zn 12.433344150486112 13.086307693367388 7.55144143945907
Zn 10.300756441086351 8.60871564062591 7.4485857900873995
Zn 9.657684571614038 13.357826474820362 7.171571176057639
Zn 9.280755411275408 10.838259967789883 6.8595702763046384
Zn 11.891992920738764 10.642174967588247 6.685510223773824
