46
Energy = -34.2271392 eV
Zn 14.138807882925372 12.12274292174992 8.722454442799801
Zn 13.859058169152192 13.779511189440491 10.746491209718634
Zn 14.938840585296015 11.396019603337724 10.973638899099099
Zn 12.920310839371872 14.412414340557937 8.457109466409538
Zn 13.459673669168515 10.315770904844683 7.047916206847015
Zn 14.724914035482465 9.4791896163914 9.053023296496699
Zn 11.540417013334176 15.03688862709947 10.483877419579537
Zn 14.571364612862816 12.930397390908851 13.05214065251603
Zn 12.104043443530612 12.4540307891895 7.041741319165226
Zn 15.045477010327536 8.879149856135179 11.474088775139219
Zn 11.271198844086495 12.226037736696371 9.64082494202062
Zn 12.458395816571691 14.329570156346323 12.936888805487312
Zn 12.444691290415545 8.205516696721853 7.975121904544915
Zn 12.290964751556377 9.866501574406017 10.160257269835729
Zn 14.333373893115969 10.409064044517061 13.358531408730464
Zn 10.889825201681726 10.092417003409993 7.017304868720233
Zn 10.308927891915486 14.246056738422327 8.156378917145991
Zn 13.336133910084394 7.353986895865273 10.412483388611397
Zn 12.673756972255816 12.121663105700652 14.683030794723141
Zn 10.106992716996501 15.161397000023076 12.558883501868028
Zn 12.108831963224162 11.63089856018595 12.103277520672185
Zn 9.62437878234899 12.280061272915 6.592786365044023
Zn 11.209476731343997 6.51557980109679 9.35143342228305
Zn 10.422645831965236 13.167739067412361 14.130611232910576
Zn 9.00608903897735 14.459163287320004 10.335769306833248
Zn 13.039971224443232 8.127724483105686 12.91967310884611
Zn 9.648917778321843 10.125914575376843 9.724448517058118
Zn 12.65220647761755 9.534042027872355 15.027730652885642
Zn 9.534511354561708 11.985269738252454 11.633095160588525
Zn 8.121993097025987 12.753080034898153 8.563496196442024
Zn 11.169117669043505 6.811298810473173 11.90674272584258
Zn 8.010789330548906 13.759842290847233 12.854910224360033
Zn 8.230679068381399 10.322071520017245 7.40391595364113
Zn 9.736916588155633 8.040129606040422 7.894292332363991
Zn 10.423756992946826 10.687904057626346 14.923422121072061
Zn 10.715790278011792 8.032918747620084 14.336237492907376
Zn 9.029852902733731 7.194681683431061 10.366597478031274
Zn 6.814092418055592 13.145976227007312 10.698940034620025
Zn 8.221884237128387 11.88196022731943 14.553675069799487
Zn 10.477449474841052 9.53905576663908 12.119760005335982
Zn 6.823939337509688 10.799068907111288 9.759904347804314
Zn 7.365280855993479 8.460320506725239 8.92177708512713
Zn 6.94764152353106 11.197821373406253 12.406698342346713
Zn 8.789885952602516 7.178983124152179 12.902553205362569
Zn 8.296372530887476 9.442518360197926 13.92695660056848
Zn 7.419012233605508 8.911065820410366 11.49883908217135
