46
Energy = -16.25970862 eV
Zn 16.803742554251638 11.623482480085205 22.179964113566264
Zn 16.38724347445064 0.3594009458571087 17.20175271599361
Zn 21.71161878619635 14.41395812618014 19.254923693337037
Zn 17.99462587307029 22.202914905145146 19.458751019709805
Zn 13.428331462453935 8.61578504148907 1.1474505058021438
Zn 12.31081834387674 10.446732820885973 21.722046120472367
Zn 21.02051446165031 18.641763321262328 0.6672207411304413
Zn 14.637694086950583 18.588530759442243 11.367758718946865
Zn 20.67664740586248 14.682955762877071 -0.3323073912199096
Zn 13.566093701428636 19.773170813167724 13.46148792163936
Zn 12.43539819775794 21.483704242624857 19.15226393684821
Zn 21.511466886514157 14.122064159285088 12.650968246041
Zn 21.2540119176881 19.05244189343116 20.43049322545082
Zn 19.991990392126873 20.572379335869652 18.93728797140847
Zn 0.6776532565997161 12.657743929839992 15.569564808190053
Zn 12.040401503663855 18.835266475824508 11.26341542837353
Zn 14.996670192746437 15.563314988654387 12.450373967554398
Zn 11.845406988047145 19.160976171664057 20.555253056410415
Zn 17.448005625229325 16.499822866722567 12.798830859404536
Zn 0.5396655112449655 20.453432598756415 19.027743167539654
Zn 13.119345177081932 18.614821650660677 0.6831543861228219
Zn 1.1587333823806931 0.4677092285915857 17.892828205529888
Zn 20.559899475685622 16.285657523934464 1.7951480617635696
Zn 0.938153978168787 20.552631820355906 16.432445137162592
Zn 13.894058113851267 0.22623406391280146 17.304792377522446
Zn 11.496867168073086 20.80498135275705 0.274230352358595
Zn 13.109313745612015 17.2753961683499 13.038855299995594
Zn 13.126893314921146 -0.7075318537612246 15.152393778688085
Zn 16.018082451776838 9.521925859800227 1.270804880061271
Zn 16.264088745235846 16.73064402520207 10.450237084369705
Zn 18.660226428393504 -0.7044032534380776 16.964600487962798
Zn 20.1083083376484 13.267532864876419 14.990892114284396
Zn 17.069258022699202 14.318387761887985 11.270913682065457
Zn 21.60223484887501 16.6173819376877 20.443659407383052
Zn 10.342252546403195 20.78199831657673 11.146514548474672
Zn 13.95152841009679 20.60569885771175 21.35268395327085
Zn 14.417542134353486 12.082951484815197 21.137761710529478
Zn 19.013306212838803 12.77146713265187 21.696575064954228
Zn 19.036690308826042 13.268399260187648 12.594342781370205
Zn 1.6098176372949295 13.271017526257012 13.222668301872506
Zn 15.454395939903451 21.606285258901906 19.485940515587227
Zn 20.203021962596594 12.05254838642407 19.50272585978705
Zn 19.644041718228056 15.528844230735817 13.829639448795572
Zn 21.150327675117655 22.074134053353973 16.851968427238088
Zn 21.120130879050617 13.001159180384331 17.271922608079457
Zn 11.400072954942628 -0.3689771991043538 13.240272681645092
