48
Energy = -33.6552227 eV
Zn 13.027016844138725 6.023280313573336 11.490997745481032
Zn 12.513747499767218 9.139347055700188 11.48712031621555
Zn 6.508760023619215 11.8297890287173 12.486281981901017
Zn 12.823760037323268 14.529787240727046 16.07928449450882
Zn 8.064889759052766 11.250472529878309 10.450934914249231
Zn 12.822865344135899 15.745074118128208 10.25470405588114
Zn 12.554194469340857 11.583703840516458 7.589843971901522
Zn 10.733420208443087 15.736061870045782 11.993458810070548
Zn 12.337864620195301 7.128189479626297 13.622049857889007
Zn 11.607255249256452 9.290957289213585 8.672185240671892
Zn 10.527682849251143 6.961095168089702 11.63836178223404
Zn 15.729525546211459 11.961612382324645 15.12507841341042
Zn 8.938272817605679 15.129033739529966 13.818848783374468
Zn 11.579723635024862 13.318620392190754 10.658292960090904
Zn 10.364663634219605 15.612114191019064 9.417771072202665
Zn 12.84091504139089 9.517375230257919 14.481780672256889
Zn 14.356237281701805 13.845393561259964 14.065455148273017
Zn 8.804885427284262 13.545813381087182 9.15970060908269
Zn 14.635111080010242 7.722766963682543 12.692388205022054
Zn 10.466833182140208 8.824895394450518 13.439921341875758
Zn 8.475245889644027 10.297042583856191 12.92575880767205
Zn 12.905067538649625 11.98875226869172 15.38500277410728
Zn 13.748845773192585 13.612160205134325 8.85521437708732
Zn 16.030782597362712 12.446916868385351 10.03628295845468
Zn 9.37512034494301 13.040687733129735 12.038352663351201
Zn 10.32221929345562 13.65477974327823 15.505731296026413
Zn 9.706188795911135 9.178429025288535 10.618958243049654
Zn 8.1879143855928 12.57708078782816 14.409847664823797
Zn 14.264901815848829 7.7377738999220345 10.011077111723848
Zn 11.246389104595092 13.734117295295963 7.94507965598274
Zn 6.705875180775357 14.296331620798009 12.93091338577177
Zn 10.337753955504759 11.443668652002474 9.175819101659638
Zn 10.995409846986862 11.095095480125398 11.96865165903268
Zn 11.814334445864613 6.946331533723435 9.436073235431397
Zn 13.474251032766519 11.388206969283482 12.745588680753468
Zn 13.275842180563087 15.856899440881417 12.805944273344032
Zn 8.323198354191245 15.274685148019854 11.110481550917692
Zn 16.080853454716426 12.064810877044216 12.5114544674649
Zn 15.447810666788733 9.829255779087996 13.750799942749676
Zn 15.230581214777919 11.615224253668284 7.831609144335238
Zn 14.171910729020476 13.756709068466227 11.466524951008735
Zn 14.144699861936992 9.426653221467875 8.186790635752427
Zn 15.301877375324674 9.913708081506188 11.012460991154471
Zn 11.710248447459026 13.356117055504916 13.205303219717102
Zn 11.357290185848715 15.825693031942068 14.52115192298911
Zn 10.484502259013107 11.209383179901474 14.608523165094175
Zn 13.102503425078442 11.278617512378151 10.2018518101376
Zn 6.613436015851669 13.40963262338104 10.496397177845877
