41
Energy = -27.04593286 eV
Zn 8.828013883861797 11.652595659705746 7.144581658759274
Zn 6.92293963189813 12.75415068304204 8.558308658843005
Zn 11.14934951613842 13.163869073519088 7.09409019403124
Zn 9.547866029746805 9.154051786737387 7.7086166713805
Zn 11.021731832243251 10.693204435348658 6.152414057723099
Zn 8.82230480755069 14.207788098624217 7.457646262395039
Zn 7.2005723951539595 10.204782774189816 8.574935042284803
Zn 7.686538403288256 14.998093262813889 9.661676421642232
Zn 10.326211603800669 14.881234968345826 9.429762833776753
Zn 6.856113395478572 10.686744408198848 11.068425865312065
Zn 10.843382297150637 11.155084537760718 9.036053940348284
Zn 6.487768982041232 13.255953223663449 11.067617149820652
Zn 13.126891884611108 11.35853931578921 7.604625050277962
Zn 10.793857813510046 7.583794943420235 9.474306009647867
Zn 8.667508703877914 7.215117818737011 11.260833032591341
Zn 12.152067943390495 8.814996541323412 7.584452252954152
Zn 9.128884844357522 9.547711718589845 10.327744432028227
Zn 12.403982794369183 13.289886711984407 9.416896871705525
Zn 8.820849285114884 14.500774715017704 11.884162801755634
Zn 14.624161162482677 9.35385529110689 8.324108179638412
Zn 9.064178987811175 12.41259234081268 10.203251842241649
Zn 14.490580598652384 11.492391742673027 9.907865453953457
Zn 11.074533908510585 8.940472480476993 12.1564398246876
Zn 8.20476266138764 11.94533751081958 12.856804258086934
Zn 10.806485556157309 5.898600089673066 11.542171018579273
Zn 12.507921567601496 9.61676075867222 10.182588252173185
Zn 11.39058508299872 14.143175098709174 11.677873556479764
Zn 9.353908096769386 6.703509916698638 13.60062407928788
Zn 13.651243323600392 13.02891073593597 11.692331035226665
Zn 10.916600855064523 11.403501588043472 11.598946013546792
Zn 13.010470705354816 7.008544847306637 11.044327423773481
Zn 8.477721105343717 9.343594210461127 12.992766291566445
Zn 15.059969173960749 8.66989877017169 10.6862680284231
Zn 10.214673918326652 10.899497898538648 14.250287563605562
Zn 12.060395134227381 6.966744960238384 13.646001929923122
Zn 10.391333070465365 8.438582677413837 14.98473923157921
Zn 13.876054181778835 10.550097747312286 12.317776131592549
Zn 10.102793673619143 13.41637128706109 13.780199627093824
Zn 14.26200521773961 8.176675572577235 13.083903233187021
Zn 12.379107973927814 12.276519841647763 13.817951420298426
Zn 12.583537208693654 9.70158291432309 14.36617933199008
