44
Energy = -30.10273352 eV
Zn 14.683252987610343 12.813554325817735 13.293169935502636
Zn 12.760418637216766 13.74243316931979 14.701737059428677
Zn 8.423300147375762 11.150066533004876 15.34346752917964
Zn 10.62707320563189 12.338205852340772 15.321242142913498
Zn 7.631228862387634 9.306775131172698 13.596294284307957
Zn 12.6340443564194 11.190419686016776 14.01622432409268
Zn 14.764441829340157 10.312908071775901 12.762678177964155
Zn 10.296291844079574 9.970212935613127 14.039137512996941
Zn 12.411779784715856 8.827539548332858 12.998536123321948
Zn 9.597821185432105 8.033689433903005 12.456788922760879
Zn 14.235716692958476 8.430259975033305 11.16807444801456
Zn 11.870480058791196 7.38289543892371 11.027621427695708
Zn 8.431436391960295 13.389481339520508 13.75335248158288
Zn 6.397142495797853 11.7335255329465 14.004310126074925
Zn 15.219764416301762 12.9503888751926 10.844636503376032
Zn 10.52747701855785 14.753459819397017 14.350254773634791
Zn 12.826493394609514 14.200716797655414 12.012727483836152
Zn 5.792205710468763 10.449877796174995 11.996314112764766
Zn 8.650555303215414 11.312064422797079 12.1186797182353
Zn 10.790519412234913 12.52371852056352 12.425931529932589
Zn 7.653546383778539 9.015596248882492 10.903944381172764
Zn 12.829335783377157 11.429564106927689 11.144670413825217
Zn 10.573685881096404 10.211910311996188 11.035932982079792
Zn 10.66476983426246 15.974415887552807 12.209091411747112
Zn 6.6581355339151305 11.263135011083119 9.802755258030443
Zn 13.951526799145098 6.788506980035702 9.258427356597817
Zn 15.775404774795886 10.441111515470036 10.464819417875757
Zn 6.582267982237413 13.090968995757356 11.69871523415719
Zn 9.635424191423493 7.992806249229396 9.778433696645353
Zn 12.377489137865851 9.739866126627124 9.287781610792006
Zn 8.446814226663115 14.843057042518545 11.522018784197108
Zn 13.161000397317231 13.729990628026473 9.45047089446672
Zn 11.477746637453432 6.670143108394238 8.6054143932613
Zn 10.727514888578511 14.393899249964793 10.219425165823372
Zn 8.911679338895896 10.354305762514773 8.714395755521293
Zn 11.005745923423309 12.101401020272185 9.103745864677519
Zn 8.657250731459303 12.853715712034695 9.850521198706204
Zn 14.768951550753382 9.126203501212148 8.449765459402947
Zn 10.608547929383429 8.737994154169217 7.399452395376162
Zn 14.531450319001522 11.696981681979686 8.603694111294228
Zn 13.072969316551072 7.79791553534587 7.000734124669605
Zn 12.675048739474967 12.652633919315079 7.125644400902101
Zn 10.681141763412473 11.135869472718937 6.733670413560755
Zn 13.175408191769392 10.241820957569304 6.483641222945832
