45
Energy = -32.16922211 eV
Zn 10.040993687697403 11.239230598108927 7.484837362640825
Zn 9.359632105005614 10.409640329335224 10.558310999534516
Zn 11.612315123739153 10.556440468076344 15.383364783995413
Zn 7.964766306874759 9.87316341431952 8.232266242665448
Zn 14.578679993738342 12.166888079359776 8.480333500439475
Zn 14.972625117269262 13.202974490076564 10.755826135324074
Zn 8.770426858402711 14.956935014105474 9.424671157781523
Zn 10.317252084177145 11.460101175055845 12.776121921729924
Zn 11.418657139759745 7.014096322944674 10.051627114599983
Zn 14.276620893690422 9.731114942539675 7.968022809730567
Zn 10.507274572119963 12.68575354997686 10.383824520677368
Zn 8.207747698753149 12.679181976785005 8.427006199430025
Zn 7.529525527799863 13.247636419024412 10.970411223924133
Zn 12.025363164333806 10.686933468872008 9.434357115337795
Zn 12.423181663492068 12.398846235930307 7.179875760646372
Zn 12.966032914721037 6.912652537440388 12.163105545500592
Zn 15.688180007406272 11.423150481013788 12.519506489796404
Zn 11.195323370091149 15.544944170744298 10.047773105215128
Zn 10.187562868602875 14.401015814612036 14.172607030036216
Zn 12.545025714690212 8.539191423951383 14.072725444995626
Zn 12.607440597542968 7.82225770471042 7.9848709012509005
Zn 14.554953089288674 9.058294528169528 12.47843428555334
Zn 10.216095281947375 8.66556403705447 8.306007575009618
Zn 8.188832541151102 8.682656521652367 12.54616263451762
Zn 8.067007490122261 10.567342347422375 14.375660225940614
Zn 6.796130491146035 8.908777284885183 10.412721023634868
Zn 13.8788319203135 10.855464359192352 14.240445570363697
Zn 6.901873032499872 10.983779179830998 12.171440494991511
Zn 10.561065788780166 13.89609950398447 7.928975775281842
Zn 6.446072235755973 11.329457403936525 9.69233443423788
Zn 9.322294115885022 14.925067530144835 11.899074276268433
Zn 12.92524966484829 13.926024171704093 9.341789545153032
Zn 11.929947782552142 14.236855446703602 12.173091136523993
Zn 12.172202870147913 12.878613032756602 14.491152595403824
Zn 8.047272995475105 13.065692375568277 13.438611924887137
Zn 9.697706011026249 12.203147336831316 15.424776458615534
Zn 15.188161111089885 10.40099947905663 10.270836339962662
Zn 12.761523669584278 11.77481377222442 11.658898843612207
Zn 13.911578907270805 8.172939461640029 10.14032866431998
Zn 10.410137027427185 7.213145387558705 12.468198394714083
Zn 8.924189036695381 7.58217094426366 10.285472185883085
Zn 11.596204046717876 9.44721256165568 11.652353576884707
Zn 12.036154722333544 9.911119465758064 6.668942141367966
Zn 10.02710149433251 8.973897578814258 14.241219558130615
Zn 14.293705515310274 13.437635923818235 13.270545225099339
