40
Energy = -26.88366292 eV
Zn 15.462923312964694 10.980116368163861 12.324856515667207
Zn 13.891654510323592 12.311486870447483 13.756582615479159
Zn 13.882470107785025 12.968859434019791 11.237734185599473
Zn 11.607894646230193 14.193893837130876 10.224312431599254
Zn 15.592244834158032 11.691144840342325 9.80003339495213
Zn 14.132647403474044 13.655463526108994 8.723995163711573
Zn 12.037504906544886 13.874941623647612 12.761331097409283
Zn 9.673835161170235 14.680758716023039 12.371924045441045
Zn 14.090588150584237 9.444953629753451 10.84822387165315
Zn 12.263277784337058 10.972318199029763 15.058735380877433
Zn 13.766110790236075 9.423338845690546 13.543086708470108
Zn 14.689198564988274 10.242043724141968 8.036745208181337
Zn 12.355129223944147 11.448025254177832 9.505413252645141
Zn 9.178240980870639 15.536421514407863 10.082564211553887
Zn 12.153533474983158 11.0398614019402 12.064057199157935
Zn 10.074310709827682 12.2377295293451 11.062984847051524
Zn 11.794849038496398 13.583178733292522 7.611597994688489
Zn 13.643266678514097 12.213940530636062 6.601862072674009
Zn 7.788111236428764 13.051764523162207 13.170808969110345
Zn 10.292319539297303 12.3801223563555 13.893394008298406
Zn 7.538266853969532 10.787587092816537 14.328296991455108
Zn 12.474922867619009 9.950302371799008 6.884530892484263
Zn 9.452259546206003 13.400193544314577 8.624762418827375
Zn 9.777350175801017 10.349510358205984 15.44665003894514
Zn 9.821565628095922 10.084697884305035 12.559078438235574
Zn 11.465486324916668 8.60372319067643 14.312533523568288
Zn 7.718279505963055 13.47249791624275 10.598907057158677
Zn 10.400458887805659 9.878635662941493 10.086986355266085
Zn 11.869783661085815 8.214365126929847 11.750601266516972
Zn 10.25426054121355 11.071796575786616 7.6826006076519855
Zn 7.26100880842143 10.963992559582534 11.673144306389165
Zn 12.476654381797 8.467503783505585 9.172555905579896
Zn 8.151183594902681 11.213796826954797 9.295161058537175
Zn 7.148680623338665 8.691338266641743 12.911296434700333
Zn 8.925146840723299 8.147909548563254 14.578345764274692
Zn 10.773963922028537 8.123267933329853 7.3154118923262805
Zn 7.777247579521414 8.705499438965587 10.37974966463516
Zn 9.31236239627027 7.377168263563488 12.10673173136376
Zn 10.017041251152271 7.285041205319431 9.670949553696614
Zn 8.585796473175376 8.968004253071957 8.010256064422046
