44
Energy = -30.23140509 eV
Zn 7.920896565102082 10.907266281030573 7.674084631487088
Zn 7.865188379092112 11.907893710954324 11.790113520523079
Zn 9.823682620973454 9.08462639134986 8.181505194925144
Zn 7.983572830080509 9.940302738437783 10.003478660005303
Zn 7.93893312684066 14.000449530424715 13.537202132723252
Zn 9.934075405926844 10.672702472171087 6.2001898040449
Zn 7.8367489938250765 12.726272370164287 9.345661647140055
Zn 8.901376059710566 11.673588354819417 14.119977395655896
Zn 9.836453654658554 7.989980951414622 10.424960087863647
Zn 10.268878554083825 11.403477685244384 9.848446376282052
Zn 7.838128458934043 14.49488372275325 11.10494392578017
Zn 8.821195129267393 9.560885981957485 12.446969880228282
Zn 12.104875137575393 9.197589453257489 9.408330811164715
Zn 9.925009421786031 14.285804345970186 14.978872008293783
Zn 10.944367290465046 11.86205185011602 15.611733921114
Zn 11.912061145022106 11.140832160014432 7.721064909091727
Zn 9.871907167182146 12.922167012096091 7.579561141042872
Zn 10.171324726044038 7.356463693565881 12.822902978759732
Zn 10.539252094049965 12.642903888410556 12.186681033479143
Zn 9.972287665723906 15.241478553235227 12.384246289014493
Zn 11.421396398273364 10.16605767621365 11.862775017691703
Zn 10.617691584277981 9.655179903950232 14.352324722882233
Zn 9.968861040905178 14.37258284476531 9.691214630805918
Zn 12.13712631859116 13.84675160025812 8.359629329659684
Zn 12.781572242471452 11.797437988563784 13.371335167304816
Zn 12.427101267166915 7.703865866878576 11.443205555253696
Zn 12.280166885667619 7.629119008178024 14.070774215706596
Zn 12.165143196226031 14.129276784395655 16.012936032747003
Zn 12.611157641734854 12.185103731450567 10.689103497550068
Zn 12.200729458730205 14.529599857436757 13.426561638304223
Zn 14.015251946601579 9.220511580448806 13.002921806934566
Zn 13.38673482795117 11.882485625466561 16.351405684814715
Zn 12.27379118898031 14.971916429251023 10.886869267175761
Zn 14.13683466065441 12.052158807176312 8.374626854665745
Zn 15.892281169249488 10.893488034334109 12.308461880387465
Zn 14.395660542887386 14.334584501984347 9.556703033631283
Zn 14.2519415430117 10.184373695994157 10.382257329225325
Zn 12.986689628089477 9.556766940404737 15.607861510810729
Zn 14.33860059420807 13.641187472469927 14.72606795823174
Zn 15.099731138064746 10.868007692391092 14.72406614110009
Zn 17.901300883158292 12.900777238115724 11.78461675802947
Zn 14.394884762096883 13.747529960234042 12.092207078199786
Zn 16.57381787640479 12.88952476443444 13.907863945532169
Zn 15.863526671880667 12.362298741443349 10.175492488363131
