43
Energy = -29.29822182 eV
Zn 12.333427373713297 8.628212218497248 8.750155606430383
Zn 11.251896634883428 6.471138487879916 9.407921524316581
Zn 14.16822692475252 9.756470572028924 10.208774278809203
Zn 9.765972118759645 8.75513585476702 9.60623901308784
Zn 9.182287455974842 6.2910450985413044 10.728514048227758
Zn 13.004081542998016 7.406877525956398 11.098392270209922
Zn 7.393375285813133 9.376518931197081 10.631501062758227
Zn 10.861306610735364 7.185294607507545 12.518784070081056
Zn 14.686669812746995 8.713613064022743 12.580176707019202
Zn 16.00467240044617 10.74932533250019 11.751605596787618
Zn 13.198991930446349 10.988392467144124 8.07512274316526
Zn 12.489970971045887 8.635929663835945 13.80581297383702
Zn 10.663532493114362 10.483450098755851 7.814098896744969
Zn 8.2479271141995 10.49884620397471 8.46756214637724
Zn 11.690984826741415 9.772336405060985 11.26997447696192
Zn 11.336594467267858 12.020571184604627 9.837753586998103
Zn 8.29461303579776 7.826364918567698 12.472902141075183
Zn 15.746527526642243 12.477663014542676 13.673528737087553
Zn 15.16726478929684 12.006497002702082 9.367363407066982
Zn 14.227515224222962 10.596054217594826 14.270736869556655
Zn 13.046679652451639 13.572029695644856 8.641524849419783
Zn 9.99148391427243 9.3954429573074 13.585050938777465
Zn 13.356160346766044 12.079420170270579 11.605634420201687
Zn 9.501425401152934 11.126571383370692 11.360602122285224
Zn 16.537497127314058 13.143131608907069 11.278635524471708
Zn 10.63603291886441 14.634260370417415 9.273960590624368
Zn 15.030676806864351 14.529651525574895 9.88392671189996
Zn 7.443623109732158 10.063108407842156 13.304362968537097
Zn 11.781427799023552 11.254781062732894 13.676876904458762
Zn 9.054269282815742 12.838874248372086 8.424052391482899
Zn 7.062998384973507 11.95455497528924 10.221498290216646
Zn 13.448009094765402 13.16008749309728 14.572602660687448
Zn 11.038883362458426 13.25713963808636 12.139610032995245
Zn 14.723932860426764 14.560394905038944 12.484742406695439
Zn 12.691612822535054 15.168893387353567 10.743848885792751
Zn 8.721260666897862 13.819065853736905 10.971485027208166
Zn 9.249549001091456 11.84447928550374 14.037628829128998
Zn 7.032663404397224 12.462949929311183 12.68806765709267
Zn 10.980543988495068 13.70509828384279 14.910809691365536
Zn 12.482335465492922 15.283584012535918 13.368532612167682
Zn 10.342941138911486 15.88109487803292 11.615455316083912
Zn 8.673097018254689 14.282758843537046 13.555804055283172
Zn 10.222655071112108 16.14495309310144 14.146458080010488
