46
Energy = -32.05609012 eV
Zn 15.335984655447845 14.3087052228945 10.284120458309262
Zn 15.112840339285848 14.338782867466989 12.844056621470752
Zn 15.296286828340875 12.041255108868507 11.73917967328568
Zn 14.832350152084633 11.993985322867267 9.127195696814786
Zn 14.326262694744523 16.514974758264316 9.31008666349075
Zn 13.483435672343372 14.28974999017936 8.309170595677013
Zn 12.711515276521839 12.071953050688071 7.491574374349537
Zn 13.818241737002296 9.712962800066425 8.26075675179814
Zn 14.79400230494801 9.843378375382594 10.606538682655898
Zn 11.860111340551713 9.796344388756532 6.7002416716948225
Zn 14.920928701417397 9.987400151140882 13.305392834591732
Zn 12.831707875272679 13.412643104361312 10.738800335597503
Zn 14.787157036459197 12.364519696065555 14.398599173118212
Zn 13.290778561186599 15.798739126121282 11.787740932067745
Zn 11.8055140196426 15.781159317194437 9.754507317734166
Zn 12.082614291003289 11.012738377187812 10.026484367703585
Zn 11.880728240256364 6.950396502823932 12.549466791984747
Zn 10.832135353362341 13.706808234134119 8.412526899585545
Zn 14.289389551163097 7.778897709996829 11.981438143410346
Zn 12.579623770494216 12.021931895524478 12.776112052414387
Zn 13.493152000275396 8.060146536993296 14.308688000174845
Zn 10.098675347295694 11.28642550339122 7.775236359492626
Zn 12.704953357378084 8.153446666644625 10.028324806645417
Zn 10.698245887065807 8.787212885856414 8.615298435757522
Zn 12.007374594677795 9.634566287353293 12.219775276760782
Zn 13.221820224114557 10.4464098467969 15.198972163051284
Zn 9.382967298320551 15.312263300679575 10.085576185040312
Zn 12.818199520676385 14.539057623962567 13.946940835028089
Zn 10.36062510884663 12.724528658327177 11.117041061932865
Zn 10.09423310971986 7.881839532260537 10.889250330608915
Zn 11.218383598388565 8.737269483998837 15.04236489638186
Zn 9.393306771438082 10.364144422001843 10.135118618424324
Zn 10.732983604560141 15.15422247744771 12.378266397184655
Zn 8.44108211902979 12.732593335589959 9.018812368222664
Zn 12.659075596136953 12.850692910542879 15.808418525938151
Zn 10.14925358281608 11.083974936160214 13.109631644852414
Zn 7.470466601269324 14.081859227106202 10.995653988059468
Zn 9.54951397565172 7.844259915221046 13.340206233215962
Zn 7.9141934047424085 9.161956572040905 11.982300159368224
Zn 10.871631707666161 11.092652933615797 16.152847643646645
Zn 8.660181722494906 13.44970541849573 13.094830669106264
Zn 10.532359136404002 13.932547717357966 14.812834405141086
Zn 7.330661172589875 11.586085801251123 11.11201806349934
Zn 8.838723315329187 9.64548330465714 15.053467521207292
Zn 8.744366161131865 12.230676252219055 15.399248531988043
Zn 7.339906077226612 11.096595846817728 13.572830238291877
