46
Energy = -32.12576444 eV
Zn 15.098400873294286 8.438156422603202 14.02706493238815
Zn 12.806769085628757 7.679534967611676 14.584811203812619
Zn 13.755127197441958 7.080366913912212 12.157546927562148
Zn 15.697581838838609 8.701354458853206 11.560729006813988
Zn 13.32489728331585 10.299436821254716 15.03123764476451
Zn 11.078281070237324 7.4643036977219985 12.603466848570774
Zn 15.096762488180257 10.819978611572488 12.983944067569007
Zn 10.914237534379762 9.496161285090214 14.2707424234366
Zn 12.77333425366684 9.724261419029993 12.377597904040353
Zn 11.997103748365399 6.878833015811282 10.305541108215458
Zn 13.755254427486026 8.763542396549564 9.905428856143848
Zn 13.018061978884779 11.613721995982333 10.675475499494432
Zn 15.584769851931899 10.784414938184232 10.111710584582687
Zn 13.462888531564019 12.67561913355476 13.850717508641724
Zn 8.761204963842506 8.533084342595728 12.898572887726841
Zn 9.535608548826731 7.697218541292107 10.391701767590266
Zn 11.308012598055539 11.896232025414998 15.314205020982023
Zn 11.5999538993196 8.534606514192753 8.439959295633
Zn 8.796520941067069 10.826214310044142 14.250166332741868
Zn 13.638742306469517 10.609839394194548 8.148542864105824
Zn 11.010228103524245 9.898453724308654 10.646341152995932
Zn 15.13176914766056 13.026317957119876 11.77047932515001
Zn 11.409009212704879 14.33535907596619 14.0888252685727
Zn 11.18524199887145 11.910918641572978 12.639985044708855
Zn 9.025489348834242 11.282965744187369 11.52391377808738
Zn 6.656124611124975 9.920468383995786 13.011867314725432
Zn 13.459327654362319 14.977705487682252 12.650026142098287
Zn 11.18715323083936 10.704732845972153 7.297903465536856
Zn 9.223943406692864 13.26586614345995 14.729240624842653
Zn 10.17286647602882 12.04990257559182 9.28077825810641
Zn 9.171459751670717 9.57596848983249 8.547597476745207
Zn 7.4240733222059365 9.196811326124518 10.53021828058782
Zn 7.229504484449441 12.615019871130293 13.136541094017549
Zn 14.970914338969752 15.224200564424482 10.582950720026709
Zn 14.827917147625135 13.028088422620433 9.042989841940972
Zn 11.630890070629556 13.752924322618757 10.615413283447763
Zn 7.17219327136195 13.617200467250594 10.672910783531329
Zn 6.000416938005303 11.382579563270317 11.136406270170639
Zn 11.037357315074678 16.077108466096906 12.191667777974379
Zn 7.580063217554401 11.548974536334827 9.118689419811737
Zn 12.987757992952051 16.787421437840923 10.701677657870514
Zn 12.370300562788167 12.854567530776407 8.095348299334802
Zn 9.396337580579003 13.984249775151207 12.16766338904999
Zn 13.22904014506672 15.158663202193605 8.688185425770731
Zn 9.065607523188344 14.522455934581822 9.30687193979188
Zn 10.864118861462218 16.22152411381812 9.414835460723886
