48
Energy = -33.33337774 eV
Zn 12.295897976829082 10.602336373413163 10.473968195986052
Zn 9.901093289810897 10.856358219591677 5.658703592399518
Zn 12.112924811802309 10.29710785255194 6.573523653045398
Zn 12.95950371989238 7.860826149028175 10.130547766772777
Zn 13.743197936561534 8.828065511659803 7.897902013882515
Zn 14.978090526848291 9.650866355272859 9.99649866177079
Zn 9.00768575695633 9.558465007461121 9.02832281350044
Zn 13.370444345307325 13.506893441765431 9.285724580818666
Zn 8.113018146431804 11.3863077975248 7.224646568235821
Zn 11.233190170223436 8.729741548916211 8.395085817516593
Zn 7.508475866498509 11.375772838366798 9.753852894290612
Zn 15.616523302866254 12.101133216947785 9.875570997766363
Zn 10.404789817052876 8.278772059664934 10.763588255192415
Zn 13.911532600203117 11.35782832597654 8.090868528437866
Zn 15.708019286198747 10.73559382826823 12.193769717022697
Zn 11.300899194316202 12.095808988803741 8.493976459666959
Zn 9.769806449280262 10.734181305436534 11.574738778502686
Zn 8.97582589468018 13.336726351041559 8.750748381465389
Zn 15.389269280294483 14.613020589509892 10.39361494386723
Zn 10.111570651692398 8.678753665281622 13.307600460226302
Zn 12.025113135753758 7.2373642195623855 12.41400588707905
Zn 14.162390696344676 8.693011023763917 12.309909589961666
Zn 7.211540678693528 10.957655665009156 12.240976388046423
Zn 12.08984779550651 10.784294169001493 13.181012638523928
Zn 13.50605553585605 12.432742647999012 11.751700696275648
Zn 10.961748819128562 13.081102056430776 11.481707723624236
Zn 8.452722058150504 10.325542794009985 14.32102161592168
Zn 16.539445654805228 13.1538281436466 12.04448712010011
Zn 8.917174282023415 15.376054860354845 10.222958586214801
Zn 12.57363650996368 8.327509375266938 14.562696272567564
Zn 11.183917629455093 14.767098397306247 9.165160685158149
Zn 14.842978535239416 9.916042579153515 14.50881688162023
Zn 13.113723304256117 15.499692333034451 10.983906050919584
Zn 7.964153339100942 13.298784461568282 11.297426939262975
Zn 7.9477797462857795 12.893983146810415 13.821806211475147
Zn 14.521367078997608 14.616911737107797 12.93290516368315
Zn 10.75594335981261 10.002378660114708 15.423588010967816
Zn 14.420496042823398 11.930673713758377 16.352851854531856
Zn 13.086947819062894 9.813212054098267 16.47032483700976
Zn 15.67035691145 12.4813062994032 14.26959486845786
Zn 10.860332794285954 16.436011569383457 11.324123857183759
Zn 9.163310035584924 15.003998880039676 12.77017438523899
Zn 13.01456283870189 12.952059124169374 14.347419375567096
Zn 11.919358509948278 12.044191020893006 16.69982010853423
Zn 9.508601097870816 12.211296300767541 15.835595614420932
Zn 11.851713541274048 15.06994384478734 13.30722609993978
Zn 8.964507589686695 14.75341524879373 15.261493999033476
Zn 11.341065116585817 14.33788572767614 15.81658493870735
