41
Energy = -27.00580656 eV
Zn 15.890801134252543 10.4049832343291 10.249596595890582
Zn 14.908495785318683 12.812817107420159 10.221792851706034
Zn 14.537599040688239 11.352376170093171 12.617859105594645
Zn 15.03069810643514 8.891987242970206 13.9780058072907
Zn 16.85740913114928 9.275225948055226 12.309596886204924
Zn 13.955063507314408 10.882764728375655 8.649086002188
Zn 11.968262490611341 11.399308642619479 7.0377915229384085
Zn 13.233781497582846 14.9091973029697 10.119211000422732
Zn 11.454800389884534 14.924262927880413 11.956338763411766
Zn 12.534257068287266 11.856419662050605 10.884257947614499
Zn 13.551804177407986 9.365194900621441 10.847468687140104
Zn 13.159915814112853 13.337095240543611 8.134009173890474
Zn 14.048524928253432 10.724183258971353 15.46224616952662
Zn 11.966238634957222 10.555840125083321 13.116256270673768
Zn 14.443551206304981 13.060224153776586 14.653025723195611
Zn 11.579115990538835 9.799903822637935 9.031385269290702
Zn 14.05045730296251 14.055280025333799 12.359681475253076
Zn 13.151592905063385 7.660117913852927 12.78191932886813
Zn 10.14439684796253 11.55876085364708 11.529928500302013
Zn 9.599302958578043 11.28524268398125 8.035792947273594
Zn 10.582260634747875 13.58053654409481 7.17379873492833
Zn 8.500530714456293 11.36259173410142 13.675153066445763
Zn 11.729183568411543 10.379710292366362 16.836910316161013
Zn 12.562765509360231 12.684859124088758 16.355856385866915
Zn 10.864142107669855 13.361192439556161 9.81792431365554
Zn 7.4060578625428874 11.349322953430578 9.267016611522607
Zn 10.84974029385922 7.408513249730821 13.693452144979803
Zn 11.905921069496744 13.318669332214137 13.83770550271859
Zn 11.834670364685579 15.725534543115847 8.156704889979796
Zn 9.141225296504194 9.499944269980174 9.975569746782455
Zn 7.803765854098394 12.902445351360047 11.350832053325117
Zn 12.609535134040856 8.602401835582596 15.178840125134915
Zn 11.201512927053768 8.343925001716496 11.102359391480705
Zn 7.266476571830086 10.365051698852197 11.608250408828452
Zn 9.432375329753329 13.752904824411644 13.190034209431873
Zn 10.249033938612554 12.101219881149259 15.398543867582081
Zn 8.413586634138493 13.58723392820899 8.763723935931624
Zn 10.100258212697979 9.568928427430656 14.93743108256667
Zn 9.103429116854228 15.136871275182072 10.858988822026065
Zn 9.394041348560608 15.976978172027106 8.49489570435545
Zn 9.211607862655233 9.108168445881933 12.57894792731514
