45
Energy = -31.06907733 eV
Zn 10.550127322895818 15.4945773862666 9.464595604381325
Zn 12.624465577914469 15.621450061862657 10.797455185746506
Zn 12.009382293490171 13.459323864411182 8.620869801568078
Zn 10.095200188537683 15.654539548009613 12.145055338240152
Zn 14.295781663515486 14.900637529948431 12.504092749838476
Zn 12.11449899755037 15.605322778841598 13.556176565803844
Zn 9.352667489804762 13.7928900581787 8.0318660233002
Zn 8.392325750169954 14.53399075952863 10.557195535701123
Zn 14.067657997743392 11.864338550671693 8.506001903219024
Zn 11.247699955646576 13.17400199242548 11.270673911626748
Zn 13.880598680411651 13.208262986454525 10.623788958020123
Zn 13.762312445666447 13.856267763627985 14.735021012166813
Zn 10.548703871808147 11.594940222769512 7.343777521152196
Zn 9.001414427301428 13.378390791066197 12.87752399232299
Zn 12.856492968986439 10.384617569163682 6.978741030349869
Zn 15.319526141307104 12.612407968222117 12.86340659035638
Zn 6.825156663374464 13.305141654480845 8.97319074771227
Zn 11.386624457917419 12.955107950101233 13.943768839035599
Zn 14.83448337017788 10.698720584205835 10.628765371838742
Zn 7.765636342173959 12.001593380079473 7.069857581827261
Zn 11.787162598743432 10.90521337404233 9.836454873098726
Zn 9.37557136793287 11.819448326173987 9.942245087537115
Zn 10.9780586077862 8.965862542674172 7.830199124527603
Zn 15.373979287949515 10.179939399732309 13.23060517244169
Zn 12.753779754744823 11.24562902462441 12.33766761472467
Zn 9.436847820118507 9.095139385609528 9.973786837459349
Zn 6.877604937227776 10.647538641357464 9.344617849017494
Zn 10.027514548960891 10.92050053555177 12.29314869373265
Zn 7.089474361168208 12.289595064735897 11.420190246081521
Zn 13.585119969964909 11.417404376928912 15.015839737979642
Zn 7.611241774343039 11.441816299213418 13.814760346865938
Zn 13.339724592929882 8.78984472066628 9.26870278808958
Zn 11.159508698995069 10.42049175444738 14.6555161253316
Zn 11.116915754739269 7.044387552088316 9.489988439097457
Zn 13.356608361794779 8.964174859037135 14.262519675294971
Zn 7.543504660103093 9.734708528110083 11.762658084598705
Zn 8.511209478228084 9.685087138742679 7.501977123885102
Zn 14.404945188101445 8.384042038014186 11.655693891881077
Zn 11.653351408482678 8.99225186107576 11.646209896532644
Zn 9.114950504780028 7.777936672490978 12.214664834264854
Zn 8.85061414537662 9.357401943781822 14.27526956557721
Zn 13.200122349554174 6.37853762608416 10.662026670279
Zn 10.933727588622999 7.863325857336009 14.038420409344667
Zn 13.096514882494414 6.6798846227194435 13.205201573438096
Zn 10.952216160277572 5.981737225909634 11.906660815642997
