40
Energy = -26.64848101 eV
Zn 12.483992014890106 10.07373476840075 6.068819716873426
Zn 10.4004038465307 8.540569253631013 5.809070087604119
Zn 10.301591838255282 11.014003748286338 6.895507598601254
Zn 12.614053014852908 7.623392366438067 6.905017940295258
Zn 12.692264517831894 12.187897906400448 7.601962975178965
Zn 10.060828462081506 13.239756770554381 8.08308756796601
Zn 10.43240104740205 6.201603412309115 7.009217290521098
Zn 13.446104865881496 9.749562938704754 8.396672112142761
Zn 8.404014147984435 7.814763677069432 7.192352408994742
Zn 10.6415637158062 8.906315970343105 8.695513987803754
Zn 8.535244564705707 11.092652018535876 8.717870379679942
Zn 7.603961098093691 13.487240943873791 9.724790867959797
Zn 12.129593602474204 13.660426512801731 9.802450471839768
Zn 9.80322325728319 14.85113612427847 9.946582384171393
Zn 11.999963965752094 6.513094298123989 9.089720392545352
Zn 13.955319202240883 11.629436864938983 10.030646947090922
Zn 6.985846446881629 11.004194909611705 10.747054437691387
Zn 7.76558741918522 8.706179735145321 9.562477759798375
Zn 11.242410277288162 11.144540661349538 9.6126190019711
Zn 9.322855621101448 6.479788219093452 9.323185295662858
Zn 8.343043347220638 6.784657241173153 11.67784251487154
Zn 6.988206753595762 8.816472116779737 12.112120337135583
Zn 9.501144835923423 12.228100255864431 11.16453034412084
Zn 13.425973642033574 13.153148019305956 11.998655429028187
Zn 9.699700546559498 9.679476275148751 11.10563143014012
Zn 10.883212963089589 7.306608690669942 11.387092588574143
Zn 11.020287320318591 14.18768506043204 12.209349359812075
Zn 12.71854715990334 9.048172672545663 10.760795794375403
Zn 11.619704977881725 11.217171785747064 12.152544585539916
Zn 8.463762686037773 14.914671594267602 12.107521336836596
Zn 6.790341330800578 13.082095791419261 12.240685771625142
Zn 8.067875059846875 10.8956312739543 13.192707728676778
Zn 9.317206402084262 8.457291853453452 13.43955604727231
Zn 14.20024271676355 10.427648009007232 12.474216194468411
Zn 14.310839886588079 12.32200297228817 14.257531724144345
Zn 9.220053535319826 13.117392477585032 13.831267084741297
Zn 11.956774632109337 8.734028299344054 13.253409008451285
Zn 10.304929137883716 10.673368322919437 14.455477796005727
Zn 12.851971507563027 10.401266803495279 14.910994036888122
Zn 11.769048314983555 12.906909067737361 14.327540945927561
