42
Energy = -28.46043963 eV
Zn 11.54768454740126 13.716612498738344 7.035757894214961
Zn 13.55530744684677 15.493007934338545 13.240713213270515
Zn 12.656516054329243 15.348823119489092 10.909991422002701
Zn 8.627251408635333 13.87341519186359 12.484309606715605
Zn 9.098664530187415 13.590603794421211 7.9436859884403
Zn 10.448555061246521 14.094811529578081 10.298653936099786
Zn 13.160401344853554 14.959863893939986 8.486167026415185
Zn 8.123336593210574 12.905555990556506 10.15025650150147
Zn 6.622277379825767 12.15934560322847 12.072587898038535
Zn 10.976790163717334 14.934322499304345 12.86583183306273
Zn 12.504208323720185 11.428820704944036 5.926431425728759
Zn 12.632755038525737 13.608643956744517 14.695224428441625
Zn 10.237570526848923 12.880161010228253 14.352773102078345
Zn 11.836031915105968 12.120849384733805 9.226392996982815
Zn 14.253156583892888 13.242123815724307 10.34430607494543
Zn 14.127637652618304 12.765571320255793 7.5474444648300985
Zn 14.489959492445552 13.112595269502068 12.863082556523688
Zn 10.16684296069205 11.536336388164758 6.8943546449814646
Zn 7.745738526981375 12.14451821859522 14.358034827766545
Zn 9.704430918486803 11.453343505883717 11.954165372330584
Zn 12.028672213112204 12.615977801091457 11.9276741730259
Zn 14.124472097936561 10.578342202428805 12.265210956900413
Zn 13.979741744006219 11.314538585761346 14.683037024100095
Zn 11.686515456098249 11.42906737958715 15.965648530603886
Zn 14.117181807618035 10.735930240174094 9.730582646695986
Zn 14.301943897579273 10.229908027706786 7.161049803717464
Zn 11.5503063327629 10.429118920513826 13.417036122593188
Zn 9.452480517981806 10.414459735216315 15.239401241035779
Zn 11.796800663754004 10.21667276513162 10.914582421368339
Zn 7.37200206295289 10.299670441667194 10.543238736922078
Zn 7.6488192179122745 9.92390183758659 13.127081865953851
Zn 11.671924865041781 9.578870827249593 7.898238329124238
Zn 9.434810811427775 8.831014233053207 11.30632266588639
Zn 13.357257102257632 9.470176967386776 16.312540929457622
Zn 9.554979371702963 10.533015982638062 9.223492925042688
Zn 13.727796621958129 8.298373985864664 8.847950980301976
Zn 13.476656271236475 8.521314511920707 13.875535909630697
Zn 13.762668499718819 8.087507442913532 11.375820982062264
Zn 11.264710258483486 8.485560522169246 15.456269229735064
Zn 11.443955320181926 7.630466443532491 12.468976956893187
Zn 9.377718021853095 8.269252274269885 13.867315508302704
Zn 11.431392976154095 7.781417163974836 9.852124792500305
