46
Energy = -31.77794756 eV
Zn 13.16227943976508 11.512371652355244 15.066359100019636
Zn 14.07924817278211 15.21916376740942 12.30756624283963
Zn 14.437749760282657 10.701487536446706 12.873056022853648
Zn 12.283838922755345 13.836212781872135 13.95569550732849
Zn 13.134825429950055 12.669458029783884 11.498606733604316
Zn 11.587890685080017 15.881252785273771 12.230073531841509
Zn 11.195509588888736 10.119497875162578 15.81549690115655
Zn 14.764252954801679 13.123149297059193 13.642538543649323
Zn 9.855990627194002 14.709395592827937 13.944729895008242
Zn 10.34206077341409 12.45111565430551 15.1954081364514
Zn 13.719651913004252 8.80173841432321 11.278772606818883
Zn 9.20719501551639 10.277821413494788 13.975400173842766
Zn 12.120198805516399 10.747580460363322 10.261308087065004
Zn 8.540584607634779 12.565816906494776 13.099799109147003
Zn 15.113258199578109 11.038056225705407 10.409618225230622
Zn 12.658833988077024 9.097601313171149 13.798968246303764
Zn 13.015791291731732 15.007679424302378 9.907816343739828
Zn 8.617202488182029 14.851757079516283 11.6208932896577
Zn 10.373729068670647 8.034576736262887 14.437580162172837
Zn 10.512672195093884 15.617765882966873 9.898788639842206
Zn 11.418706241299988 11.262436731726405 12.82071940085143
Zn 10.72427204876842 13.352511749969148 11.541640364827664
Zn 15.330115875538642 13.805042540299308 10.601372723369156
Zn 9.810461780873855 7.829911198594026 5.983028475049203
Zn 10.371640348929857 10.250495239106144 6.118593488070465
Zn 9.55399690745964 7.083043096727361 8.321280646967656
Zn 8.173959050016894 9.34562210636232 7.548798723715509
Zn 12.122561831129904 8.524009563617676 7.164329815258634
Zn 9.149178517365407 11.87116607493507 7.599410272906451
Zn 9.80933700490242 6.675711851591272 10.715841386201374
Zn 12.341274953716702 11.1569193544734 7.409126715145763
Zn 7.183319608095819 10.993541824463934 9.22377424689177
Zn 7.9242411969978335 8.517356256418891 10.121021623073167
Zn 12.23077706430852 7.469479805198576 9.557340323727196
Zn 8.192565567507891 8.048778561565646 12.677473843811276
Zn 10.382998698930416 9.515972654176716 8.980798782347994
Zn 7.422618319483214 10.394029791489238 11.900227193995727
Zn 14.033895023244064 9.462577112425345 8.649985826042334
Zn 11.986326596474429 7.037440541449734 12.157435531332775
Zn 11.293852227056208 13.01606024156135 8.945932322893073
Zn 7.031621696569835 12.864964323142445 11.024180514180756
Zn 9.722682223954312 6.014864048388128 13.132875066619716
Zn 8.699158942414897 13.723544251090576 9.24934663388018
Zn 10.494169576802173 9.186715150505574 11.640026721933072
Zn 9.54506935265974 11.370063056578674 10.574370507944286
Zn 13.95105262504328 12.586861252507727 8.745210557852507
