44
Energy = -30.65559699 eV
Zn 11.611557558598237 12.064124294882452 7.04437983366403
Zn 13.605197835239176 10.33002465394153 7.2650175263919685
Zn 14.071237185393699 12.411986775404142 8.5881326813768
Zn 11.675068870490307 15.440189758496702 10.957723258438579
Zn 9.254277532866055 11.074551306169507 6.677264382693182
Zn 9.266850536487027 13.0570770861181 8.290022008808736
Zn 14.178095953691912 9.964989523689937 9.882778559082006
Zn 13.83511755619389 14.215904520948529 10.326919709682135
Zn 11.717373769381856 13.828291876253036 8.941652672207908
Zn 15.134545169537049 12.136696860999331 11.008021778261307
Zn 11.198307286903551 9.475457536456213 6.912453304430284
Zn 11.67170265930768 11.02656078237861 9.478850161509227
Zn 9.310298777465885 15.097485924341205 10.089663928049447
Zn 13.228028733295684 14.384249941482553 12.837743178638833
Zn 12.947343851440761 8.126344101127135 8.446333818218937
Zn 12.459296441051892 11.898175034114736 11.766551136047905
Zn 7.2248268346084235 11.123536592526287 8.186061738960804
Zn 7.507680116141991 13.164821155003361 10.201109206805453
Zn 10.254929965628447 12.8432636256768 11.135375136706443
Zn 8.677927203418507 8.806165446257278 7.613689449431855
Zn 10.757733302874852 7.143171698573807 7.7541978302931325
Zn 14.551315109696693 12.295924145769046 13.561497460177723
Zn 10.709210071074756 14.77659274880837 13.328424737929627
Zn 8.789359105410504 6.765526664609414 9.267105818457207
Zn 11.97968729917183 12.746312856846417 14.520373583152809
Zn 12.169550028014273 9.426575462673854 12.447893180207112
Zn 11.26461951274421 6.226343654068584 10.132514844846215
Zn 14.68753933688858 9.98190957183554 12.42322651043688
Zn 6.316084686627281 10.907030032989708 10.556350506532022
Zn 8.350240144939319 14.367825053387119 12.43009834327923
Zn 9.906401084636652 10.72149584633597 12.655204874535391
Zn 10.65374269980883 8.853268482342555 10.326469114828763
Zn 13.289874921232682 7.65228091068004 10.961902421191787
Zn 13.262722498340379 10.41663983066407 14.685860021120032
Zn 9.112854328179921 10.799808999682874 10.067447064108109
Zn 7.146323725103251 8.64741430815475 9.720460560281664
Zn 9.358772899089562 12.789809574098095 14.312379916341781
Zn 11.704839023332543 8.420206668109708 14.844360048522974
Zn 11.259159798602468 6.93062616434553 12.6216430157269
Zn 7.6083489604449275 9.357090334044406 12.15466597756268
Zn 7.516199756125895 11.956072243758133 12.614976348229845
Zn 8.77971585566906 7.119945174004254 11.726672695947121
Zn 10.548168126398803 10.665600960056196 15.23201784917333
Zn 9.38232926082731 8.44568278032558 13.854508088575246
