44
Energy = -28.96691687 eV
Zn 12.215026859182704 12.252366845495187 6.3934852356053735
Zn 10.389234805129334 10.606083462634272 5.713796088337571
Zn 13.538199774796746 11.663824334296283 8.461905726228188
Zn 12.272524280797505 9.616092883360507 7.2184192176035555
Zn 9.702362126912597 12.819699686470129 6.849197366958814
Zn 13.643520357510365 13.753039659475576 10.27841936005019
Zn 11.637033770254687 13.51000892524592 8.5906295740035
Zn 15.13518534961333 13.292114340491501 12.27912884478867
Zn 14.625610603936906 11.22698623361708 10.885408765005547
Zn 14.87408204703693 10.978446202145863 13.586430061246864
Zn 13.517189478467676 9.290839239398725 9.493617911064087
Zn 9.960124707947555 8.35201376502381 6.867688067831325
Zn 10.610065792256611 10.956117769781793 8.706421733722955
Zn 12.921492197079317 14.80078267394474 12.585714594983765
Zn 9.139276912952726 13.171317374930068 9.392226265214905
Zn 13.385794853750536 9.264103235619448 12.153045622371094
Zn 15.092968614252843 13.543016558369168 14.752234244402516
Zn 11.740810591896908 7.515186555602408 8.668459977764623
Zn 11.899685318877241 11.553656163201152 10.803511142406443
Zn 8.18272966913929 10.739158145017768 7.320794808875321
Zn 10.88991128480801 14.018921039532033 11.122868876381764
Zn 12.590864305867 14.050681743598185 15.22731259036684
Zn 6.863085408893354 9.266074189561559 11.055081126105414
Zn 7.062235391776783 7.163440538114508 9.380117719672546
Zn 8.442192415056374 9.394280803250705 13.069306887712475
Zn 8.691664996526399 7.343901996690623 11.471275995403133
Zn 6.204506535279554 9.406068897460276 8.566171914105855
Zn 8.693093751007629 11.906285115583579 14.21454019052918
Zn 6.874308651248027 11.483507417478526 12.476915763153286
Zn 11.005056740244756 11.798971396826406 15.484374740507427
Zn 10.676209316628697 10.621028127274627 13.095048079651768
Zn 12.614587500495315 9.712604273377282 14.611421912583978
Zn 11.19212373728668 9.048693156965019 10.664354329461936
Zn 9.44518999315686 6.4069828863326155 8.818977279145823
Zn 9.040229200579015 9.05419375990233 9.292926387026503
Zn 10.533385632676339 13.953229787306123 13.73012386779561
Zn 7.080260863192557 11.538290414835506 9.701219293403044
Zn 10.824448245133368 7.998581766545229 13.039192338195585
Zn 13.579326505144513 11.76770429796268 15.811914717975299
Zn 10.990647020339392 6.297943994139643 10.961171894924819
Zn 9.302088458577332 10.960288875544993 10.98417867494967
Zn 7.457473611655741 8.00090557485493 6.8532871878797765
Zn 8.549887687529354 13.386973958024413 12.018473252083524
Zn 12.638390476263423 12.239677775875435 13.073296213678065
