45
Energy = -32.19657481 eV
Zn 13.507801136326586 9.843541815684375 7.106105607990144
Zn 12.582004810443978 12.22162944425067 7.0174093776268975
Zn 10.989346272270728 10.116130823988906 6.6105060300681195
Zn 10.084975532660742 12.46871921548881 6.553649948447532
Zn 8.275013647375273 10.67025927548797 7.207604999062424
Zn 11.84413385094974 8.034816792608057 7.9519397317774105
Zn 8.565965099228645 13.106621265928176 8.400095213350696
Zn 14.064747872278554 8.66118451607815 9.277850828489242
Zn 14.659223038414034 11.288198168796146 8.905898668192085
Zn 13.666729789082469 13.709053663804662 8.705584952389481
Zn 9.373574054778807 8.362515199459486 7.3679119566438
Zn 11.096715226235728 13.94487630088335 8.433643298335623
Zn 12.011244485072808 11.063676646714578 9.385674464138996
Zn 9.548556610513424 10.51581070715585 9.564727507978343
Zn 7.567798591768438 8.642446082256628 9.074771401152583
Zn 9.40926161087922 15.008122054288647 10.196361840883423
Zn 14.057523658735041 7.720243828229843 11.637329327600794
Zn 9.878994248506876 7.016040699869508 9.417123607130588
Zn 12.43910230772253 6.5977835844813075 10.01381121780089
Zn 6.907378964700729 11.23933390113442 9.409809590164217
Zn 7.184064208477591 13.604911472561755 10.41062559232575
Zn 14.323220824910443 12.874049952870351 11.038199202302518
Zn 11.475505883683152 9.032448052498465 10.924943108156876
Zn 14.740958475533084 10.278496644525669 11.257442336370028
Zn 10.455322170562901 12.70420315972016 10.869862578633048
Zn 8.652818963968521 8.157550815098165 11.402171375365372
Zn 10.611148437800495 6.539855982636959 11.85064510491844
Zn 8.42982706529538 13.969752181908246 12.607758052751032
Zn 12.4634640148052 14.748431597032456 10.668953695898779
Zn 6.476199160478906 9.4426990034788 11.232707406614235
Zn 12.113590527788743 11.12071435585935 12.265017097415976
Zn 9.554148088314333 10.74833072641183 12.234738881925127
Zn 7.9509712923176705 12.196449721307127 14.375502385015572
Zn 14.54391767866355 11.880166811591396 13.360043256864515
Zn 12.270067453779737 7.469224621534205 13.444422170659324
Zn 9.887550580678921 8.36987876010025 13.799325390169901
Zn 13.947916813276171 9.441755540011872 13.585601711418672
Zn 10.716230299701483 15.074129149876216 12.476428708467061
Zn 6.846653832752774 11.772869454174359 12.09807547140966
Zn 11.935669243984513 9.356044254164887 15.15301717671271
Zn 10.397170105634858 13.199728360338103 14.206516388202092
Zn 12.780167140015813 13.731453653757614 13.082531189340964
Zn 7.586534446980712 9.674179019744567 13.62123677670514
Zn 9.868475799562868 10.741152245873552 15.066495382303398
Zn 12.452650724945375 11.834854518190966 14.924264032688242
