43
Energy = -27.97078793 eV
Zn 16.349108831615506 9.760921274254924 9.191493540578033
Zn 16.22964742062428 9.069061308047239 11.552150077830076
Zn 14.201859886857525 9.529825934074923 7.859548939487237
Zn 15.891846933970466 11.616723063033824 10.99133878661704
Zn 14.561251920622611 7.937626645925817 9.841059816936776
Zn 15.045890343689917 11.883309112420445 8.545774916847165
Zn 15.026458300314022 10.608860199305274 13.233264988476162
Zn 14.930979203971708 13.222125946533877 12.750949807936625
Zn 13.832825379817159 8.463106240432916 12.248595219298128
Zn 14.7906460809717 13.847034929761113 10.200021477283743
Zn 13.488813484423133 12.102727222177952 14.682213202192026
Zn 12.490565256535943 11.141752322026587 8.90852402040859
Zn 12.688067669986701 9.701699565451715 14.123952090163927
Zn 12.120424176086157 10.446613685161115 11.540810219990911
Zn 11.381228810579499 11.049511109974915 15.766850162882236
Zn 11.216532172640267 7.9726182350165375 12.744505628263928
Zn 12.00994537539628 8.579741788471033 8.885388104414304
Zn 13.392997063541184 14.589183852704188 14.215535522761916
Zn 13.475364874251843 15.405016675757931 11.870424824977631
Zn 12.382323792223687 6.893753600519166 10.769348323305936
Zn 13.214258559418482 15.795501456823155 9.420437412602118
Zn 11.27052943599734 13.573377024351458 15.259574526451459
Zn 11.169544819533453 14.944988429549051 13.020289727097245
Zn 9.980543397187441 7.750194635587961 10.397409266927893
Zn 9.943594948490166 9.739793388617922 14.070177001436157
Zn 10.934223702545454 15.896537824724133 10.674764246656077
Zn 12.137468488243666 13.089763485788284 11.015919061952822
Zn 10.426126226856336 12.129283323456322 12.62317603770078
Zn 13.087016072029376 13.520349276917443 8.225491667355836
Zn 10.178274438132812 10.307782532559939 9.687024866184203
Zn 10.4058776283076 12.647894706304312 8.73010923948137
Zn 9.111741390739857 11.993301558222107 15.078007273458955
Zn 8.628014730241865 7.993344570528568 12.61543616816516
Zn 9.06548883370772 14.4127337146207 14.33267540828788
Zn 11.06240004657584 15.087163614256713 8.134570370453474
Zn 8.7038448505416 14.912252630700431 11.86322427600635
Zn 7.97759579819932 9.455688053637195 10.529912388144677
Zn 8.947369835924412 14.603061229427118 9.456542067646994
Zn 7.354234756417435 10.406722563442436 14.090597930820428
Zn 8.496967220145779 12.191982381760553 10.565079474102053
Zn 7.5495840514609815 12.880102346837651 12.973147369394713
Zn 6.18823023547632 8.712375777018858 12.481084786610591
Zn 6.292823223293248 11.123051304700716 11.73130683488045
