43
Energy = -29.4261059 eV
Zn 12.137749391178636 15.035417611250974 14.805681690413593
Zn 14.687559712876466 14.79951175861328 14.033491009775803
Zn 13.012483211708195 16.044520649758486 12.602616419866447
Zn 10.47322398996188 15.660718816014437 12.583437007545703
Zn 9.721532441174348 14.449227008427435 14.738852531737717
Zn 13.833965063311823 13.165442774436116 15.695119453463231
Zn 14.281901120063754 13.938910378078386 11.632078276992385
Zn 11.364903545105465 12.590600693885548 15.701950806639989
Zn 11.985193765243894 13.094922418509295 12.841541176574959
Zn 12.050329927266349 14.95302572869096 10.505705545547391
Zn 9.418065896694612 14.935936611982598 10.30341426267708
Zn 15.286073465687604 12.341179336290413 13.548146914569084
Zn 9.157144254424471 13.406540555618653 12.511004588701837
Zn 9.009714708234696 12.04877381197261 14.95068042069121
Zn 13.002833458050565 11.03673671713822 14.325292100780386
Zn 13.571754384410415 13.077290421312798 9.36267240221121
Zn 8.654920947135217 13.337563564476934 8.538370130050437
Zn 12.8886558762184 11.10193824001978 11.441630804933313
Zn 15.52208903209487 11.750511003756756 11.026163136164646
Zn 11.149983171003006 14.011830111339508 8.302643598299849
Zn 10.74484856342865 9.99240374732687 15.07823657663975
Zn 14.805585378798028 9.858175089957816 12.935998042125783
Zn 10.839950349909646 12.372461362449425 10.499051737645782
Zn 10.4706628936188 10.862939022208327 12.575221613035678
Zn 15.687521782356654 9.162708294421138 10.712988402672188
Zn 8.187876803956364 9.537921816632748 14.735978951873973
Zn 7.665260187216495 11.22385829084231 12.953588633753073
Zn 8.179334935457442 11.971345411643041 10.603829935117238
Zn 12.002339990546844 11.438489059111129 8.178618378406776
Zn 9.933068712238342 12.212133246867937 6.7045397392772665
Zn 14.276220996721298 10.51174268008856 9.063962737384095
Zn 12.315201869464735 8.858823400026708 13.078813996071423
Zn 8.92510243070153 10.501972217259427 8.654296938196792
Zn 11.0711808046087 9.772315246596598 10.136268591768367
Zn 9.769690751031618 8.136987139414979 13.44144408776034
Zn 13.331426879929667 8.180340907940268 10.69698254854385
Zn 8.53756948107123 9.413420508079298 11.355929425550631
Zn 11.02962288058556 10.03610508590973 6.100540630728182
Zn 10.096352213386753 8.40922314061485 7.7858298762532945
Zn 12.680527205775302 8.881604055680244 7.930689451586042
Zn 11.023897149636474 7.059080795358106 11.597481213833817
Zn 9.059243871157724 7.431180329062643 9.905338978863975
Zn 11.653771766805697 6.914590670522325 9.201527352334951
