42
Energy = -19.84393073 eV
Zn 19.40594065076367 -0.7838578935455337 0.1656200871865646
Zn 20.50119827013476 14.687731176860199 19.397553479745092
Zn 16.196223028134956 18.50858287097864 16.75669053378032
Zn 17.04831667999218 18.75621828240246 21.00611644777604
Zn 17.81733068350258 16.756709417560856 11.701177412952552
Zn 23.452911258519965 19.02089914868521 16.919998017790903
Zn 22.934866029414568 14.418000268684418 15.302228718785964
Zn 18.999964116853818 20.053375790981374 22.157848505962917
Zn 17.802617074387335 22.211080235128605 22.928313037150293
Zn 14.65953209838564 18.324287728001668 21.956766136534736
Zn 17.101147692657214 18.522817390751605 14.41424205843067
Zn 8.835534762156787 19.06049409227622 20.26606888605418
Zn 20.921587911119907 15.978748586436184 14.906861920346149
Zn 9.301828843380989 21.621140727375558 19.426740351287556
Zn 21.756563036755672 12.994027750503205 17.95534497500418
Zn 21.36342577453721 20.861187002986064 23.41466152800868
Zn 13.727899905341207 18.00179072113449 17.230636618441213
Zn 13.813672054707979 20.40306114955026 20.757779902988332
Zn 20.15373678782491 22.398565530455798 21.613496816085473
Zn 20.010239929277446 16.94917843138009 18.406349683017382
Zn 11.399836120960224 18.443879525333227 17.741915616952042
Zn 14.667172368391242 17.501022606114446 14.90259064486637
Zn 15.818842971603857 20.704676982204784 22.35757618873255
Zn 24.029450046351762 18.941207929404673 14.40813091044094
Zn 21.46727417510032 20.264073260067683 20.906833837350764
Zn 21.626335398344576 22.5633607414957 1.0433799205978038
Zn 9.165344756273095 19.69159409645518 17.72837413340235
Zn 11.372908195535148 20.04498969613088 20.014278027976857
Zn 12.98118907089052 17.973080898573414 19.89312879870934
Zn 22.940785464656425 11.975576751472236 15.891594025619039
Zn 19.282992510034777 17.505786051075614 13.675638161020604
Zn 15.537359759674295 17.69542293581878 12.471464564708128
Zn 21.8402842142979 18.770285119399013 18.924408318446364
Zn 15.34337312883077 18.78405480941536 19.112366789023326
Zn 21.649319291099744 18.325904035059022 13.923436646150822
Zn 22.122721496260976 15.798977309695822 17.376902079798793
Zn 19.552297840607782 18.271080608035778 20.42958088760639
Zn 18.516575431828826 17.321491684200456 16.266845252761144
Zn 23.899247459878936 16.724467098817698 15.601685412584274
Zn 17.601558613831585 17.603197761046616 18.691518138721946
Zn 20.978183443653954 18.314952764816304 16.45694820835638
Zn 21.846298119563112 -0.1738216594014077 23.31299282897084
