42
Energy = -29.21245608 eV
Zn 14.86809063480864 13.820931767039626 12.855821545355875
Zn 12.829075119510625 14.895910859313766 13.801721257520859
Zn 8.718656104697134 13.616243032525547 13.53459878104485
Zn 13.582228543605831 12.598524204115403 14.736571053079427
Zn 15.067882470349307 13.068498162203266 10.490705002577336
Zn 10.872473597944575 14.338744155101793 12.226052486828948
Zn 9.236440278532678 11.757977453001736 15.287474518298536
Zn 13.195181892410881 14.939205232209304 11.165121945387188
Zn 11.054159836253742 13.44564603664267 14.82752062229276
Zn 9.15823714788285 13.337003107711867 10.641594860721526
Zn 15.3331627983136 11.357336957477449 12.700026501451374
Zn 6.92992847471719 13.055106865397827 11.869660634387568
Zn 11.169460770570687 14.470220374027084 9.449103872003958
Zn 12.245265478569577 12.250050120328108 10.595949412083826
Zn 14.070504919242223 10.139615189942884 14.564010975897302
Zn 7.687607581747219 11.073836620636847 13.443941443063396
Zn 10.468950480943601 11.686231441886171 12.440153429086374
Zn 11.668998780886175 10.904031388347661 15.05975015935643
Zn 13.587304157155888 14.512914170247251 8.70407597110884
Zn 14.195877472675669 12.137438805384248 8.299823870319374
Zn 14.456321570463171 8.911927282092234 12.37297505703101
Zn 11.937302832104537 12.926575009508827 7.394297614772703
Zn 9.763361373119057 9.539950501030063 13.891781077716693
Zn 9.908902645964865 10.765377801785727 9.871244326260886
Zn 14.457511741907052 10.521861278888691 10.341921811453766
Zn 9.452627124183312 13.039510997529417 8.00174541970822
Zn 12.196547529618917 8.60754022490876 13.90524552702752
Zn 7.225591451553607 12.23254458815808 9.313279962644904
Zn 12.532738679583392 10.279890881050102 8.567927827504434
Zn 10.440109369651612 7.639413302580243 12.236916317042098
Zn 11.903551640582473 9.838108621958403 11.472391006955748
Zn 13.415786722946518 8.145608967623387 9.988002785642532
Zn 6.439856861684919 10.708857529241467 11.197574421405657
Zn 10.594812699029987 10.77684951654517 6.983426276388546
Zn 12.936985296132688 6.8343940387141355 12.226824899456568
Zn 8.351670289150809 9.06832390827022 11.75694115847719
Zn 8.026220946643072 11.058119643697486 7.295959615673593
Zn 11.350927542533922 8.102714175014686 8.292974948907897
Zn 11.475007794830349 6.381246528066647 10.154578263511981
Zn 9.107102835783959 8.774792125510862 7.494995263492318
Zn 9.196167239290086 7.5535575339205785 9.801869142820605
Zn 7.4228808639053705 9.41884119184608 9.274920525722026
