45
Energy = -30.13253069 eV
Zn 11.617954787121421 8.866350760809262 8.78550992293768
Zn 14.215700319512083 8.497206780739305 12.433567760075851
Zn 10.379250232237537 6.685230965858659 9.275514270032115
Zn 10.21297271419435 8.742584219218264 11.535209663743386
Zn 13.981138578114892 9.115552234586279 9.862999737732885
Zn 15.936482244098562 10.204477380596273 11.072644696895152
Zn 11.937344696039949 7.913802087208443 13.465341155427303
Zn 16.39243702488101 12.619792097497559 12.102224089900723
Zn 10.457169316137058 11.171319827023657 9.230172215053996
Zn 16.781361209878018 12.280249987948647 9.509680552837708
Zn 12.173733449951847 10.353118313311798 11.42395520816084
Zn 13.959382666925807 12.078714387708468 10.74262504003728
Zn 7.590345515160567 9.38360661753217 10.943110729473752
Zn 15.046607801265111 10.609034379702514 13.51267181045827
Zn 11.933494653841878 10.346093685322552 14.217462478772438
Zn 9.739940308901224 9.147350878693292 14.333267924336665
Zn 8.148813540114705 7.700668399931262 12.948176674484447
Zn 9.287831882814075 13.483163867355573 8.496596043357737
Zn 15.302918578605738 13.107773787779447 14.321971165333116
Zn 9.723208389130649 11.184644727616934 12.022192737306002
Zn 12.332894239303473 7.343178660582892 10.963623189494657
Zn 8.302128163140907 6.734690763670208 10.585446039713725
Zn 12.898492612161913 14.463028697672986 14.596961170885745
Zn 15.446390107378033 10.62387832788712 8.316585995498592
Zn 13.14631212524502 12.260669029487518 13.124112318678455
Zn 11.475073152234813 12.882688066312436 11.184341275513013
Zn 15.635609764904604 14.340822494022568 10.298593003370348
Zn 9.004778825054931 8.885673845876697 8.87693542669661
Zn 8.76947857592809 14.291183900859986 15.259751222676355
Zn 7.919736063900578 11.351837711618332 9.238629661123092
Zn 8.905615188500517 11.65896996585279 15.048695392796136
Zn 10.82417448216572 12.878208796043538 13.875180135180367
Zn 14.447515702173087 14.722060513684374 12.494613086620056
Zn 14.488698921434564 13.20022475040867 8.286882917162753
Zn 7.536722892797406 10.212015655813856 13.464597286472317
Zn 12.88686156921163 11.120483050852684 8.44629863744948
Zn 10.738161537888775 15.672054495828261 14.852684517414062
Zn 7.5376204467613235 13.086901215673223 13.337721410262906
Zn 6.603934171733805 11.681348608059597 11.424314459769247
Zn 11.889164061893565 13.592601906941725 8.39757114362919
Zn 8.524748355648955 13.40958017978927 10.93901848941529
Zn 13.14809108484427 14.924700871869883 10.183955169080974
Zn 10.505009903744861 15.095944582131402 10.123072617535058
Zn 11.914981523088041 15.70180347647331 12.37435321531249
Zn 9.415064675259867 15.042162318023792 12.662062763267924
