54
Energy = -38.65188168 eV
Zn 8.103295516914457 10.163934957814325 12.88403960214167
Zn 10.000699373704764 8.484792581386808 12.495565392396523
Zn 6.5184139973178254 12.14785677608129 13.461147468773548
Zn 11.047652422470394 8.262411471832563 10.124311339816044
Zn 11.786724819679229 6.624055399134928 12.069639699624512
Zn 7.981228879408459 11.275898897312864 15.293793562765536
Zn 9.446766616588933 8.826675275648373 15.035270210251236
Zn 8.807835549612385 9.799312002972925 10.421149848249572
Zn 8.124836987624887 11.527892031744253 8.484245959785754
Zn 9.941461470092495 10.636950512746738 16.742634532908475
Zn 11.395911570698184 6.986216488464185 14.538686011608096
Zn 7.053416768562142 11.702077621602147 10.896082542071472
Zn 7.104259981097509 14.066655721151703 12.038326815207428
Zn 9.471687052084791 12.44560810126258 11.988306957880472
Zn 11.243116255750301 10.770078080309498 11.179558338828798
Zn 13.539419920034408 7.516554371951919 10.30899676035619
Zn 8.652692824826303 13.845002287998618 7.234261648059225
Zn 8.576910432648344 13.693685973383829 14.176084438386738
Zn 11.911783473221993 9.203032633904739 15.766192423149015
Zn 10.325868999994162 10.05528214824405 8.329719942264667
Zn 9.826249606367512 13.112515498472867 16.30703020020242
Zn 14.150362878309096 7.020355885328055 12.90433945942192
Zn 12.898449707434926 9.577736192219687 8.726151878249656
Zn 10.635170176179816 11.025412327151333 13.833755846410465
Zn 7.862759189121607 13.913251531805308 9.665521096536413
Zn 9.704253639986373 11.72334219481153 6.418805405298658
Zn 12.600317644994686 9.219048230107116 13.213609393307246
Zn 9.449768433765266 15.144123990890474 11.641348459637301
Zn 12.116181314444393 11.835091204045712 16.152275354071023
Zn 11.383976246208253 13.719388213724729 14.211667623660656
Zn 14.072822724325777 10.535314363673898 15.145736017379928
Zn 10.402794626174048 12.602644275290146 9.457459162953457
Zn 15.29914871004397 9.30373926028451 13.34821392862075
Zn 12.215590734474816 11.423358042454623 6.986535746010325
Zn 15.877712921843779 7.990160763878549 11.173213411556219
Zn 12.949918398255095 11.965713570361157 12.93469458475374
Zn 13.811901194120605 10.15425912980618 11.154802940254383
Zn 15.562407416882921 9.450693311938924 9.109274929230898
Zn 12.97774179158639 12.123206567602988 9.694051345244706
Zn 14.747121637190372 11.05601941984286 7.3706139968485616
Zn 11.743329647745515 13.64653260670738 11.439502775588437
Zn 11.396489638730063 16.60821223220772 10.555934753818732
Zn 10.010559282671414 15.181146182062363 8.996858895892036
Zn 11.619684295145614 16.038337436742083 13.05019686696083
Zn 14.20324109772691 13.119927189515966 15.388339801742418
Zn 15.656621545569033 11.951244995638765 13.40831134587586
Zn 16.469795804543004 10.58137001609393 11.351856970271868
Zn 11.30066545743457 13.819091166538763 7.140036889441963
Zn 12.734358310318 14.842543058784727 9.142328408464651
Zn 15.754806225733455 12.196032256438272 9.407130697058978
Zn 13.868003698902305 14.792107361386174 13.620486715967658
Zn 13.924972996451872 13.427686987122215 7.366804991930437
Zn 14.643587570120417 13.480385308554524 11.392738073429438
Zn 13.660922765891124 15.890833920116235 11.367105084256286
