50
Energy = -36.17401907 eV
Zn 12.06100470112626 10.477619748490914 6.280095568773464
Zn 12.151979646675777 8.582242253284376 8.22437179686475
Zn 13.56929489164925 10.757011084648477 8.386592605658853
Zn 13.80697343976608 8.832796180471163 10.238414150121091
Zn 15.385704358520275 10.890686524885206 10.121111193938674
Zn 14.350512130989694 13.267992025155609 8.748275932563676
Zn 10.091630606024392 8.92319244245965 6.347892495101916
Zn 16.09042218566104 13.299131370426151 10.538987973052055
Zn 16.739276511937806 11.577138655545584 12.29271209023632
Zn 12.11398255503261 12.760247957074803 7.530965233376292
Zn 15.226203739393185 9.465804075795695 12.327106281460017
Zn 11.382801997960822 7.652283258512102 10.531675561547772
Zn 9.569211009957288 7.944683875619309 8.65966588358606
Zn 13.11348792738111 7.884819657933826 12.559315763459276
Zn 10.806693735056328 10.562797392630802 9.279589682036084
Zn 9.760176646119108 11.472693036205248 7.07683572239262
Zn 12.446421106468117 12.289103976351527 10.30896733091502
Zn 12.251604886925245 14.88783769088401 9.125834201066374
Zn 11.76630818709514 10.082591565681135 11.663413628117883
Zn 14.169239565779867 14.93672931123803 10.850491786502692
Zn 15.523580902186197 13.911724949447045 12.920725672636276
Zn 7.9370284165776495 9.551290882935579 7.583264087857714
Zn 13.650790369536018 11.73324604952844 12.651009232223359
Zn 15.661325897537951 11.70529381068569 14.480530850281227
Zn 9.974359361059033 13.427204945801234 8.761516821730847
Zn 10.002291900787585 15.538199217605417 10.124679899542025
Zn 8.123578941181307 11.47630158120555 9.257629874708137
Zn 11.876150590020977 13.567685296835053 12.474783233206033
Zn 13.76911427759088 9.644723316243875 14.440397976069349
Zn 11.955136842525803 16.106496661607373 11.583779243995743
Zn 8.941528951981306 9.397785659570873 10.72162841895033
Zn 13.757817839888062 15.761495532181934 13.283226971033407
Zn 8.126148542915404 13.788026675937449 10.521099399662585
Zn 10.1369489275052 8.047846614464056 12.703125025160466
Zn 13.908710520972091 13.775188459985827 14.863913115879086
Zn 9.985471321131545 12.041522466845569 11.41320323641152
Zn 8.012975337990738 9.348384840734926 13.064571121098695
Zn 11.566932208914324 15.388015893444695 14.532840377590666
Zn 7.320591986981818 11.361404085696421 11.718417318038098
Zn 9.680532658425868 15.011750599281838 12.565510218280096
Zn 11.101150173789128 11.34766210068038 13.772955877237974
Zn 13.794037340437411 11.600375939874535 16.14654912784387
Zn 11.724596221558043 8.109410044375794 14.655573586858104
Zn 7.653158994959952 13.543745907508859 12.993983849497521
Zn 11.70337092637015 13.058950644555901 15.929269229297631
Zn 9.532684677111453 9.375423768667687 15.069066106829387
Zn 8.003330933584069 11.477543702495865 14.40462775756925
Zn 9.506664663079137 13.664891799155392 14.77829689818253
Zn 11.734100445185547 10.193916774182833 16.23189024912955
Zn 9.59518678177276 11.6093164782464 16.371847125504274
