50
Energy = -36.15830683 eV
Zn 15.281320909171935 10.15117952745655 8.265943351159397
Zn 13.55481403707899 9.433466806794726 6.629333600431071
Zn 13.792399143215384 8.203813528778236 9.0023371559983
Zn 13.830202811763177 11.951542126546167 7.1398850930506885
Zn 14.86387892345787 10.10371012102087 10.809777567201618
Zn 15.208190521015391 12.347220615187993 9.506161149103232
Zn 11.36201283076413 7.3554305946980785 12.43081121206805
Zn 15.04089830765908 12.767866475462712 12.068242031184264
Zn 14.94215103731523 14.758605413327402 10.459267565811622
Zn 12.378812701267012 10.638138130585526 9.259417000431233
Zn 14.13797500076688 14.255978949133299 8.162421584902162
Zn 13.040904894609586 8.511724653128123 14.001579180784006
Zn 13.714910059741689 7.90566836794326 11.559000612493742
Zn 11.414249258268333 10.820582892050266 6.705096592766078
Zn 11.580327966860336 8.15547384682911 7.406344697755069
Zn 9.02393358959681 7.406476269075349 13.423494849241523
Zn 11.693715610811035 7.061074658314011 9.902899842455183
Zn 10.502490204420734 9.42126093483199 13.979026513238688
Zn 11.706633071649408 13.135059305874298 8.158828269769687
Zn 12.670209359544543 12.672928726800027 10.87696556560616
Zn 14.31638054999816 10.627504229912878 13.267062692047771
Zn 13.525368590614029 12.980930582378612 14.241060330308784
Zn 12.435644739458859 15.221651282386484 9.950140798729576
Zn 12.032792479480722 10.026845827132462 11.741054235245507
Zn 13.500027676427422 14.913104635426622 12.4851850713618
Zn 9.233392214035105 6.777364496797062 10.877966638530877
Zn 10.206032222597782 9.330898125521667 10.007018703336255
Zn 9.561618512523953 6.926540489494435 8.332425470467234
Zn 10.90742326201355 12.049173706732168 12.826364363879152
Zn 9.393923196106686 12.12970488215724 7.587455089527162
Zn 11.80998373267683 14.973614290304623 14.347477135009001
Zn 12.369029876534093 10.766321680506364 15.0172851462554
Zn 9.969832215284967 14.607642626001377 9.507383475469007
Zn 10.286994182960406 11.934793136143199 10.26380570644086
Zn 9.275596279781457 9.368356751532842 7.465378978306296
Zn 10.830109954661683 14.822398981013842 11.986667059815602
Zn 11.283865518521981 12.971018969298528 15.741337956036148
Zn 7.883418496031012 9.555802111016144 14.28783631638367
Zn 7.224387099388565 8.14014543122436 11.88470719556507
Zn 7.522432764505246 8.079249754134247 9.263416277708442
Zn 8.808253620747287 10.464591007428613 11.83850425719847
Zn 9.407776598055223 13.935020303622476 14.246215639682228
Zn 5.761307109631465 9.572091210775431 10.383145116035216
Zn 7.8142577658633865 13.325752455396282 9.221183106908809
Zn 9.304085759583218 11.42522103894265 15.411971502436634
Zn 7.907748501512188 10.729766007681825 9.202868901585793
Zn 8.650875987211698 13.544971764920298 11.732613211751561
Zn 5.931472185304999 10.267379997778594 12.78777693828949
Zn 6.586502299857317 12.046688605201698 11.097845525928346
Zn 7.591850304364438 12.103004780149567 13.683164999715576
