52
Energy = -36.16343151 eV
Zn 14.861131695187064 14.43550495552668 9.114199758379172
Zn 11.507689019633094 17.483488721133078 9.329347474486175
Zn 12.630289120493257 15.81312513527058 7.641266155698424
Zn 15.772345118181931 12.24690187078124 8.226319660949097
Zn 13.887813241849704 14.283211547783846 11.768560972165972
Zn 11.517901568520655 15.718415374910391 11.786567634906168
Zn 13.080541776855977 13.343408119887757 7.516288548232064
Zn 13.482073319456415 16.28191487739233 10.223171932708816
Zn 9.949343843984897 16.318872463455175 7.639960432168228
Zn 9.34260501285451 16.522091672800507 10.175162995830725
Zn 14.935224239698307 11.884166171545523 13.03308341716137
Zn 11.282626493739441 13.041658500943466 11.996286220934396
Zn 8.582888570475864 12.005466242449836 7.885219836567109
Zn 8.756161981576582 13.95012958418971 9.59243331300645
Zn 9.50337662123047 13.605393115903018 14.10526333858147
Zn 14.463073397733316 8.597091344176018 11.502430200202499
Zn 11.170170614636495 11.654504905187787 7.171093687503733
Zn 13.720194744220432 10.834255757569709 7.692100073906137
Zn 12.726848289706634 10.795711152331993 12.154612513359266
Zn 8.978984336945917 15.06579407603748 12.126232266384575
Zn 8.114231915396415 10.356607374842419 9.847392570403523
Zn 8.720261746087413 8.737675015192051 13.944666371587681
Zn 10.034811727938488 13.92948165461885 7.136539370588454
Zn 9.246117504348643 12.398542148912277 16.427883527597274
Zn 9.725917943391329 9.916391419324887 16.051999016276326
Zn 9.511241032851283 9.575942142073979 7.807131893263305
Zn 11.316267279064789 13.851588971955175 15.95159510296869
Zn 8.338765363773746 11.278603624019288 14.189569773241645
Zn 12.899404724933781 13.512239720317279 13.985778548093387
Zn 7.846341180921837 8.4512676460413 11.533377125804723
Zn 11.40952972087359 14.182614970596063 9.561091398949348
Zn 11.628816612123448 11.551950679160523 17.05659453374128
Zn 10.066290914419362 8.36780660610427 10.037126654269029
Zn 11.161720397285228 11.406047423056027 14.159701749242336
Zn 10.56380837603619 11.6453289286544 9.8268128770433
Zn 8.489335625240269 12.489218908952273 11.789118469984512
Zn 9.973794695879002 10.371961116870777 12.003515563432602
Zn 12.498728556266753 9.591912296241018 9.815404977046084
Zn 13.734058623637624 11.530641789703152 15.41680313477007
Zn 9.711016770964337 6.9000720888846745 12.31763540069555
Zn 13.114202328193858 12.260736425323199 10.04157119087792
Zn 11.508444607967203 8.893144275119383 13.457676165512975
Zn 12.088780310907694 7.4101850236359645 11.319740346016603
Zn 15.860869485181192 12.630684455211169 10.816371236245274
Zn 11.88586412064631 9.099776185978559 7.192371551320529
Zn 12.39799421417028 9.364938060810656 15.951040477713173
Zn 14.20593805636405 9.370134073650782 14.001897846103255
Zn 10.421680788406702 7.4411132160284 15.531456430201969
Zn 13.832402045392522 6.777426416653746 13.118484190314328
Zn 15.174387141518016 10.330444710979208 9.912473994804248
Zn 11.425098211320776 5.718696788388375 13.702784868916822
Zn 12.943618442794401 6.925232040431975 15.441717721992323
