50
Energy = -35.44760896 eV
Zn 13.310620306884456 12.697961004938639 7.7254272930243
Zn 10.90426686781718 12.18762869445453 8.37639660113195
Zn 12.623025770450756 10.19789014228412 7.890204660895905
Zn 15.465349201301173 11.601956464338004 8.379540960020405
Zn 12.466517268863413 14.416960524164198 9.342104206698462
Zn 9.899594223891988 14.03492332160732 9.90520513616713
Zn 15.070518844981812 14.147700265799095 9.111529190902239
Zn 14.741387061118902 9.323730574590817 9.134739028522693
Zn 8.518470187246235 11.76516650684592 9.265742043858598
Zn 10.315053946126717 9.472886463914353 8.691015550417905
Zn 17.396187150501273 12.963458759385427 9.352078244015392
Zn 12.464609283492086 8.842637800773668 10.179484540854626
Zn 13.051636402293365 11.52252852034581 10.312537855093696
Zn 10.625498921494124 11.049987888411579 10.860224998015793
Zn 16.601630534236804 14.525400564209377 11.221057167355108
Zn 14.13214364717726 15.60223814069373 11.03299349083828
Zn 16.768937442703265 10.405872645593053 10.317443190987118
Zn 8.193285536295868 9.288077309177218 10.035824288425847
Zn 11.401269172750126 15.830310728930467 11.229525453268677
Zn 7.7594268792998955 13.429083757299097 11.145538707429875
Zn 6.800863719711936 11.019423182592341 11.264158654216068
Zn 18.131990706035527 12.089875867267354 11.591810094354765
Zn 10.190616663802874 8.343893677816558 11.329184410986331
Zn 14.66412511807326 9.463828123832542 11.684880134891662
Zn 15.040077075867977 12.316300499099322 11.512075803887338
Zn 16.45585568676544 10.72006950924493 13.113203213873843
Zn 12.417329095729414 8.614397600085459 12.741863547088187
Zn 6.007103651156229 10.134939284342014 13.550778976776114
Zn 12.846088867550947 13.405938493156956 12.092730643780826
Zn 6.51356346663946 12.573021468599666 13.251002850880619
Zn 10.347060582691322 13.198699383558024 12.370256778761926
Zn 7.838051390163309 8.643607910287878 12.495931007517015
Zn 8.946007622123508 15.59076817795158 11.874732816773731
Zn 12.940049083162226 16.16572481223868 13.225171060738065
Zn 9.156502021041321 11.039823309151704 12.935992003854293
Zn 11.826666144553512 11.161667967201636 13.170550027986593
Zn 15.031741238760555 14.85886973775457 13.479158094989218
Zn 17.015247232602338 13.297827496226054 13.435985580585994
Zn 10.623826009450175 15.432864924427477 13.93355273269352
Zn 14.287378142136559 9.884036976231215 14.246362072523603
Zn 12.218042091436354 8.97822035259662 15.364691374939392
Zn 12.743745796049938 14.017147739273506 14.709938481365564
Zn 10.121727330074135 8.572387999622716 13.916113424181404
Zn 8.003424229606273 11.975742318249003 15.239785992660735
Zn 8.340260396585553 14.244243722995549 14.024312978647819
Zn 7.888090384528855 9.427514671645666 15.01157628375963
Zn 10.407509184654575 13.071736268124106 15.232368002603879
Zn 14.751377429137227 12.428143185194159 14.412268088751311
Zn 10.18030133929628 10.529230300218535 15.713690286652355
Zn 12.611935941627099 11.549641253198557 15.623248261293368
