52
Energy = -37.1919111 eV
Zn 17.723138979120616 11.691338941110228 13.748015313716396
Zn 15.714244705583889 13.248241144052619 13.890842297471231
Zn 15.63588202388875 10.614080829696249 14.727880490293597
Zn 17.046638582833907 12.408062425058072 11.41500876323253
Zn 16.87705925864881 9.87115117044587 12.19236106627215
Zn 13.614685021073464 14.724748641570505 13.900813780416836
Zn 13.380959447309275 9.704980826836124 15.4718711958382
Zn 13.476125123410037 12.269155688690185 14.858832484520674
Zn 14.92727378963325 13.995946403071759 11.542834921797546
Zn 14.486259305199466 11.336309297139405 12.356024010309717
Zn 14.535858131815752 8.780676170486457 13.260140536774447
Zn 11.295320530490038 15.996206960935021 13.87129219236804
Zn 11.195161120276584 13.612006771413778 14.63184086272179
Zn 15.121340420760706 11.93200678986434 9.735712715983178
Zn 10.985784535891558 8.748969922792575 16.117480118309135
Zn 11.229152989689274 11.249084840157858 15.715392317908329
Zn 12.829451815146525 15.597312972448014 11.609912896604694
Zn 15.076058544057924 9.219718659204506 10.577860243691589
Zn 12.089004767109136 7.861394676122806 14.011094311482738
Zn 12.433912528598874 12.877062420261812 12.194517410982343
Zn 12.06288305438663 10.42467679507244 13.1390082023204
Zn 14.330557997503577 9.850682181776696 8.254142390320148
Zn 13.259996604675383 13.835037179720356 9.58243610100085
Zn 12.797702679306585 8.197379211296806 11.52007462292567
Zn 10.603545800340532 17.101458175251995 11.6927301298146
Zn 12.686261085663412 10.825067701849628 10.477535323635166
Zn 12.788439587373787 11.848552356060075 7.770634251624879
Zn 9.855779965650624 7.509777330768155 12.773301351539255
Zn 10.82591302752822 12.586579519325007 9.99119538425437
Zn 12.415495957075864 8.277876986913359 8.804451473962397
Zn 10.35487754685516 14.299713924443791 11.922345656322907
Zn 9.477008170385007 9.702647392498832 14.202815770771371
Zn 11.32468553026005 15.719768999631496 9.527534738348763
Zn 10.97988674445607 6.822407306916163 10.477163903865321
Zn 8.534350539728353 16.097292333622544 12.882909188364993
Zn 10.451961582568822 9.692516857392837 11.054289490040496
Zn 9.967450386133752 11.806610290775037 12.404674382257744
Zn 9.017072600270106 12.3254122586563 14.973924868869707
Zn 11.842785937260556 14.247849847487878 7.448925847301104
Zn 7.82534740577285 9.106509480094964 12.178795334249187
Zn 8.81931563141624 16.328443583408497 10.183551304468255
Zn 7.761985427742994 13.634648845838775 13.124465258581669
Zn 10.294829319083329 12.366754838470591 6.860869647751495
Zn 9.36725784594915 14.41059174875882 8.32352880961351
Zn 10.786557681578477 10.320274654426589 8.367752510251439
Zn 8.487363841158619 7.2304721877301485 10.53417409733428
Zn 8.141349941393582 13.881730736671136 10.563376605327363
Zn 8.527034760880635 11.976803163531924 8.738684768751275
Zn 9.851227682258367 7.860750786176557 8.387744621431587
Zn 7.276576886208179 11.081233805399583 13.657952861483167
Zn 7.552780596401656 11.499879926731937 11.10773226974215
Zn 8.26311160395419 9.579747927127125 9.495300798340729
