51
Energy = -36.90745495 eV
Zn 15.610492353720488 10.392340906114608 10.795554313732929
Zn 15.013827801225153 12.936667834669464 11.042280829606089
Zn 15.793128357342374 11.456811226342245 13.1141308031566
Zn 14.640522186571458 13.684473153957908 13.55284179498641
Zn 14.58809841919548 14.387067933471169 8.82976281503312
Zn 14.275811133970237 11.670617583330714 15.132920545205998
Zn 14.984761708710195 11.923383585555241 8.520130872853985
Zn 14.272932932954316 15.318768951261823 11.419101769989183
Zn 13.813419726706401 9.193270013140964 15.378154214837764
Zn 15.371605032580318 8.960840926311421 13.34497643072313
Zn 12.957190714752276 11.330191200004057 10.3589544574783
Zn 14.030515231452453 9.582995376447936 8.608799745752282
Zn 12.288050414263028 13.887090509889862 10.16249259902503
Zn 12.418067108182045 14.891707124551116 7.56860582964404
Zn 12.963308311839459 15.592784697474835 13.632379734181136
Zn 12.333763296729698 13.513528563177934 15.028517928547304
Zn 12.312758762306375 12.815843637164505 12.469482267924947
Zn 13.324961448082743 16.59625821170106 9.31712140499411
Zn 11.895160998721261 11.094551234402841 15.748546973068917
Zn 13.122260824820902 7.617809982316809 13.373259340175915
Zn 12.267343242189735 12.29542517406762 7.872581717848876
Zn 12.929880895475936 10.308762626424343 12.818511774577333
Zn 14.068296131677332 8.44445497550938 11.028005313817326
Zn 12.446873661037245 6.44122220403485 11.186182674605842
Zn 12.541378870821454 7.629537452596588 8.934452988274
Zn 11.45672137353014 9.800175468501346 8.096140764001172
Zn 10.477331784256087 12.174498545257153 10.608202570128105
Zn 10.492963467214318 11.02383026319442 13.034393295628835
Zn 10.527470034091017 14.807057016263286 13.293120017996321
Zn 10.055692698336122 14.023012708725702 8.233616716165873
Zn 11.376911247098631 9.457731810212783 10.838400366480288
Zn 10.830600551779217 16.364451099690818 8.920418719776478
Zn 10.55791798788373 7.594037293068237 12.577473235648997
Zn 9.57287605884434 11.471224412986647 8.096056240291096
Zn 11.777799763124225 16.22320692354024 11.409097006463067
Zn 9.673133453797334 14.870930290818269 10.778385805972809
Zn 11.276989412255881 8.82561466374346 14.712985046895259
Zn 10.278341138999728 6.985926082121884 9.890670900303052
Zn 9.830025293177126 12.878392370995144 14.870904944152816
Zn 7.09569120934756 10.936729752349288 8.841314078761998
Zn 9.44501795936629 10.434494166379919 15.659164411641221
Zn 8.948939082338475 8.971975062672394 8.848852852249719
Zn 8.93541814087765 10.327701806944487 11.151196820781422
Zn 8.729924365398286 8.817881812447897 13.785221469059646
Zn 8.108256726697054 13.125687557489464 9.68646901232462
Zn 8.263357025640582 7.825634821388369 11.28027477884584
Zn 8.57676401215998 13.32929125196336 12.526967495016464
Zn 6.236968081458497 8.94298519528778 10.002073436359076
Zn 7.745471198140699 11.324659201809741 13.8935991079638
Zn 6.574632101427806 9.435136280330802 12.475607969837741
Zn 6.764998602037263 11.795837917053554 11.40825327475005
