50
Energy = -36.16191021 eV
Zn 16.52800223052215 12.614916340699498 12.784604416114494
Zn 15.642910252105898 10.972459628975521 10.729795626416307
Zn 16.22479522628218 10.143091660886713 13.175784494243423
Zn 14.857526003940391 13.497058141264116 11.026191475303166
Zn 13.097973312034583 10.931936630898115 6.991206321222009
Zn 15.157407787294522 11.90632708158011 14.834806959513802
Zn 12.117764298068952 8.803690889093748 7.828462073755584
Zn 14.379375009041905 9.415346250423594 8.96622788150235
Zn 13.50612798388347 14.545756612108992 9.114769381145296
Zn 14.047336661316006 13.790444627306377 13.461635105431508
Zn 14.44332607484786 8.88338161146593 11.650903088534461
Zn 13.450954059349836 11.516891724153323 12.228095111087665
Zn 13.933615838613285 12.026071626794193 9.102123072525712
Zn 10.69718256079621 11.243876429941341 6.306382664850904
Zn 12.786360928965967 7.5460159052097815 10.188518996254627
Zn 12.856040246064689 15.109382613421985 11.544685047450518
Zn 13.817490489604335 9.735261479408438 14.154819666746343
Zn 11.93401615621438 13.160419662718851 7.628371857772295
Zn 10.413620863729044 11.267682154867185 9.062493674308355
Zn 10.599964551989112 7.145407712463262 8.886143531002375
Zn 9.520981462804281 9.234311051464758 7.463306035721469
Zn 12.231104356357108 10.199627885148935 10.428689532121263
Zn 12.393305349443121 11.986415690336619 14.66013199646925
Zn 11.049152339846025 15.067549379615086 9.318922665258533
Zn 11.539888215216397 12.8350117419986 10.933782376823276
Zn 8.33749028578689 11.581483637711967 7.031884767092832
Zn 9.879559303505449 12.659176345177984 14.807563366279458
Zn 10.804341411448663 6.629930518160391 11.545858046172471
Zn 8.682392318850841 14.644084157941585 10.271775765547037
Zn 12.387479487258569 8.074299208168505 12.858512383365474
Zn 9.392814380051444 13.734968279047454 7.893117456553557
Zn 11.45270320714669 14.187064236937443 13.544339712195526
Zn 10.430319472731725 15.78038178542565 11.728705948718169
Zn 10.919586062188316 10.728394091273564 12.676430121554256
Zn 7.628319357243248 10.28031235152516 9.121078354340279
Zn 9.80495521323046 9.202373516199225 10.747658033365417
Zn 9.026226860907684 5.436527471235887 10.09279968786126
Zn 11.521167285263557 9.493718096083564 15.11821140622874
Zn 8.110112436640753 7.686623507447369 9.074711160128807
Zn 9.10776538145651 11.863345137097165 11.236786785099667
Zn 7.299658612448753 12.784321579681574 9.188700547544563
Zn 9.909659448493795 8.201568861822025 13.594997654243686
Zn 8.267522104174216 7.130124387955257 11.934684591241126
Zn 6.754488064628487 13.666322275407504 11.647080235767138
Zn 8.874146547571687 14.224569418768686 12.973488550691357
Zn 6.665970380024224 8.722311904909759 10.860967897433879
Zn 9.119133052359327 10.295748982439116 15.017458503292243
Zn 6.45207290096306 11.178633154396385 11.315958279866047
Zn 7.677017615004939 9.536289855564194 13.062936400824196
Zn 7.648324583517753 12.043661602341388 13.60159337130959
