5
Energy = -0.45017529 eV
Zn 11.565308548748188 11.156738474556494 16.604134118928485
Zn 13.75895620318621 10.914697448280807 7.468600261126815
Zn 11.785522287658642 13.664159147012587 15.222430366790833
Zn 11.284821331677936 11.558037851693642 5.632900975630176
Zn 10.360422892429543 11.42969655142464 14.00800651425943
