54
Energy = -37.03859542 eV
Zn 14.05632754835608 9.42314621937363 16.17120270437958
Zn 11.221818837127596 13.594293442584664 8.117010179472187
Zn 9.080043453005912 16.996720211024858 14.97484457481547
Zn 16.20418521083936 13.870675123898035 12.008593013674192
Zn 12.860736788445658 15.92273516832203 11.581837136835224
Zn 9.435531109356079 11.819754572790725 7.85997640539949
Zn 15.475585852832626 13.50393168600703 9.480188401310125
Zn 11.935041007559276 8.885894861949634 14.742409826142605
Zn 12.791038029369433 9.924004261460766 11.157190720244468
Zn 14.964013663648863 11.610559673251554 11.294675961543112
Zn 12.110355185031285 11.091045010250527 8.059024595730579
Zn 16.117096607909684 9.502594558951781 12.498366728331948
Zn 14.790761284118386 7.3465914968223505 11.699596891276977
Zn 7.654942263979201 13.142105141685754 12.32969703402434
Zn 12.70708127147292 13.526448006118745 15.688666628738007
Zn 12.957797896323932 15.532507299624827 14.226341993430944
Zn 15.132352636358437 14.061157831361012 14.47063809977473
Zn 13.685015108887454 17.993532014912198 13.485211516470017
Zn 14.659724452816379 11.89252341552519 15.678360418855448
Zn 9.500657475539747 9.559231148886408 6.743994770735613
Zn 10.388796175501025 8.08064185106345 10.751826524222801
Zn 8.674820506296284 14.44496800179443 14.288506462137718
Zn 10.750628071667593 15.235455649141075 15.600112786047058
Zn 10.836520868075452 14.683148774566588 10.398544947196982
Zn 11.31727175691454 18.02308880358167 14.341196629971934
Zn 9.851869035055074 8.887222702218205 13.108467758949892
Zn 13.176317089753617 14.95903841830628 9.253952500997832
Zn 13.71790423000217 13.093857002590852 7.61507926310474
Zn 12.839982080142379 7.303919072585742 10.027527439466793
Zn 7.689614753933773 9.05163951841086 14.87144267774476
Zn 11.09522070755202 8.440256105868917 8.359766617081274
Zn 12.166666190919319 11.105643724416035 16.22138010757147
Zn 10.381918019732526 10.547521600363787 10.100913281601624
Zn 13.247532326028987 11.048199734880146 13.450727690130382
Zn 9.915304763267734 10.148775450151529 15.490706067949123
Zn 15.451985619196426 9.089741021752317 10.0445234965287
Zn 8.402101116887673 15.215975278251914 11.18791376515828
Zn 10.609414536924843 15.544206365451725 12.790837618382328
Zn 14.342053156406902 8.177235195942828 14.016630225408047
Zn 16.318062684484733 11.909284340732906 13.603444325745064
Zn 12.319997328073024 12.38200429601568 10.486867485029478
Zn 8.61436353368909 10.750938768982534 11.900901908930338
Zn 14.922044006770204 11.173771583657116 8.705520778565557
Zn 15.360974548460097 16.195743311839887 13.045708356017528
Zn 8.986553686869483 12.81324873240381 10.139731380605191
Zn 13.57380125492388 9.045009272184778 8.318175369481391
Zn 10.212291939856566 12.733946657699724 15.696517282247777
Zn 13.435500078551259 13.511542057498456 12.481287613754942
Zn 12.239639679421694 7.6872253215662605 12.503706501329098
Zn 8.45140252968481 11.739589286847101 14.203237237825315
Zn 16.26325624201511 9.847148201039765 15.029521593724077
Zn 8.032768616180348 17.109818710113984 12.744515921694054
Zn 10.86122087795941 12.642942606339643 12.765637383599184
Zn 15.262495600704915 15.737788380254155 10.602875635763432
