55
Energy = -34.98191504 eV
Zn 12.303672599754194 12.303672599754194 12.303672599754194
Zn 12.303672599754194 13.626278351326526 14.456459322706943
Zn 12.303672599754194 13.626278351326526 10.150885876801619
Zn 12.303672599754194 10.981066848181682 14.456459322706943
Zn 12.303672599754194 10.981066848181682 10.150885876801619
Zn 13.626278351326526 14.456459322706943 12.303672599754194
Zn 10.981066848181682 14.456459322706943 12.303672599754194
Zn 13.626278351326526 10.150885876801619 12.303672599754194
Zn 10.981066848181682 10.150885876801619 12.303672599754194
Zn 14.456459322706943 12.303672599754194 13.626278351326526
Zn 14.456459322706943 12.303672599754194 10.981066848181682
Zn 10.150885876801619 12.303672599754194 13.626278351326526
Zn 10.150885876801619 12.303672599754194 10.981066848181682
Zn 7.934815982158087 12.303672599754194 9.5923832991072
Zn 12.303672599754194 15.014961116618439 16.672529217350124
Zn 12.303672599754194 15.014961116618439 7.934815982158087
Zn 12.303672599754194 9.592383299107025 16.672529217350124
Zn 12.303672599754194 9.592383299107025 7.934815982158087
Zn 15.014961116618439 16.672529217350124 12.303672599754194
Zn 9.5923832991072 16.672529217350124 12.303672599754194
Zn 15.014961116618439 7.934815982158087 12.303672599754194
Zn 9.5923832991072 7.934815982158087 12.303672599754194
Zn 16.672529217350124 12.303672599754194 15.014961116618439
Zn 16.672529217350124 12.303672599754194 9.5923832991072
Zn 7.934815982158087 12.303672599754194 15.014961116618439
Zn 12.303672599754194 16.833730741954643 12.303672599754194
Zn 12.303672599754194 7.77361367377064 12.303672599754194
Zn 7.77361367377064 12.303672599754194 12.303672599754194
Zn 16.833730741954643 12.303672599754194 12.303672599754194
Zn 12.303672599754194 12.303672599754194 7.77361367377064
Zn 12.303672599754194 12.303672599754194 16.833730741954643
Zn 13.714252535268486 8.633235340862763 14.568951243739775
Zn 10.893091880457153 8.633235340862763 14.568951243739775
Zn 13.714252535268486 8.633235340862763 10.038393955768438
Zn 10.893091880457153 8.633235340862763 10.038393955768438
Zn 15.974109858645448 10.038393955768438 10.893091880457153
Zn 15.974109858645448 10.038393955768438 13.714252535268486
Zn 8.633235340862763 10.038393955768438 10.893091880457153
Zn 8.633235340862763 10.038393955768438 13.714252535268486
Zn 13.714252535268486 15.974109858645448 10.038393955768438
Zn 13.714252535268486 15.974109858645448 14.568951243739775
Zn 10.893091880457153 15.974109858645448 10.038393955768438
Zn 10.893091880457153 15.974109858645448 14.568951243739775
Zn 10.038393955768438 13.714252535268486 8.633235340862763
Zn 14.568951243739775 13.714252535268486 8.633235340862763
Zn 10.038393955768438 10.893091880457153 8.633235340862763
Zn 14.568951243739775 10.893091880457153 8.633235340862763
Zn 8.633235340862763 14.568951243739775 13.714252535268486
Zn 8.633235340862763 14.568951243739775 10.893091880457153
Zn 10.038393955768438 10.893091880457153 15.974109858645448
Zn 14.568951243739775 10.893091880457153 15.974109858645448
Zn 14.568951243739775 13.714252535268486 15.974109858645448
Zn 10.038393955768438 13.714252535268486 15.974109858645448
Zn 15.974109858645448 14.568951243739775 10.893091880457153
Zn 15.974109858645448 14.568951243739775 13.714252535268486
