55
Energy = -39.74168312 eV
Zn 13.894659181559318 14.244461766233012 13.680188369026471
Zn 9.523917165825667 10.03074443010487 12.907084920226195
Zn 13.489270308275653 9.945581059692486 16.160837573150488
Zn 9.350379642866775 14.46844308317352 15.100042444516669
Zn 14.030971195105307 12.865601548214501 11.366982978361253
Zn 13.832969962039028 12.868829773922505 15.895592729661372
Zn 13.914589629943965 16.999069787091376 13.788294002777533
Zn 14.351523653385039 16.002875599673704 11.435050517363019
Zn 15.821841414202702 16.69102491329416 15.364336193508516
Zn 13.883135564934756 11.498011450558419 13.675128446972076
Zn 14.299874378902095 9.753600669407115 11.399080914634359
Zn 11.484801643722397 14.22581482322144 16.74095963274473
Zn 9.336806993786508 11.313341843468358 15.088302572555198
Zn 16.3934861816718 14.271020443744199 10.925490166295571
Zn 9.251959046898135 12.883421753756343 17.025638747598972
Zn 13.87146347214086 8.73366110862811 13.749716314275112
Zn 16.368293396856433 11.455887894912646 10.907766715738465
Zn 16.293379076222426 11.557214447341634 15.306696179298694
Zn 11.667713004102946 12.877288504632174 14.365482652541997
Zn 9.372419110140612 14.199977791097847 10.764790129064671
Zn 15.787125665087771 9.000196574728296 15.318735958168693
Zn 11.556194340200934 15.854481954560288 14.554711964140155
Zn 9.34212530263271 11.613007939546824 10.768699529407446
Zn 13.50900840308354 15.787332688751675 16.194900861587325
Zn 11.52766983202102 9.89790836015452 14.533450904454819
Zn 11.978728402935122 12.931269490697781 9.840642804446542
Zn 16.30946557301395 14.128197773702595 15.32032275233102
Zn 16.5901469745918 12.853860394970642 13.074392665826682
Zn 16.165060760232063 12.877199068331924 8.848755268005034
Zn 9.740295228335354 12.901060916198103 8.343483852236622
Zn 16.25009385638371 15.570281861726054 13.141800596170265
Zn 12.22609643610187 15.781269258427436 9.940009052201365
Zn 10.056003101097133 15.410825721520778 8.504579410234422
Zn 16.209246749686333 10.139738380432242 13.105331904848288
Zn 9.941702174088487 16.757047878811896 10.672620017861314
Zn 9.972202559186346 10.392030398509455 8.490807166604627
Zn 11.75628078297554 14.23467598273759 12.107688640266858
Zn 12.171272630470789 10.030594338768847 9.901549246585196
Zn 11.904772760333625 14.18972194788873 7.292792745207496
Zn 11.896475759764959 17.06789251864352 12.258822167084094
Zn 9.872125476451984 9.044920524762185 10.650520307183378
Zn 11.955468805816995 11.52533971758959 7.40885048999688
Zn 11.733156783369957 11.567743414037626 12.086556893633018
Zn 14.365854190393257 14.639797310509156 9.244151524964428
Zn 14.053824604701598 12.904106013225006 7.365274411122961
Zn 11.857483777559363 8.73350652655799 12.209893640217219
Zn 14.3529851547588 11.107134116574683 9.20139251478446
Zn 15.96706284550015 12.838664542843059 17.663910012406266
Zn 9.22516861852367 12.905253755381814 13.052379614915374
Zn 11.473620332155912 11.523845731866473 16.722984908382823
Zn 15.693759996041825 15.343727991375832 17.58096168261885
Zn 9.548592310691777 15.755202891097737 12.918242772648167
Zn 13.577473920811004 14.14777531157553 18.36615511103435
Zn 15.670763549128706 10.332043792054508 17.552128803131065
Zn 13.565427728753223 11.562661628735722 18.351227014446774
