55
Energy = -39.75285775 eV
Zn 13.598966956975339 13.950982535323266 13.391819650108133
Zn 9.21966795310773 9.656983701615552 12.583195454641924
Zn 13.14178389032287 9.548306111917263 15.939775541112027
Zn 9.061427541648476 14.196621327105698 14.76613167062781
Zn 13.7094723819857 12.564153272874998 11.07114004936041
Zn 13.493925349392669 12.57631852155474 15.603487690667786
Zn 13.57636630623877 16.73494407082508 13.386343999030762
Zn 13.978970020361984 15.68480509757214 11.054652299573975
Zn 15.45927959713301 16.436362790070607 14.990016086273428
Zn 13.614185977053243 11.175422552471465 13.43821696530003
Zn 13.989911027941158 9.440474119052967 11.105595201304851
Zn 11.170099457873402 13.948562047302127 16.39969556260587
Zn 9.069132564297922 10.926303120678263 14.772498397426043
Zn 16.034088204383018 13.971898942932544 10.604888174807058
Zn 8.952074792886705 12.562962552999029 16.64625439172851
Zn 13.591949330342814 8.394568320847604 13.45039010355245
Zn 16.03709532585772 11.146191773206086 10.613773904733115
Zn 16.002998669098147 11.294933625193863 15.009982979311078
Zn 11.379475492425891 12.560832313330899 14.075401521108413
Zn 9.066082520173644 13.831379293755914 10.453093005886618
Zn 15.462883269699347 8.746399526002342 15.048577476400448
Zn 11.244347503853167 15.57598535710836 14.18155668920339
Zn 9.12880270888415 11.266017357325737 10.452973377555987
Zn 13.14743769865755 15.584101938474621 15.861319272294086
Zn 11.267986135435619 9.545382531944991 14.201723342493189
Zn 11.606220022213986 12.540096152124827 9.60481397713472
Zn 15.956723848979433 13.86605874594032 14.991651046506384
Zn 16.268071117524446 12.566858013650002 12.769667793266375
Zn 15.855352799460471 12.55321771718741 8.547656415242558
Zn 9.455028659339577 12.504720419215896 7.935153127287196
Zn 15.91155777055844 15.314557408616679 12.78333961839226
Zn 11.844052698084301 15.357593909318101 9.577803279332834
Zn 9.647000809708643 15.008315134511376 8.144067114689113
Zn 15.920435524772362 9.824996211389676 12.812996402105838
Zn 9.540810437989611 16.39609157331054 10.28583476537049
Zn 9.660977032212294 10.004166999758695 8.151432399915885
Zn 11.427321172760841 13.883958457540574 11.839045710607984
Zn 11.855547032188907 9.671412071542317 9.596088475181585
Zn 11.687635414252124 13.8457848741838 7.154583969387949
Zn 11.532264612496308 16.730087742865635 11.845112208204942
Zn 9.548943092310845 8.671132961974683 10.333706758338952
Zn 11.726963046749008 11.17078055861745 7.190520509122
Zn 11.486678458315128 11.187791387803063 11.846638550351123
Zn 14.032363913185964 14.309087221100908 8.868149794415325
Zn 13.82167775412676 12.550171473806763 6.97502221898447
Zn 11.565352496267554 8.368400993279364 11.877478220714364
Zn 14.007156565987216 10.815788542757915 8.915882896853327
Zn 15.60795275624912 12.619611010421995 17.343905296425312
Zn 8.949041055101397 12.55618279542622 12.76598920767114
Zn 11.171165631276557 11.182057919362872 16.406960653590843
Zn 15.343684817250177 15.128573917598427 17.214932326104535
Zn 9.197286301136028 15.464750156632682 12.57053469490719
Zn 13.249882423954654 13.9421654626413 18.042610950323464
Zn 15.31229342641757 10.11240871821031 17.252344392857637
Zn 13.2402729553009 11.360412969923823 18.08169874180776
