51
Energy = -37.20239485 eV
Zn 13.22872886825618 16.73460797825465 10.899197709570727
Zn 12.530173705844623 15.118537838330255 9.001998409294679
Zn 16.009677374091257 12.433030625997144 10.321983172166963
Zn 13.98272888081175 12.926226981805117 8.657318216568537
Zn 12.522938945038518 10.885140303329498 7.838756292900485
Zn 11.845654522697041 13.328592822161154 7.236372610690456
Zn 14.411430467737606 14.404799796257281 10.717904044034569
Zn 14.72504511240504 10.462115975657557 9.250659434953047
Zn 10.758544462069358 16.11662292271882 10.78536715204602
Zn 15.615389188837511 10.363996934726801 11.727884801935039
Zn 15.298006958252445 12.919292387758231 12.730846527606145
Zn 12.017458599041296 16.934538872585886 13.028612436565938
Zn 10.047252884465735 14.790869790664036 8.649765718455228
Zn 11.929645706444742 13.83248125395355 11.820243894270241
Zn 9.376120615995758 13.530123453278353 6.41929993094356
Zn 11.019926349405498 12.416932650491855 9.627584982836437
Zn 13.3886672023301 8.504930751100828 8.213659931182223
Zn 13.140840524788647 11.662049099070385 11.350613327608466
Zn 11.494405018836522 9.88619146017723 10.300098574491074
Zn 10.025500856900146 15.233318100495572 13.179568896119294
Zn 14.393979113580562 10.829142614600812 14.020412324913988
Zn 14.177702020367251 8.412729018209324 10.71699870704791
Zn 10.244217468370923 11.214008362910828 6.699367333655717
Zn 14.912269980190363 8.393759307578888 13.205678162110098
Zn 14.038003382657124 15.269724956655669 13.083586526975061
Zn 8.412877741813041 12.836154947001317 8.685334131729395
Zn 11.979002091148557 7.250527099023181 9.90516484105891
Zn 14.151844396646032 13.342100461496672 14.994937179563083
Zn 12.163857869754262 15.103346578273246 14.767074178774159
Zn 10.878159940542188 8.864518732358349 7.645562521179857
Zn 9.023646769138741 14.154405631159834 10.95450832430613
Zn 8.403010903518865 13.194182360497148 13.250512723813547
Zn 10.317690662174233 11.595270257238308 11.969864323950846
Zn 9.021757788276766 10.337162590480421 8.879138714090503
Zn 11.843835174526106 12.205446468504102 13.91678373893726
Zn 10.066322044155092 13.72042177775738 15.322009606736328
Zn 12.835506542352848 7.074993430542599 12.451019851553863
Zn 13.311364666123906 8.676189640390861 15.118764011038317
Zn 12.053567565814056 9.745462301516598 12.786422509303915
Zn 13.0002713042941 11.045757941993907 16.180902191375594
Zn 9.526039526972863 7.820011050676362 9.485121480078893
Zn 12.298047202325867 13.489424797450258 16.73111114822302
Zn 7.776091978306898 11.820795043765278 10.888647102615364
Zn 7.448720246941415 10.80420963390615 13.172040258752942
Zn 9.266912924689551 11.316308549998748 14.903357326390566
Zn 8.518812996617111 9.371837888780716 11.268886472026626
Zn 10.648075263657349 11.701914137538417 17.081492749959384
Zn 11.204376496828164 7.435567506935728 14.374633404658407
Zn 9.267279423749695 9.019787096958138 13.775820188589309
Zn 10.40119955986618 7.629924942002601 11.903766428213915
Zn 10.90946730883373 9.43533978776748 15.880574198387105
