5
Energy = -0.85565586 eV
Zn 8.861585072528477 7.302362313171456 9.942967943190874
Zn 6.093569920399383 7.85454503946257 8.882526732190374
Zn 8.17253387334226 6.857288314910103 7.2338302420155145
Zn 10.022898483166163 8.914595350171316 7.677166090115165
Zn 7.26343017264773 9.485226504368685 6.677526514571851
