50
Energy = -35.47619676 eV
Zn 15.817010003484697 10.584522774774218 13.338928560312018
Zn 15.825165160250833 12.266426510091344 11.508030940615793
Zn 13.627485033454663 10.734135455372446 14.5583647591365
Zn 15.13443886069857 9.742076854513984 10.806034608980534
Zn 13.781132395441047 7.555863678578568 10.60535229506169
Zn 14.01274888390669 8.699967165935405 12.910009146786994
Zn 11.508251338500402 10.632134447114204 15.904822940816652
Zn 13.069992797108647 11.501775085118066 11.901628012550171
Zn 12.035942204534788 8.537307974312874 14.552189747185306
Zn 15.914210920010547 14.445036677756587 15.291619189221887
Zn 11.880507924149462 7.246300477043392 12.27516339981655
Zn 14.504468074968086 13.221418608363324 13.485760569695545
Zn 13.767973785322845 9.250133796259208 8.655544343429865
Zn 14.51422625825249 11.75304360572364 9.375694089111017
Zn 11.548927780425327 7.374839348745199 9.38083206045157
Zn 12.10616959839704 12.811829979490623 14.3409192316414
Zn 10.837364625303463 10.541588174440058 12.986116939050193
Zn 9.214918044064792 9.864209151901216 15.10253901712135
Zn 9.748650980267445 12.37309466063492 15.555054371479534
Zn 11.899109048235571 9.72001345554159 10.607808676593889
Zn 14.05463267887985 14.043177744909617 10.923823021979626
Zn 9.74815037039792 7.70645725490041 13.810478184815265
Zn 13.070469299021488 11.391963097382545 7.359155482030044
Zn 12.489285054907178 14.938430662292733 12.84348260601607
Zn 9.868972669618158 14.423089327709855 14.150388539219708
Zn 8.196504538248961 11.882572327859572 13.558546741441246
Zn 9.736598441209573 8.503380825960638 11.403912306474753
Zn 7.755661904171228 9.31206669449258 13.112829964033299
Zn 13.299209084988027 13.783101268783213 8.42040323595322
Zn 8.903492568917017 6.967066171167831 9.614091927094641
Zn 10.197287447535704 15.745542552434117 12.033788806394655
Zn 9.980815659284488 7.220438513392449 7.347710152049836
Zn 11.675666073374707 9.16747808781752 7.130982842265279
Zn 10.750007555397774 12.931976217308364 11.921936290085899
Zn 11.806521737388865 15.00757996206659 10.195299895486345
Zn 9.24873216442887 11.155929056428226 10.953435557204136
Zn 11.446247038727005 12.022612351917012 9.619291010953772
Zn 7.228288619164398 8.749254842428082 10.656159693449684
Zn 8.116966477352909 14.071081189601369 12.24690847002555
Zn 9.851266373596928 9.826728849445237 8.869336823162406
Zn 6.574666098245518 11.169272443440125 11.708898991031296
Zn 7.687803612301094 8.436144042375739 7.874330830167317
Zn 10.855841107240158 14.089840889040065 7.89272437660922
Zn 9.271422136375998 14.588164840059358 9.90850561100313
Zn 9.323127288615828 8.859713947376951 5.629480387226242
Zn 10.604875468682216 11.595962306858453 6.839975016951122
Zn 7.2137208766992345 10.778602041237047 9.120522047826856
Zn 8.667343276375805 12.767871525756116 8.181987722014638
Zn 7.052479882496934 13.1617019663534 10.161453816729136
Zn 8.161779869325414 10.738183018085758 6.712876926389542
