5
Energy = -1.21286184 eV
Zn 8.562158486669025 10.56924842262477 8.55639588362105
Zn 10.454939148953994 8.755861454307741 7.935182981737611
Zn 8.28203188707467 9.033116962205469 6.372651606152978
Zn 8.061446372997189 7.94863277575188 8.822746341847946
Zn 7.217753717228987 6.262327704367752 10.882537770347836
