54
Energy = -38.9160864 eV
Zn 10.332169876326658 10.296616631086007 6.452300663488931
Zn 12.907085817460132 10.285260035801311 6.793832199909961
Zn 8.900532626369376 8.997627421110066 8.241350258626692
Zn 10.349749699332063 11.440199466462097 8.758875192600524
Zn 7.876857522414417 11.271127371167891 7.472285020914718
Zn 9.462762138219096 13.309248243326104 7.04037156074635
Zn 11.450011166424614 8.024922779745356 6.9468670370799055
Zn 14.40529317667095 12.74723332063548 7.179049473977745
Zn 15.481131166778129 10.493017331127623 7.641210242609473
Zn 10.011846796658105 6.871725599613743 9.227488875188572
Zn 11.913984175065778 12.680991443792026 6.789746132786055
Zn 8.602395122807263 15.067823892341645 9.12215473125609
Zn 13.498819797456438 14.036568434309437 9.775559370515069
Zn 11.511815610822131 9.23210859969495 9.400408588749567
Zn 5.662494583511682 12.19709413091195 8.86414080273737
Zn 14.043977769611658 8.497243435151075 8.272657155184191
Zn 7.055249636247217 10.234374160665217 9.736028559039509
Zn 8.116886528135039 8.037057905037207 10.577956308050718
Zn 12.863643370444283 11.48184125878147 9.257611741946954
Zn 7.035588290887938 13.775614769504532 7.545317102092014
Zn 9.495428276029191 10.446852767859243 10.976290831150983
Zn 15.492043246680595 12.303777160575049 9.476111407728059
Zn 12.52750668720443 6.448210831173091 8.574550542044623
Zn 10.960277323065725 12.64484734346856 11.087021137313144
Zn 8.523156121607778 12.594248810040746 9.981023174488167
Zn 11.104122030057463 14.120918485894626 8.874193583469047
Zn 14.993970519919701 9.956291213914742 10.344103242125863
Zn 8.993343745954403 5.674272214492265 11.335150559437055
Zn 11.660945069444125 5.963378985783552 11.082402066385583
Zn 10.690425529119558 8.396430843821715 11.755653195578828
Zn 7.159298949359139 9.876229284615592 12.335900515631755
Zn 10.317076995188627 15.397158037432282 10.985876118381448
Zn 14.275338955929245 12.442910688208425 11.80275911061011
Zn 7.901447792608733 14.503907761645898 11.799399575171897
Zn 13.513535520849858 7.789393465777911 10.728377747819714
Zn 12.417783573170304 10.482414564456713 11.543637448704459
Zn 8.465626361344974 12.158503246052362 12.89628383067741
Zn 12.655492854554625 14.886024218150474 12.048512529751548
Zn 8.374979850949265 7.658673933087214 13.122101776118102
Zn 10.703315080161348 10.561015304172772 13.285030629330784
Zn 12.249590903602321 12.798449837913267 13.533446297181307
Zn 6.2991750600041945 12.232875070568372 11.431880828565742
Zn 6.146182500600923 14.46606147119488 9.982065435307147
Zn 14.380513638252776 9.21174326725879 12.767105584839593
Zn 10.323945601021999 5.87849625037488 13.41140440114165
Zn 12.576050564450325 7.300755003386439 13.171387884333615
Zn 8.495988982106335 9.9840937834964 14.573408791233126
Zn 10.09550118323315 14.198942095925162 13.215816726168827
Zn 14.244593646838835 11.339045263682612 14.161037480572547
Zn 10.003189986280194 12.390299324535638 15.162044097658248
Zn 12.673882994454905 9.351118496778176 14.752821395051678
Zn 10.433467337513168 8.120448190174402 14.72505386467934
Zn 12.351199126252329 11.678265033106648 15.96996980786493
Zn 10.376602572472224 10.12354497264059 16.370260817909166
