51
Energy = -35.88625367 eV
Zn 13.100933437473897 9.883660158439621 15.920362593472328
Zn 11.395275823093186 8.712000109059504 14.30133502391624
Zn 14.76915354370843 8.33353314487735 14.566958515865213
Zn 10.815053677900355 11.126743088149492 15.431769054406518
Zn 15.325231534283011 10.7978940917339 15.048253206047464
Zn 9.152870064897694 9.747798716523585 13.705870632814397
Zn 10.27130475921274 7.577814651297186 12.14769679866315
Zn 13.134033719124577 12.375084896570659 15.338626390310896
Zn 13.105293161492126 7.233752738183625 13.083399358843781
Zn 7.823849455327351 8.370645612435462 11.980691155362159
Zn 13.223466404073857 10.444121098495964 13.220988404118842
Zn 14.84598566629716 8.816751199523406 11.785808251621477
Zn 10.940705103456391 11.535555736240639 12.717626047486155
Zn 10.995445842256531 13.733964608454823 14.536089632850496
Zn 15.543311586232067 13.120327829971526 13.986455250335375
Zn 8.99885823434991 7.822307706533663 9.771912601084345
Zn 6.915116211594043 10.658787874311672 12.737533075883295
Zn 11.503143418404646 7.377772434573428 9.35231184869142
Zn 8.528494586269561 12.121770324887775 14.523973916213457
Zn 9.917431377829791 10.058167832801207 10.900749914593069
Zn 15.668736741439304 11.132450243217596 12.38788491070978
Zn 11.586622967666662 10.303905064146926 8.957388974448108
Zn 14.072096544096123 8.61704266404418 9.27175235947141
Zn 12.270876620246753 8.930434976014958 11.25267336248801
Zn 13.727057018021002 14.81853848106968 14.868054972172526
Zn 12.927571052113858 11.402069467092858 10.802917515042038
Zn 15.323346731331752 10.923444226925707 9.796640716748117
Zn 10.529299415611007 14.34563531021885 11.831181687876308
Zn 13.02370315673906 13.003578101153332 12.746379275810625
Zn 15.036846026296118 15.346515455352128 12.728984878767534
Zn 12.637362207711766 8.329339957775568 7.107633091090657
Zn 7.357120044123017 10.208809913629914 10.068758235268014
Zn 6.494619332129839 13.226012586785153 13.121654256695438
Zn 13.862930255651735 10.654639870337371 7.596060857516275
Zn 9.151698693576295 10.775172048703036 8.159762637922642
Zn 5.917177375308402 12.267744716251668 10.904101842107165
Zn 15.199380934923576 13.302682506510571 11.067399902760647
Zn 12.369069749504591 15.731866609231886 12.994193896786697
Zn 10.783350405424986 12.544520416586721 9.941998351986983
Zn 8.824860238659666 12.249430085295606 11.605998886538387
Zn 11.2864661919166 10.16263443939549 5.939466192503419
Zn 10.027630812576534 8.457989251265458 7.459725891775385
Zn 8.659434889767274 14.504070936297916 13.59083632503186
Zn 13.648106688828069 12.990402114322007 8.79731419767717
Zn 11.924295729567861 12.371207009521312 6.955392682272198
Zn 12.868299928050892 14.667911301727806 10.619432741914844
Zn 7.804746185212006 12.736160071138835 9.195127557072562
Zn 9.384236623746423 15.102415136743376 9.507944771935193
Zn 7.510800436497955 14.588354304926467 11.14408529975146
Zn 9.645900737372893 13.318789954362932 7.553126513071829
Zn 11.649773061507734 14.690106993601786 8.355124471312983
