54
Energy = -25.55454217 eV
Zn 11.682533846244725 12.40062577833568 15.476257110626683
Zn 19.63745753671137 16.138546274539507 10.26296597381047
Zn 19.678860905402395 16.03429722144994 15.487939543166624
Zn 18.33296344626605 17.91058521743387 11.633265028772696
Zn 16.434924287097303 16.380095381640828 13.523055147549195
Zn 18.07599235274338 17.623124861887018 8.890057089703483
Zn 9.94737737732426 7.407716601986577 11.344786002866776
Zn 12.592494784350576 20.219330702505577 14.546940755274214
Zn 18.159397575736723 20.015154573505082 16.81188564515691
Zn 16.971882888196575 11.730716562860813 14.32667038951512
Zn 11.669729314516358 13.233015454455577 18.040368610148523
Zn 19.018799968236536 15.919549842939077 12.984802760518194
Zn 18.96224758405799 15.490674791005405 17.90552305887879
Zn 14.316272729399637 19.898310134514603 11.3126486600538
Zn 16.189245720924415 18.94637500172279 9.92274701359828
Zn 10.546330035828044 9.381370953477747 15.504307351920458
Zn 15.327587728488826 14.670380734753893 15.022228339020007
Zn 12.168263795766867 17.79651550618681 15.365200464993505
Zn 11.80121164298061 14.103623877674528 13.497601500410743
Zn 20.21431912694109 14.067991569556153 11.430040272303943
Zn 14.117514936663365 18.188529986643214 13.545632323250004
Zn 14.108484838393816 12.443663260133066 14.32655494868001
Zn 18.162959375396632 11.344911567856098 16.666531597176743
Zn 17.96339335910456 13.286006636491306 18.257907480207123
Zn 10.178501831208337 15.140331409044625 18.515258964872956
Zn 10.627650896118421 10.989611302513362 17.446309671891434
Zn 11.906495520033138 24.161784306904273 23.241980837805187
Zn 15.606800648407138 21.42287707883482 16.223970264001945
Zn 19.544473470888533 17.351952465077744 19.74326699797196
Zn 15.148500597526805 10.203114930680567 13.408329698796372
Zn 20.43545705117852 13.89485027158099 13.978682881862555
Zn 11.076931241380935 11.78440338450505 12.881243069225725
Zn 17.246725614650302 20.44284189660223 14.507636022907398
Zn 12.64882415692744 9.888871935558788 13.885550212959881
Zn 23.237225512119874 8.552736225051682 24.742213944298282
Zn 16.4254095039335 18.959405859374925 12.69964327862112
Zn 11.712567265636524 15.266140250293253 16.05844366360363
Zn 16.03473270602146 12.774364474889593 16.66562235701737
Zn 9.181872790965066 19.530300935263153 18.17797708916534
Zn 20.041868217831812 11.72861387082626 12.269441573519623
Zn 19.425166939974797 17.92403132586069 17.174668020478535
Zn 13.356933787100004 15.918754879983473 14.099060681737736
Zn 19.565880644702656 11.304921668503491 14.659914744986297
Zn 14.810042631294131 20.840556149154853 13.69507334529035
Zn 25.096180293901813 7.506920959572263 22.426864730512378
Zn 10.63412282454523 17.35287397755466 17.40583693427448
Zn 19.878032265985482 13.460239444905303 16.411784729665655
Zn 10.528732921260845 25.889813531406816 25.545404727629606
Zn 13.747896314343508 13.854983384050431 16.806051576107414
Zn 18.516950936436448 18.13155844934544 14.437378538952087
Zn 17.768798639392376 14.206682311861297 14.576293838769585
Zn 11.152016166186502 19.86309142742686 16.572806278043622
Zn 10.171260976436978 9.406086480815668 13.014979767589917
Zn 13.3030285970726 21.03990982186714 17.186305116639037
