53
Energy = -37.92848514 eV
Zn 10.404731029187428 11.314572012140149 15.528176902684644
Zn 11.324175843140406 6.778707931022285 13.182355959828659
Zn 8.921243829812173 7.565427880028553 13.826289623364575
Zn 10.951131582455385 9.103699390594379 14.311706995754177
Zn 8.307353111544584 12.625321036304623 15.872868630811007
Zn 12.811869524629016 10.919002801089421 14.767228997846932
Zn 13.334935216012726 8.787898244490655 13.396742125444346
Zn 11.792237312921289 13.455030252549166 14.794692681427236
Zn 15.028560438366634 10.897635861419552 13.463927831290972
Zn 8.903792031379629 5.738109443983702 12.132924787205855
Zn 8.893543193288702 14.732335036309848 14.664627951569193
Zn 14.484810533064884 12.898639553824099 15.142598082536827
Zn 11.04230761516039 5.702089208810331 10.870364659288855
Zn 10.064463430181354 8.65846272102813 11.448002137243547
Zn 12.722204743279008 7.766151520328768 11.151138666221343
Zn 10.19053506293222 12.49199201858518 12.993822654759455
Zn 8.718680076894863 10.174131927868979 13.468633014207127
Zn 7.434891581442071 7.910797860650873 11.776311306573703
Zn 7.434989544495966 12.424559678196276 13.44676599477157
Zn 15.946758174168714 13.390316681528232 13.184091010417037
Zn 14.678328318858073 9.521404596110312 11.296998190652474
Zn 15.989147841574674 11.782682838634843 11.167005334279239
Zn 13.709743166610814 14.792910635356957 13.478417887612478
Zn 12.966592059022933 12.494011108789408 12.470689827073215
Zn 11.657122125965538 10.459871951289223 12.002838951586602
Zn 9.022376332632614 6.940180753393102 9.753664454136233
Zn 13.165946787284826 11.559935878937914 10.032528265659394
Zn 10.799002763622184 15.19301161325948 13.077642475810272
Zn 7.955214603855959 9.324344623294879 9.57547712112657
Zn 14.591411857194897 13.93130289809932 10.911577028538762
Zn 12.47893445970761 15.292452366137983 11.257543303979624
Zn 6.788007452275058 10.447435703284572 11.68164307712324
Zn 11.046908938059865 10.07688182860909 9.479984904538878
Zn 15.774680203442326 10.428096527579173 9.013353859277453
Zn 13.597026770369398 8.920440642105913 8.99479816534265
Zn 9.215646091507526 11.230594429304139 10.916923312122163
Zn 11.54920995956895 7.270790674040692 8.899088174911887
Zn 12.033043483774629 8.86839628731453 6.930757697343555
Zn 11.095585352779645 12.993343810048565 10.657375706222156
Zn 8.386365899399866 14.513617208756113 12.01131591909717
Zn 11.196687191041878 12.33366380431489 8.061803691202186
Zn 9.568126062139656 8.623249794341884 7.7206024602212535
Zn 6.468845420134043 13.042469848358284 11.152784062322624
Zn 15.070437137890348 12.81575462486599 8.568372649603738
Zn 6.699487018533119 11.617335083340926 9.202660463271062
Zn 12.86321723163279 14.366863126175636 8.944007799384426
Zn 10.06837230398235 15.549647886829218 10.438477825267425
Zn 13.501804410977616 10.922566783480056 7.3328741626170135
Zn 8.848145264980227 11.283964492293807 7.942105635559118
Zn 8.536288374836358 13.602652123554785 9.420481920450005
Zn 10.447859559864634 10.58408106655855 6.096541316560823
Zn 13.351909848293612 13.350694174329686 6.583441281005754
Zn 10.426996571443834 14.825191239590996 8.032038810124225
