52
Energy = -37.70929407 eV
Zn 15.169383915524012 10.784624596775709 9.79121827065281
Zn 13.834991613548674 9.275083564006684 7.49185450390496
Zn 14.299493154065823 8.334339991660581 9.859600768727931
Zn 14.346342965323537 11.81298205139971 7.684331608227575
Zn 12.047998372256117 11.114077297376603 6.813344269339078
Zn 14.894048945039133 12.385362867201561 12.021667326767938
Zn 14.952176980097528 9.774965710439956 12.109581996780756
Zn 12.57743551679087 7.074510127077567 7.919929060620905
Zn 14.06515408379214 7.350863335176167 12.173146907638715
Zn 14.768815624602071 13.450720673762564 9.718365363206903
Zn 14.369061261286053 11.282316656923264 14.206528280402143
Zn 12.619230481165772 11.868880014363135 10.450133111069865
Zn 11.059671684203774 8.687888078362983 6.740582479827638
Zn 12.107843849990461 7.048208167218144 10.458650438793596
Zn 13.167593152557801 13.511424002910712 14.569147618538771
Zn 9.757797703196973 10.700051038064071 5.807114964526024
Zn 12.38373057431064 13.38747064345643 8.123478536840123
Zn 10.224701551680736 13.207875316150856 6.665101917292724
Zn 13.200837111413795 14.310198847079695 12.064974160905285
Zn 10.246068268239293 11.67724576444843 8.820009232516238
Zn 11.67901886781464 11.91010216666049 12.858028659072424
Zn 12.170705818195268 9.520731399638704 11.78581159687635
Zn 13.44094990365364 8.857098942875927 14.16438526610743
Zn 13.017417759777233 15.28917199730971 9.727020659687625
Zn 11.81696692614191 9.733745949324355 9.296960821245712
Zn 11.720738380585223 7.166649261121954 13.218195742548836
Zn 11.05405958229978 8.315879082376977 15.546142888793959
Zn 10.035208805739542 7.6824449747373 8.97849918937214
Zn 9.836393717962531 7.789525104864295 11.56680654278547
Zn 10.573257300715849 15.130046316548762 8.689698809993493
Zn 10.280055495551515 9.855926409785726 13.5126570694382
Zn 10.507546134740705 13.28732685934968 10.855072212078323
Zn 9.899856948675426 10.703282680596784 11.110196632988762
Zn 11.096605076684876 15.9053073584027 11.29909718572857
Zn 8.600161691440256 9.542161223359543 7.914668175679263
Zn 7.890298997513233 11.934089312001847 6.877973541962826
Zn 9.336244778474002 6.973623949738229 14.134857117929483
Zn 12.164298399709239 10.721254811583822 15.35965645319041
Zn 11.038527596609415 14.596190838995923 13.632698795801897
Zn 8.336119928666164 13.843143802674424 8.564211260345262
Zn 10.608131871999374 12.74710748755373 15.3534514315059
Zn 7.81632654443745 8.712993564622092 13.00347279998639
Zn 9.808166771090425 10.565607171644682 16.401592599343235
Zn 7.957682410267838 9.02486068022695 10.34716984196033
Zn 9.102266064695105 12.786626097506 13.205193828984568
Zn 8.642630573791637 15.940918854622861 10.118218276009525
Zn 7.569554361127433 11.434432144639821 9.49338473752026
Zn 8.343329895426706 8.601929915395464 15.71238869080057
Zn 7.6668910223016695 13.498952972020295 11.084287411212282
Zn 8.037618171151358 10.92389617391923 14.59508640887224
Zn 8.870763910740733 15.307658607661665 12.48076499257935
Zn 7.369564011190654 11.071354681993638 12.046389159232062
