54
Energy = -32.83849616 eV
Zn 14.061072949826679 9.062495082599497 17.93255060480767
Zn 13.382046191357988 19.72173556735202 13.94262629844661
Zn 16.754054609960857 7.286694201456592 14.398440100320377
Zn 17.420295213164625 17.008075349397128 14.480760743023364
Zn 14.436285031502821 11.549611063618771 15.324608590775824
Zn 15.766942575585906 13.356597583354093 11.695315842194905
Zn 18.793391111678357 16.237830955967695 10.53638174728333
Zn 14.596882854127513 13.488365098172196 9.344426125445244
Zn 14.960820725639687 8.929060979367517 15.506587777241146
Zn 11.169534258838722 15.952059634045305 16.15414167295585
Zn 9.14196380589771 11.293307241234578 12.692509855575334
Zn 17.468202744071036 14.03928213716034 10.041680633775746
Zn 13.300906315315077 10.002626246864164 13.335391798130088
Zn 17.4787915821738 14.124309378957864 13.445563118847048
Zn 12.451979819705796 14.005943309907087 17.512480263210154
Zn 12.491216190905906 9.470390765961035 15.914459776484438
Zn 11.644399117684424 11.72353960917888 16.761483747853916
Zn 12.777251469642025 15.055712037649307 8.29577859517106
Zn 19.125940222888822 13.21122882607271 15.761985174308897
Zn 13.07558062021675 15.820155131542602 14.120515769401685
Zn 9.97801135294445 15.219558496012791 9.818092457250629
Zn 17.158379366991106 15.068039559300285 16.128634468319756
Zn 12.174199766052817 10.362411587946198 18.890158539576085
Zn 9.583774326704278 15.401122906023849 14.28630715935374
Zn 11.78824893514134 13.54606790975797 14.923962342777742
Zn 10.350290008835081 16.87336753464381 12.122739466488378
Zn 13.68701464519614 14.895774187166218 11.530781004652175
Zn 11.543663506070654 21.284650206380853 12.957632933739525
Zn 15.547622688500967 15.86765322872548 12.976235704340063
Zn 16.495407033436045 12.716227939990908 16.69784157307057
Zn 11.786339405550772 11.3999906333367 11.752369005532017
Zn 11.379049185942378 14.304447757325367 12.523065478622385
Zn 13.233226141914143 16.37068079280701 17.541944179593155
Zn 16.208998324544183 10.311625938621907 17.483654244764605
Zn 14.16989152431564 12.021675244532489 17.97148876234212
Zn 15.046283913761165 14.609232193996682 17.721615802218924
Zn 12.141064031127199 16.56370014594719 10.286810936228187
Zn 9.50568358665688 12.875490186020903 10.739887997088008
Zn 13.40003806104992 17.666634300591472 12.149131310994271
Zn 8.507760876994748 14.960090140543508 12.035560652825053
Zn 14.698222739459649 14.180144920713701 15.074121332402402
Zn 13.734180224466323 12.587239639451093 13.104985589772022
Zn 10.349460402711838 15.949802547574025 7.310294215390137
Zn 19.39516040544155 15.384057317177737 14.724352608376904
Zn 15.341215179991384 18.330815896106394 13.893302009963248
Zn 18.545736730306672 11.061059246476173 16.685523259511747
Zn 12.882130033141681 17.97804654336879 15.701660624190893
Zn 18.02335751436742 8.714432288785027 15.975740787924687
Zn 11.065214068326584 11.051222510726642 14.386165299440398
Zn 15.21042119286436 16.813293268608305 15.997455804098035
Zn 12.055795534188066 13.149632925030925 9.987744794872233
Zn 14.812077361700911 8.103425620394404 12.957282512882975
Zn 19.345719204203935 17.021080041847764 12.811440027578
Zn 11.060781585255793 18.39109763838661 13.988041234103822
