50
Energy = -35.5595134 eV
Zn 12.374262804606225 12.909054491654794 7.551581226146574
Zn 12.872942473944676 10.537079349328783 6.641166217661892
Zn 13.842611660834498 14.152117391728947 9.535810508784218
Zn 14.503294819060683 11.499538626856891 8.346707548950304
Zn 15.355466204282694 12.454382989844651 10.507902636101617
Zn 10.479044156016485 11.38028930985822 6.504592352707209
Zn 11.675708812770482 8.330960830779311 6.7342956969425245
Zn 11.02476125850727 10.071662463054691 8.732422839476728
Zn 13.925937507114936 8.883523054248052 8.261313982528462
Zn 11.631422374559671 14.994127092597202 8.843884594357853
Zn 14.487958366996493 7.456338107190987 10.334166444429508
Zn 13.993971414000674 13.84097583353359 12.185688855160441
Zn 15.241191478918779 9.935166196709769 10.444634844131574
Zn 14.867528805930645 11.369038587035504 12.693015163557233
Zn 8.730077691197385 9.399277430125615 7.540905427291286
Zn 8.197048807795877 11.861162992183232 7.436268677114032
Zn 9.798710455051728 13.709314807970864 7.815278941429397
Zn 12.49569347078492 9.264057480335284 10.585285726605338
Zn 12.449188006327667 11.836213768839047 10.161397042337077
Zn 9.964126125780743 7.3189495373408855 8.251503188370775
Zn 12.304268505147139 6.966959842198302 9.108062042382143
Zn 9.536710410806887 14.990993388801092 10.242385325750934
Zn 9.77181945075632 11.921614870331775 10.021614797334667
Zn 12.566048104373339 6.859032487488956 11.946508136150898
Zn 12.079994287039478 15.560982547689877 11.262607537698788
Zn 11.140708055945389 13.140341047302297 11.885620686533414
Zn 8.046914181155259 8.156197893682803 9.769341636899869
Zn 14.389667882331748 8.708560947354343 12.655845708446844
Zn 7.587171661126033 13.349478362576635 9.465350015521587
Zn 10.134282752059715 6.742248297758499 10.7180531738669
Zn 11.896559681213567 10.702588758487058 12.578211592200997
Zn 9.742678174450935 15.20749841712187 12.997782065217118
Zn 7.1790248138520605 10.672540075453421 9.360383878542875
Zn 12.162894641866957 14.95168618128848 13.697259386505944
Zn 9.974167905058321 9.50834431789955 11.143951941972984
Zn 7.677480658166907 14.392612185215635 11.847303963930425
Zn 13.109823693520353 12.657332343860407 14.337253764141597
Zn 6.775772557849669 12.053579499069928 11.650651754781691
Zn 13.79867775314667 10.233165707925478 14.644672912134205
Zn 9.366451221084265 11.497376158837664 12.608776972916827
Zn 12.209519622054406 8.359798683346368 14.225419962826864
Zn 6.727715063901258 9.529803591167365 11.496747230509788
Zn 8.232978218009462 7.88473730795918 12.546563822328972
Zn 10.412652950495406 6.978491076063095 13.219939145621224
Zn 10.480992232452243 13.238309994361732 14.63069821407591
Zn 7.801168377516797 13.218538313239524 14.046931729345646
Zn 11.392755429169378 10.799770470237917 15.323211735884913
Zn 7.303400955453072 10.316352639423119 13.813579933287194
Zn 9.623797066342263 9.053409873640192 14.505121468618757
Zn 8.910480259277776 11.39194763910659 15.389850810590664
