54
Energy = -38.29622011 eV
Zn 17.68224998566227 12.671735481405895 9.780712698483626
Zn 17.229854069602776 13.98760669608581 12.098727430129548
Zn 18.272189440216156 11.640207843522898 12.112504440430929
Zn 15.5921353304147 14.232795041619765 9.89492361048911
Zn 16.536290787514957 12.225632852995455 13.984331317667698
Zn 15.20502063850928 14.512093076906808 13.70905295799589
Zn 15.750559257461704 16.06952985351712 11.668495483788153
Zn 17.241407509731957 10.234053858859829 10.232620596525411
Zn 14.825505780749916 12.92278403471704 15.7229176684895
Zn 16.43357422536655 9.893066732203295 12.702282976123904
Zn 13.572508944470579 15.939556050536597 10.124894227244189
Zn 15.224249230053681 12.187183452556011 11.663268185506784
Zn 13.625403140006357 16.629177384595014 12.800836551133955
Zn 15.027278014361702 10.257900099201464 14.876542372232494
Zn 13.490929844359263 15.494017955364196 15.329206985279951
Zn 11.398690014567219 16.17098721809169 11.51304829149205
Zn 12.854537763226837 11.731961233246981 10.446114674656275
Zn 12.76692132636177 13.725643340910754 16.984757571759378
Zn 15.232935072384972 11.78161417464607 8.959967753135212
Zn 13.499125269509205 13.735149664548757 8.553232804245031
Zn 12.43937936779754 13.229738532889831 14.147965153721115
Zn 13.364530321976108 11.06022156393187 12.93667947245095
Zn 11.482736491197565 16.56068859137251 14.06652904695961
Zn 13.374027936307284 13.95169604913628 11.857283427628385
Zn 14.759210119000484 9.740942644950646 10.491713299979999
Zn 13.019821678507135 11.182954766777017 16.28299256554952
Zn 14.303671462626495 8.531387315446377 12.859045018382783
Zn 10.674707014027225 14.78705126146985 15.60214150425869
Zn 13.008095461485851 8.036620602739937 10.580689964896978
Zn 11.975614784436855 9.776679000984762 8.963906564782038
Zn 9.427676465174917 15.33367232980822 13.176013893930858
Zn 12.762512438289631 8.926523481329676 14.994365968243294
Zn 11.397934647344243 12.301472520879985 8.333771003068318
Zn 10.949534028484134 11.186089425054611 13.714234817881023
Zn 10.937731421762043 13.174168330695545 11.888774602519174
Zn 11.283356185668984 14.789910437793774 9.329451825595603
Zn 9.098444799845508 15.59327918115927 10.567735424481079
Zn 10.480400140018855 10.710747699615931 11.178199472634159
Zn 11.619505202452595 8.612613534811924 12.681120507198186
Zn 10.594812422407916 12.401703131107308 16.45405873035608
Zn 9.076170846939322 13.056251464980974 14.32564329146874
Zn 10.872399876534429 9.832257914518614 16.52284804113934
Zn 10.556808572609109 7.920315803874182 10.186345510796444
Zn 9.509530748924059 10.609096640985173 8.637610166739973
Zn 9.863036648572267 8.624261871974172 14.545569057443366
Zn 9.326496071527039 13.058825827371521 9.66558407976765
Zn 6.732339493994197 15.123821143380653 10.017864511156239
Zn 8.141445719785425 13.33562018275647 11.93582828246371
Zn 8.76927915662913 10.794030396133786 15.517629239830002
Zn 8.310094926014498 10.89042149327948 12.963832780091174
Zn 8.966630910492157 8.605019067361201 12.078939138011123
Zn 8.239519542623343 8.66781141367134 9.594805260605469
Zn 7.5619418417323 10.98948016088054 10.476576390892735
Zn 5.82310278135603 12.801202371392044 10.349293154296413
