54
Energy = -38.96818712 eV
Zn 17.40612981390556 12.210473001758864 12.922652699905138
Zn 15.882481914257541 14.509642361483895 13.053923602866035
Zn 14.856179869556007 16.819465526856806 12.579397919811463
Zn 16.924974569810637 13.502801814632965 10.859831281518975
Zn 15.620060146013396 12.244822986970798 14.768469241597451
Zn 13.61512778491334 12.126139429189765 16.463828017611554
Zn 13.853694310852743 14.089993005100837 14.781391029768152
Zn 16.491443636346776 11.002181197831472 10.716954439766466
Zn 16.128142066666726 10.052657264974071 13.369455839105512
Zn 15.079482061240492 15.191690115703947 10.532230019140076
Zn 14.479521204116542 12.347116462870549 12.263028756728446
Zn 14.070339024141507 10.08062728211986 15.079670248376294
Zn 13.03439146052646 14.58545557228844 12.352583548618995
Zn 12.503022081832906 17.608713866753433 13.023923774247534
Zn 11.446214241637579 13.501029911156778 15.984926971849916
Zn 15.445713208252515 8.823310758020844 11.196362034282677
Zn 12.908095128059841 16.61988641111374 10.63217972159498
Zn 14.77685109755515 12.698604248346351 9.600301867079118
Zn 12.39526243889336 12.055520105522916 13.745114171254235
Zn 14.353161918951274 8.10122250707158 13.374360372944137
Zn 11.797089792771363 15.56479513733839 14.51026707190719
Zn 11.42487642556307 10.880732796540368 16.24412582247621
Zn 13.987861432746026 10.061202109367951 9.435585287326687
Zn 12.918138487264539 10.205074390811687 11.867794219437132
Zn 12.943242116462898 14.506231128124279 9.03998871968353
Zn 13.25106001629118 7.563114813598175 11.062372750209544
Zn 10.511463715206625 17.19207462260315 11.54543366580072
Zn 11.643708418784328 8.013665103225781 9.148107880290462
Zn 9.741751078268367 17.013653323405855 13.914484097989387
Zn 12.134989257814054 12.589486976078424 10.95060041196746
Zn 8.588147968670976 15.493699257717132 12.13697848230406
Zn 9.137112812742172 14.780875438398096 14.865652778092475
Zn 9.546731833123973 12.203879603926755 14.861576734362332
Zn 10.792765540907467 8.438064924786463 11.673253324219468
Zn 10.613999819822801 13.726003850411386 12.825992138998282
Zn 12.222282479875938 6.751282528671779 13.342076396490189
Zn 12.748002662212429 11.977079987702579 8.129284264747001
Zn 10.28625996933052 11.087303294772047 12.364649352242045
Zn 10.755791464650915 15.024120631559917 10.3280780656184
Zn 11.786532283643789 9.400841740417237 14.107175567522756
Zn 11.121827700412346 10.545826983986561 9.894224155683952
Zn 7.434513768810358 10.982494993385664 13.855555652814067
Zn 9.28447858883352 9.6055233144328 15.001547536127255
Zn 7.680087868935416 13.295965031815443 13.034499436970453
Zn 9.927135270490364 7.3195354682379685 14.053946372824376
Zn 12.210955647148968 9.605613600725242 7.2608522324885145
Zn 8.910282865593754 13.270954125241913 10.633085507324404
Zn 10.538230573480622 13.167647405667417 8.590272115022298
Zn 7.773812570236629 11.103372555782691 11.305986029589544
Zn 10.433065226775234 11.335776625163133 6.781077845223328
Zn 8.853514051912432 9.01296372703788 10.046550103826615
Zn 8.398427777678773 8.91808944637745 12.646542397538997
Zn 8.718791050680732 11.274938879394375 8.79556857891604
Zn 9.697017477456916 9.048635942200884 7.633225165191846
