5
Energy = -1.05933352 eV
Zn 8.106907801054309 6.8425108544568305 7.132655840223255
Zn 5.470451595679587 6.992760057992398 6.832219198169127
Zn 6.680391131186951 5.060001249257523 8.571822221668954
Zn 6.739822240615842 5.291349625163684 5.34919629280713
Zn 4.832380601920449 7.643381367703565 3.9428976737760246
