5
Energy = -1.21685126 eV
Zn 7.669752965264418 8.16089494134341 7.495705220835722
Zn 8.11293917536129 9.578542574393637 9.697303081642305
Zn 10.051455763724476 8.101273445382153 8.649440121727832
Zn 9.327376772089853 10.573989810181756 7.191064412516199
Zn 7.900043039777079 6.646866512481574 10.028054879495302
