51
Energy = -35.88757161 eV
Zn 7.311420257369436 8.699884415599687 13.952765976881444
Zn 6.039203781844235 10.33141680536579 12.384515906798956
Zn 7.631590845320224 11.147061883089565 14.360362242311544
Zn 8.004864889238053 8.590103974628398 11.545354484698128
Zn 9.533014485020162 8.744176592600322 15.251182804929536
Zn 7.253353755676891 10.50572344971164 9.952244813468386
Zn 9.16214115175558 7.013687775453745 13.460910967316941
Zn 6.515668714532578 12.751005769758097 12.150436862236457
Zn 9.135437330809017 8.757730217303205 9.265029258044606
Zn 8.824598843612455 11.404318348662564 11.924279280562045
Zn 10.214875005333239 7.153827607455753 11.06847279044366
Zn 8.73131503339478 15.362241512783585 9.313436169735951
Zn 8.468213226840515 13.464707110018955 13.835920276124552
Zn 7.8289317684302455 12.951242577271852 9.577227505922293
Zn 10.09804082993284 11.244968654626174 15.32286697941546
Zn 12.040892051833456 9.230509819390525 14.606283911767912
Zn 10.755147824111424 11.135664586162235 10.306082112878068
Zn 10.441834353412267 9.546047673720318 12.511620875259474
Zn 9.140070947357714 11.02774682843736 8.087733951244092
Zn 11.644158595785798 6.854529098198122 13.241743604049462
Zn 7.870116254489734 14.914761782197354 11.757157994349464
Zn 12.928290799336567 7.047205168242155 8.572390901225704
Zn 12.743834746704566 6.319246154498605 10.981758570033948
Zn 11.274639192073108 9.055472053274553 7.998373195762118
Zn 10.94659778636518 12.414241066445642 13.185325975700653
Zn 9.90676267240565 16.45480837927995 11.172571749379221
Zn 14.465353978623064 10.094541053354261 14.106866580714705
Zn 13.84365540117644 7.973577430200128 12.689009180177976
Zn 10.086300572428538 13.517142052044997 10.973469490734391
Zn 11.78109496777855 11.443290970092916 7.3975420482263115
Zn 10.328437824727187 15.100422904329603 13.258948352690652
Zn 13.844509291007638 9.344740516583073 7.736325894904789
Zn 10.2055484494516 13.345373562125129 8.261759365034447
Zn 14.77513385434141 8.00932437659861 10.055729559394905
Zn 12.65570177299328 11.789883971143404 15.098509880009264
Zn 12.142885056969272 8.941363092653663 10.549302186749074
Zn 12.764308758479046 10.808734759476064 12.260112117835671
Zn 13.229079113086103 11.141220286621 9.717127243157499
Zn 11.318795192214932 15.634100131249747 9.199376539298232
Zn 12.551777115603803 13.152017300650522 11.03432764890442
Zn 12.378143324982835 15.91579385614394 11.776672262226901
Zn 15.694575047591762 9.563623963767224 11.86741419709717
Zn 14.55072418266057 11.76057427591567 7.303126824695493
Zn 13.832200914626005 15.572568398116745 9.68966755350709
Zn 12.841644871902687 13.70953705809693 8.219099263614984
Zn 12.720101433253385 14.278336964346828 13.850467977556074
Zn 15.696939959349017 10.377906155118673 9.27950069108013
Zn 14.570269029728841 12.606398000406713 13.59214671901302
Zn 15.52841867438412 12.010943976819421 11.290005946544811
Zn 15.122683058704823 13.361953011744257 9.246501639310011
Zn 14.717215612929524 14.533661584590456 11.79286319069697
