5
Energy = -0.96058817 eV
Zn 10.064221395614396 8.01799532811491 9.591525799529341
Zn 10.884116376156712 10.269240378518127 8.326488020241802
Zn 8.458869982004105 8.903128175546993 7.460657331330266
Zn 12.494527040397092 7.8312660006188874 8.273704350820076
Zn 7.564586734177657 9.048087283503452 10.330389568008423
