53
Energy = -38.28686791 eV
Zn 11.045449645865062 15.504171101180322 9.3202006569901
Zn 10.49603901093087 12.296692118853926 6.407927451812586
Zn 10.259661336236883 9.47830203577754 14.809209848595472
Zn 8.308502854157233 6.419886894131201 9.283678277768006
Zn 7.508826172718247 13.189375343744667 10.314420138757884
Zn 12.719997449123435 8.488827100855977 14.238690039771901
Zn 12.286926293061583 10.8283719009126 15.534945432147541
Zn 10.539366949617422 6.074135884967885 10.740410675978643
Zn 10.014622592776986 11.450095039755897 16.585509093345422
Zn 9.122146492126056 13.430424698499053 15.491580084921013
Zn 10.883480051571508 11.869413886304187 13.450784952181145
Zn 15.01955014315952 13.314778528477158 11.830989434848922
Zn 8.23780466234851 11.152063382427404 14.490236468835546
Zn 7.391313105249763 8.715203678198003 10.477336049925535
Zn 14.823258669506629 10.335741481273491 8.344618971946765
Zn 12.608149075098668 6.710943519848157 9.434743356208196
Zn 8.446766681855104 15.155414378572855 8.80663760478241
Zn 12.08608059543438 10.567106831955162 9.956182783751823
Zn 11.602290710277414 15.946926275937393 11.770585690446808
Zn 12.400481991351374 13.84281986526279 7.860640651641301
Zn 8.338984963151043 10.766702852953845 6.535173882575918
Zn 10.469268836790722 7.254584612322681 13.14200318010193
Zn 8.345928989750101 6.690769492341213 11.767473906977798
Zn 10.478640811390964 7.234711760409061 8.136968452825746
Zn 12.76162712137718 7.108184983549118 11.97627161313267
Zn 13.905896284032616 12.466583785042934 9.502760283160182
Zn 8.628803179659723 9.155497321891112 12.774066768416873
Zn 10.120323170863818 8.801314824034213 10.241480014685898
Zn 10.24432924465255 12.307964532600291 9.059158462403191
Zn 12.980666012656954 14.33976982730514 13.141454426767732
Zn 16.231203729428024 11.471493891846274 13.223706298945459
Zn 9.684976633918247 11.192840592482858 11.240749518260541
Zn 15.527242809469591 10.793010113091816 10.836231808295409
Zn 14.179963232048163 8.594372788305922 10.126410395669081
Zn 11.424270427624558 9.587559722870468 12.259214710035021
Zn 13.21683486862654 11.358918007134596 12.224299683717438
Zn 10.56542093437303 9.91987870481355 7.753011585338674
Zn 11.455476026420433 13.063616137258085 11.171514256971847
Zn 14.610176709657317 10.161008638021249 14.712939604241294
Zn 9.317278162192732 14.860932770636191 11.175635657456796
Zn 12.731692491170165 11.325306441503615 7.281777407606965
Zn 11.765580897926993 13.432766303357708 15.485634057877911
Zn 13.369869484207113 14.793439093264192 10.357155067480498
Zn 14.65730014319936 8.943886572683812 12.553989672991937
Zn 7.863012266947621 10.889886312048112 9.134513574015415
Zn 8.281170058281663 8.553033955837927 7.9347800966366275
Zn 10.128913997902217 14.775142199243685 6.978852661427597
Zn 7.116445272951551 11.081832237128232 11.815342829196721
Zn 10.382533591194274 14.74461404208013 13.658152659152881
Zn 8.458203481762366 13.130308494536417 12.857934599199856
Zn 8.11855732836065 13.088709124645172 7.4542198486482425
Zn 14.113394643066355 12.609117176178605 14.501143534323745
Zn 12.794067779017894 8.72523317338716 7.873021567609444
