52
Energy = -37.3760436 eV
Zn 16.5029503823404 14.025914653770556 12.236806596726728
Zn 13.672754271691076 7.323332338764912 14.888984295723825
Zn 15.251414674299083 14.031519513013103 14.535953815936123
Zn 14.60808275340069 9.530995828502228 13.966720277222748
Zn 14.03857077212024 11.742047512245582 15.30968530873805
Zn 15.596324952793406 11.795203070264712 13.136446901645037
Zn 13.799506702510811 7.62055810754272 12.221722987020827
Zn 11.139204104744962 7.367288783767799 15.455045970544099
Zn 12.69354372857606 9.531765106437787 15.84933840623648
Zn 11.371904707783902 11.699759583528957 15.485530985425033
Zn 15.631596413763749 16.22849834139021 12.874018160307465
Zn 14.764862978986345 9.906836330679099 11.367572307117808
Zn 12.569662660586866 13.896530470649447 14.988151732551621
Zn 13.173498546635065 8.321509675256983 9.780524753743832
Zn 15.166393233940505 12.421618780890872 10.627018025213195
Zn 13.607165841969842 13.908789744482695 12.340588218445152
Zn 15.094120597991012 15.235701793761264 10.464545019780198
Zn 11.966866549374865 9.26081120214966 13.276286217697312
Zn 11.92364799820201 6.226802540167023 13.379252308811234
Zn 13.761544984567255 16.122909188939925 14.51866452116001
Zn 12.897309133748102 11.54692660084884 12.78537731240736
Zn 9.92081126665197 9.528858960676267 15.692609202580362
Zn 12.317261163075308 12.70769154895811 10.300507768906362
Zn 14.298688043107308 13.564954543637311 8.508285172688485
Zn 10.609376639090268 8.22517662468896 9.034932007815335
Zn 11.11618588544482 7.495595290418234 11.36748643073142
Zn 13.056598960480901 16.435299955388103 12.05825598752654
Zn 11.626674031520102 10.270049688109953 10.766781945109297
Zn 9.523919193575116 8.299189938736973 13.331621399646785
Zn 13.809494091628137 10.79371300404378 9.082846357526819
Zn 12.725312488274351 11.765647269436348 6.972166182669347
Zn 10.28489852665914 11.097953555751658 12.964736541727726
Zn 9.800371991944328 12.17724635761603 10.651538077862076
Zn 12.204269790648802 9.31459704954312 7.478563382580006
Zn 11.985422542331213 14.025104550286796 7.577263931727992
Zn 8.599795972197683 11.521809235196852 15.070387468335712
Zn 11.089464975999109 13.544744881329333 12.555913169498748
Zn 12.578915255445166 15.310426210089464 9.776932145331982
Zn 9.84853626510147 13.807481653085988 14.972485039024107
Zn 9.073235695522866 9.294525412406387 10.889325994833527
Zn 9.639473443824503 10.487861970688908 8.44462975633155
Zn 11.221692753152187 16.001811352714874 14.06353014528278
Zn 10.660024634851181 10.541535548446706 5.783019111651419
Zn 10.606887364770346 15.969141428142924 11.318604879247784
Zn 7.189110365763859 11.462773840550996 10.768964080433715
Zn 7.713218933681964 10.245734575519513 12.941737531186737
Zn 9.912750269305104 12.63668128569618 7.009049185895247
Zn 7.948107430025593 12.627700730690758 8.603651849116712
Zn 8.235343751041682 12.89703535783221 12.921212916958654
Zn 10.129620282820667 14.388592564204824 9.188097856366923
Zn 8.331162688366716 14.505644730544091 10.933100824748987
Zn 8.919491172390003 15.411120303021494 13.195075780295427
