50
Energy = -35.128536 eV
Zn 15.940429909251248 8.770254136544022 8.30695274373892
Zn 14.580343792816958 10.993659903216 8.215456958187792
Zn 13.40733426121989 8.436049694003792 7.927588518584143
Zn 16.062075377483783 10.479581170837752 10.257245696235907
Zn 14.787098944295161 7.442296770775453 10.092098320771537
Zn 13.15636621590305 13.132252751319752 8.328735876182092
Zn 10.855059943659278 8.311012287751991 7.758022353316578
Zn 12.001180646438282 10.720356781664753 7.934500030490916
Zn 14.784674774968662 12.759135043015792 10.343691222049912
Zn 13.297902681296405 9.731436875383121 10.376250675220795
Zn 15.612887482469496 8.756615839960121 12.086671612742048
Zn 12.217561845221486 7.214714123174863 10.025775057293536
Zn 11.810747460220478 15.298028038839693 8.213737649270612
Zn 9.393997798877322 10.729325145373803 8.110087529517745
Zn 13.615267818081833 15.018161191373174 10.252630461413752
Zn 13.174045420127381 7.664146764248899 12.429078591156472
Zn 8.362881185493007 8.448985670779352 8.44222026327036
Zn 10.548950798662233 13.00167971823598 8.06122406301325
Zn 14.618253389772795 11.209108502230814 12.388383803144228
Zn 11.951815080565881 11.818630150495949 10.565876824636234
Zn 9.802902094889605 6.837094316494283 9.656867015180827
Zn 9.98591343796977 16.91519336201675 8.772345233551844
Zn 12.082429966177001 17.11129875742197 10.164104404624634
Zn 10.630236436860692 9.564744195328174 10.228765989959017
Zn 13.400670875034777 13.568593964112612 12.571796587351804
Zn 14.351091773344951 9.278734062084778 14.196650390222565
Zn 8.896186945540512 14.731622031521146 9.394261191478627
Zn 11.111645552160164 14.1481988077609 10.801954884707191
Zn 13.100310561654316 11.640464248699383 14.441345374292343
Zn 9.280904693659972 12.244639133009539 10.371380839142486
Zn 12.318142314305433 16.035886212477752 12.428536392655158
Zn 12.027415913605399 10.008159603882508 12.639745560643428
Zn 9.753439144677222 16.423899969649163 11.33466415664214
Zn 10.487805408039735 7.712936866703115 12.246818538342787
Zn 7.67844475986656 10.289779223441556 10.116967165641649
Zn 7.948025676478415 7.861303672217349 11.060434464505743
Zn 10.986586895949017 12.565153348129531 12.918135912470815
Zn 12.26045101882584 9.21801458465807 15.475162433304249
Zn 8.24621255906529 14.316333063573294 11.929859842792897
Zn 9.509330635755417 10.386716722736121 12.385610215451951
Zn 10.363872504045666 14.240055934919097 15.829940053409686
Zn 10.194595919201916 15.084457262239132 13.515781577371635
Zn 12.306395141085657 12.912888789867056 16.433562818130664
Zn 7.169188711389339 12.051441329496951 12.118338750297125
Zn 10.405094274649768 11.116197110737179 15.120426025269223
Zn 10.059365148211118 8.42613998046466 14.766012260180602
Zn 6.494379709679354 9.644088258329587 12.32360078949321
Zn 7.884604483610677 8.020185980838752 13.644102572171228
Zn 8.67045475925538 12.897595310549661 14.171508273433657
Zn 7.8984308504366565 10.45989853393644 14.500952567124887
