51
Energy = -36.74151928 eV
Zn 8.022394043131275 15.126074708076585 9.641363321125143
Zn 7.76086211617316 13.168541814602799 13.725573433529213
Zn 10.440724092391783 7.335083195626404 14.202804262319118
Zn 9.319129263450503 7.444249486995872 10.120728014752183
Zn 10.244810167462862 15.4854905707965 10.9508271698451
Zn 14.065075975678177 13.075152313143331 11.00494608407034
Zn 14.915365292219537 11.020208761824689 12.326107478028344
Zn 9.562857976468324 10.332598798273558 10.005676743267577
Zn 13.9150729692557 12.81288120738691 8.265805826909173
Zn 12.063647669658685 11.162218202744116 11.294840648542
Zn 11.941434925361278 11.481926885550287 15.876869396242329
Zn 10.211841093354144 12.661680861960532 6.583682441200893
Zn 8.227831578448443 8.751439671195703 13.906996360917462
Zn 12.803106566151998 12.185702066491036 5.924030943178825
Zn 13.769292218566532 8.900535180618654 11.560703713245456
Zn 11.394118364708932 6.529381502965404 9.007293755681774
Zn 14.408354473165547 10.830446073491224 9.780298840235371
Zn 10.45373219578798 11.71331395243848 13.181652739346218
Zn 9.97864694026492 12.769891133647633 10.843198771642454
Zn 8.297564450864243 12.710561303407674 8.548054513984038
Zn 11.342021580970762 10.24322838831521 6.6452070032765125
Zn 7.6514634659195 8.751038970638156 8.652469621441924
Zn 12.701716989089752 7.278241345869985 13.188544499060225
Zn 11.89368844793939 9.198921940546636 9.53120438400184
Zn 9.626437930702695 12.661334517244715 15.616682226196245
Zn 13.349646945346322 6.435693196403627 10.773054558820327
Zn 13.77910651322197 6.059772110861816 8.298896539440532
Zn 10.9604270695796 6.084697226862074 11.71146501698091
Zn 11.47691476511611 11.732352989762424 8.817822506369406
Zn 12.640249776573866 8.018643980382572 7.069043886731319
Zn 7.886587892476479 10.976922144617827 14.96432120604374
Zn 7.901295518222906 15.126104827140303 12.138162338829845
Zn 8.744768060907614 10.60174631225084 7.199825697457997
Zn 12.290569008528715 14.406909064816746 9.702557090754338
Zn 12.070280288820186 14.0091365912212 12.312443701997408
Zn 13.894137693222989 10.266740796715261 7.175935985296328
Zn 10.09203494438214 14.662462845038402 8.362266109931381
Zn 7.911101505329645 10.943482093428598 12.270985838881412
Zn 10.502764989509066 9.248943503253274 12.172659317630162
Zn 14.401402687367515 8.389189458069682 9.020940856519374
Zn 9.895304876666474 14.645039930395212 13.553907123662947
Zn 9.995423826353433 8.317433388020198 7.655544248677407
Zn 6.805949543928922 10.822596831594852 9.769691586278004
Zn 10.234661880898619 9.768656282172449 15.146635809602907
Zn 7.314089844130642 8.662000346694134 11.266013178800751
Zn 7.062294064209988 13.043695850485934 10.953186751198844
Zn 11.745274040678689 13.891899851694593 15.04293969423943
Zn 13.437652253073168 12.33854072237136 13.793980873936677
Zn 12.203127316282043 14.274896422488078 7.060747494809821
Zn 8.633259063052522 6.7358532484834654 12.470233379340016
Zn 12.687326054140936 9.833288340130535 13.838018224935453
