55
Energy = -39.4862088 eV
Zn 9.764547294795138 12.422972011936729 10.940679582235507
Zn 18.065879800035077 14.110069447910782 13.032052252662822
Zn 15.371861932863743 10.695664038584884 15.297475176082818
Zn 11.800311747166692 7.5927289730190575 10.615259708721288
Zn 15.573744568407827 13.636466136043808 14.29109084497818
Zn 10.950668683231969 11.637868623801234 17.1865313565947
Zn 12.97406091317118 12.98489341042025 10.71398561176435
Zn 12.793306955883994 15.329149656080855 16.72634873237193
Zn 15.746681180298333 10.077060973505915 12.755495087651322
Zn 11.50728217403235 12.989705861503014 12.830184612322261
Zn 11.198186581599003 11.639285191352961 8.983990742725393
Zn 11.537051898673395 10.829592837405709 14.619424247008347
Zn 8.594076976162881 14.019336329111724 16.219939954652606
Zn 8.997035586509043 13.581550386618314 13.495028349639753
Zn 9.090137326064406 11.699455848821268 15.280347942225905
Zn 13.36423825145569 17.95392792728981 10.283258954631245
Zn 11.088130330386935 16.907661818595212 9.832718013905968
Zn 17.108492057265135 14.967829939057038 10.724685474259386
Zn 11.775134879056996 17.850031807149726 12.301804255864269
Zn 13.519827249749643 9.317221216503421 13.957599105248715
Zn 14.767592354645359 14.487221866045672 11.970205631909867
Zn 13.104378988562859 10.21519975579213 16.582291354590307
Zn 11.24141410386541 8.577692774290348 12.890817657713907
Zn 13.182583643771938 14.647030684470822 14.011601347797699
Zn 17.444724467185203 11.674563120623677 14.01498453690938
Zn 16.58115434084337 12.403947960995442 11.68924140089324
Zn 10.33497454130841 15.987671085068218 16.235853731954965
Zn 13.509356646754513 12.656299149950856 15.596355759007503
Zn 13.997195832921536 12.0850149131384 13.113667122569693
Zn 14.861556035844705 11.692705130391 17.845533267961283
Zn 10.46759429068879 14.10851955176275 17.94891769387164
Zn 11.192589398623763 13.606354213574111 15.233550966774098
Zn 18.989429475499165 13.381236586364738 15.313740159572083
Zn 16.531119270595795 16.20562137987732 13.161213324097474
Zn 15.690388340399068 17.066029454894174 10.584804732500496
Zn 15.107180646995907 14.314349397416944 17.049639741417852
Zn 14.831246793860746 16.314532268375938 15.290731830513662
Zn 14.208493521945686 17.187620812669774 12.883166993536548
Zn 11.217557472333818 14.322227159606204 9.270679907190143
Zn 12.34275157518362 10.783321191590707 11.805542102079617
Zn 12.312528995220564 17.12590861294066 14.794683013522027
Zn 12.77962678440302 9.599988124628698 9.319987456745675
Zn 9.567945133698696 10.733976760380298 12.91675705919672
Zn 16.93469482544374 12.4517331027475 16.506566247258046
Zn 14.828985498347729 10.901080536478785 10.465005964102449
Zn 13.739346626014921 15.479989032021855 9.36905932317397
Zn 12.816205643802189 13.151350020077427 18.266578188598285
Zn 13.631464241554989 11.912698535243868 8.346127682807651
Zn 12.380648407633512 15.324343704856968 11.718396044069301
Zn 17.198334514730934 15.214320034368196 15.600973399333032
Zn 15.356541704307388 13.415700011345752 9.56309919456405
Zn 10.419557321506044 15.82350862033314 13.624654391744073
Zn 10.3192795399271 9.72635767965096 10.592724910668183
Zn 13.981555611188089 8.592283387786386 11.474899374308281
Zn 9.738971135892957 15.016755057839104 11.289672593810897
