51
Energy = -36.55931833 eV
Zn 8.995412679940681 10.399097857417587 15.442084859613457
Zn 8.134754646488325 12.499900084050013 14.048709836153492
Zn 11.491065662253805 10.327158852267312 15.752223014384056
Zn 8.178081888164321 14.392614600982498 12.190385468354114
Zn 8.19709296079399 9.802490105730017 13.059165449973252
Zn 10.25706287978129 12.683498175301267 15.738650342700907
Zn 7.361897698139869 13.670534562713028 9.860153934082046
Zn 13.873029160609292 10.109646512823383 14.707145309914234
Zn 7.427554672809353 11.846437978812071 11.663984299707293
Zn 11.811015496484593 14.73768094042247 15.781849900667632
Zn 9.552006014072944 14.719330875561091 14.348498417127983
Zn 10.181931202589604 8.104332061011688 13.298285700554413
Zn 12.217107519972034 8.040343678230917 14.878015496089427
Zn 10.541934673194996 11.388727421934025 13.200617064159278
Zn 12.79146967521878 12.43846604100685 15.055988201249665
Zn 10.158602652825719 16.06325625402122 12.200205065131378
Zn 10.005067385258865 12.80308611358673 10.906004085900253
Zn 14.524138894377277 7.7342668474634255 13.902607526417365
Zn 7.109149778278092 9.541390963524588 10.69341402983352
Zn 12.32582963709295 9.644033480296391 12.543522762471733
Zn 9.40883620826748 15.216167096933281 9.885679356608797
Zn 11.823960037667128 16.558308675909334 14.013548982436264
Zn 11.584885300038621 13.735700750255102 12.857189124657204
Zn 8.798207017749952 13.48945433374661 7.793941493534097
Zn 8.525215060675205 7.620173291157047 11.449342072545775
Zn 13.749485208360468 14.758805047272594 14.049544553603905
Zn 10.06286388043063 10.130238257320865 10.998934732319807
Zn 12.444258574085652 11.931305542020905 11.237291217483923
Zn 11.97153140637856 15.024479916320388 10.604169660461892
Zn 15.106073162948894 9.797851033370076 12.330145107334555
Zn 14.489492344571165 12.192444124085663 13.15104063353553
Zn 8.184464874992194 11.272434696843117 9.12603378288676
Zn 12.469326679041771 9.656748221939742 10.024310427613798
Zn 11.181671793023709 14.246446358828152 8.214413894196097
Zn 12.446316325491022 6.875238266567004 12.325889704892825
Zn 8.784155708105233 8.592417209541633 8.994543006337366
Zn 10.835195471833444 7.4664022721826155 10.410547902113068
Zn 14.252053916776841 14.22395414050128 11.575353620606055
Zn 11.14302239879803 11.544411630342205 8.953115657305526
Zn 10.418608254779082 12.432994393198673 6.132688946207742
Zn 15.084553845149498 9.176215628030876 9.754747521053071
Zn 15.111021722259553 11.815692683372914 10.621670087653891
Zn 11.18508533112819 8.45584074946065 8.027527940197876
Zn 13.557926490360142 13.526127637425319 9.19412533310035
Zn 14.879775494143601 7.2815422440248 11.475769783532145
Zn 9.496300068192783 10.275582180757716 7.112135897791111
Zn 12.815356351907829 12.806665307532967 6.828010287351938
Zn 12.151952691992593 10.375570289452364 6.542164605883552
Zn 13.27873005701206 7.109401080082705 9.550900350785142
Zn 14.169981189171006 11.136399078708754 8.300342857838055
Zn 13.725618839180983 8.58629109389884 7.490934413999043
