51
Energy = -36.64733788 eV
Zn 15.602250428534644 11.975959011549968 10.173723310385457
Zn 14.054886651059306 14.028337471200796 9.538562641838757
Zn 12.000778565240756 15.672964703271132 9.654777019755722
Zn 13.787657019034022 11.725567487262612 8.43801228763419
Zn 10.17768295058635 16.454403203002993 8.075709224395785
Zn 11.797210449964227 13.41577491563322 8.340482455898545
Zn 15.964603301307536 14.28774434770692 11.378496407730152
Zn 11.619026126228826 10.625345737191255 7.715748056887142
Zn 17.439600266943582 12.326562047081467 12.199015669730075
Zn 13.541395999349382 9.243700496024879 8.91879382124691
Zn 17.077919048442286 13.812106206309005 14.143772478248254
Zn 10.969450312306005 8.516558325735577 9.071067255456144
Zn 12.76695133080231 7.216930496131668 10.254367636540382
Zn 8.685110344869793 14.570476899446978 7.609709452408551
Zn 13.681484047258312 15.609352703247605 11.596326627901357
Zn 16.085265106784945 10.238004683545347 11.945440411369674
Zn 13.188348284097344 10.768039936125465 11.122864774804535
Zn 14.743578533097068 8.326963082002473 11.20973782257589
Zn 12.181545320943338 13.287036827997925 11.47815273089996
Zn 9.749516892300043 12.31801821653645 7.225861526424515
Zn 9.86303731327751 14.219344362663731 10.26744061379655
Zn 14.331022521886288 12.56975519972122 12.661957400659501
Zn 10.744162398821777 11.581661584161548 10.133369908724069
Zn 15.225590587455798 15.363065105117862 13.64384213959459
Zn 15.998043248297432 11.36913317238356 14.31111357082519
Zn 8.07590128073126 12.576983431955497 9.234916513830719
Zn 14.25091113770961 9.509781679342755 13.586018070290809
Zn 9.049111718173418 10.196477429217142 8.502754491164852
Zn 10.499876331707027 6.977580343451123 11.346457067681845
Zn 14.618918994102673 13.397896983743056 15.226175045494687
Zn 9.9496776831404 12.332090145589243 12.534664194813073
Zn 12.109197627207198 11.460855036617847 13.576570040970047
Zn 12.733669935292166 14.742980338254371 13.896403453398616
Zn 11.105169011994226 15.768769630445812 12.12505250449066
Zn 8.665828653101006 15.231174399104994 12.34709477396075
Zn 10.88713896385841 9.75303180684123 11.970979732668372
Zn 13.819844097282848 10.95684430748583 15.732021056366222
Zn 7.358656641646625 13.137441134049647 11.673170383327856
Zn 12.693632915906528 7.588307469612201 12.792632579812274
Zn 8.04837918508612 10.754166603585508 11.085922382125148
Zn 8.732509626952844 8.452914835476209 10.316821658279828
Zn 12.194169678805817 8.851412034008167 14.978859372123136
Zn 10.291885722142256 7.453539126378783 13.822930077813702
Zn 9.635932018757325 12.288214111380455 15.266178482831654
Zn 12.072363804551182 13.182352016565478 15.81810452058929
Zn 10.259567329645881 14.62707609762194 14.39768334557899
Zn 9.673263861324708 9.770727353671461 14.775289810740915
Zn 7.8295899916845535 13.662383623226143 14.134582951406598
Zn 7.674745387230469 11.1526312413469 13.726449507609129
Zn 8.31686723839957 8.79525515133065 12.81011094096869
Zn 11.366190020437145 10.786277669432394 16.381575410425324
