52
Energy = -37.09462987 eV
Zn 9.361465105969872 14.194494441465853 7.91025824052698
Zn 11.714889387594798 13.314168538382711 7.406509386122148
Zn 13.713506258922813 12.18911062327915 6.201046926999677
Zn 9.537320744473185 11.711057212557238 7.306883680765341
Zn 7.98629522739829 12.204811582022586 9.286733859552742
Zn 11.80419699712609 10.577065013388822 6.838454955045339
Zn 14.147254291192667 13.771367898750047 8.167856366742631
Zn 6.908320521234987 13.010003260923154 11.509290398175752
Zn 8.285178519469216 14.76435639866215 10.018936304248186
Zn 15.88648106610741 11.556029067312087 7.4155117419248855
Zn 10.370811590053142 9.780851035760142 8.88123005144049
Zn 10.80983789613377 12.333725374193943 9.767758425194902
Zn 11.745660493051686 14.791523230965222 9.584764050207571
Zn 13.195733985749467 11.478185893760847 9.14493488272126
Zn 14.26399267209895 9.724972200067775 6.695340484716419
Zn 9.377049267046925 11.092538057251128 11.674476093356636
Zn 8.05994052088209 15.093173003345727 12.574794790004548
Zn 8.666421748376536 8.746803207991475 10.377886145528622
Zn 6.750327141097967 10.513140572663344 10.9904341663693
Zn 15.756225058031244 12.431476952697553 9.747563981649511
Zn 12.780245435700163 8.804700028904698 8.666935839390508
Zn 10.099251030265297 16.10031945236244 11.325090929504531
Zn 14.3793965610779 14.677270446393113 10.512359401275459
Zn 6.91817856288493 8.146741484312392 12.12166085985838
Zn 11.133007344067224 7.778383698388932 10.487203026765581
Zn 12.970548847670136 12.71879888128213 11.456837052158807
Zn 7.627388957223206 10.106169718402414 13.491510621224956
Zn 15.281653006624678 9.65387010486767 9.130685135259787
Zn 11.989009722726658 10.378782005485244 11.100543115764287
Zn 10.548515867087419 13.34671693028688 12.179872858898515
Zn 9.10080555922665 6.862524758596612 12.317021203748066
Zn 8.271326511497326 12.730745838831396 13.696948425789152
Zn 14.656438059453965 14.80290078835418 13.184664798546367
Zn 13.910871416909922 8.299821747524735 10.954260733741963
Zn 10.568842477254636 9.108836711718263 12.794254999757962
Zn 10.224491583195022 15.433567537680135 13.901903118404906
Zn 16.015447871656793 13.03519215459003 12.161402186817913
Zn 9.076092654665837 11.010315298409736 15.318867147740066
Zn 12.4112199988137 7.026206025937252 12.662206049413541
Zn 14.881025838398237 10.717245505227908 11.499174922141181
Zn 12.446652210546922 15.491983655287903 12.063243961219953
Zn 11.499166015938261 11.367633162810566 13.570995901587516
Zn 9.272308016345193 8.439203557323808 14.888644030532355
Zn 13.534941934274778 9.40735240654355 13.278280486644196
Zn 10.507945197148432 6.1857468996854195 14.256905299046217
Zn 10.349689440751092 13.204980136149771 15.308157221453643
Zn 11.2219912292455 10.19061187240353 16.168512348896105
Zn 12.491146120122087 14.219977520306582 14.39203168894377
Zn 12.104976366245385 8.013402907201707 15.115471994175143
Zn 14.140312895278187 12.075060594985484 13.820693775147976
Zn 12.721799888462032 12.429628287195552 16.233503781258854
Zn 13.68968813188837 10.163947454576437 15.685201935361285
