51
Energy = -35.57429571 eV
Zn 14.896147229744157 13.203483467394507 8.199044951980879
Zn 12.708048845411893 14.496590339335055 6.981533459098233
Zn 13.374292988938924 12.060792983678693 6.538471408066964
Zn 13.432886775669779 15.028295574351008 9.437659979602536
Zn 15.399913769890237 13.893235297739963 10.688010171751259
Zn 14.316065140976917 10.533544029942721 8.422623485651854
Zn 16.071721340236895 11.584847318316053 9.975544953690655
Zn 10.897710885823802 12.596364113327704 6.759779912809387
Zn 13.034412482590557 8.29574297297222 8.575538886607424
Zn 12.482566818145212 12.520167967914148 9.334280748663247
Zn 13.927340757912908 8.210807205422695 10.967752495466081
Zn 10.713924810826786 14.54366972517059 8.912742713306262
Zn 11.814925719740033 10.037385917629052 6.765962660056089
Zn 15.602633999571582 12.091422603632967 12.569173441214517
Zn 14.909304332101593 13.886364761446078 14.256598209037309
Zn 13.650696166020264 10.898567694456124 11.020473237935844
Zn 14.84338714479479 9.583629035815873 13.027023775416612
Zn 11.615805042820277 15.365045800789938 11.219394129339154
Zn 11.509478683885586 10.150657093367434 9.526622728561733
Zn 9.832841722922195 11.985165742248057 9.027187946101462
Zn 11.494194713199064 7.33968673097522 10.470102876614794
Zn 10.243479475754606 8.355613261580988 8.046598931041084
Zn 9.200123029668053 10.620343729330887 6.925464185929828
Zn 8.087925782119509 13.93933524919406 8.901276594599489
Zn 13.265588428782765 13.57195626296699 12.077307941406637
Zn 7.111435193868799 11.600559267911173 8.438738352834966
Zn 7.816790074833747 9.192355416862384 8.539008936911992
Zn 14.527481465437956 11.45697567078232 14.921976616025734
Zn 12.418929188054092 11.469810711758003 13.379899767331885
Zn 9.189408777040626 10.287002584538936 10.81203124690012
Zn 10.95678366099705 12.338392963038707 11.373851790464903
Zn 9.190660649402119 14.505410186681136 11.225797636587783
Zn 8.94213185477183 7.584910685963869 10.138940826758665
Zn 11.51248572878806 9.550770493109944 11.945466892168826
Zn 13.557495312134401 9.160031865035227 15.37619552326654
Zn 12.82510665715786 7.721401943330542 13.288457665246877
Zn 10.899890377489026 14.267443297759334 13.413973904612767
Zn 7.571555726994705 12.442195477311262 10.998259127472464
Zn 12.67927785122424 13.445852725228661 15.228640061695511
Zn 6.299956153559103 10.120276928451375 10.411765907392232
Zn 9.817226643565963 7.566532199316333 12.604174168445839
Zn 7.338807378159411 8.348459517494414 11.973813725156662
Zn 9.868658036460264 10.973192664816185 13.231031161716954
Zn 12.144558856927507 11.112662100017639 16.221401246486348
Zn 8.432188883952136 13.17227877593096 13.326041042654616
Zn 11.025206287983776 8.935530165675155 14.745620584987217
Zn 6.99375432342369 10.728598458111955 12.867811621361406
Zn 10.16991909837764 12.710833997605011 15.371021105727186
Zn 8.42493423683748 9.044864970584491 14.285768001252599
Zn 9.64444175718061 10.406411705262355 16.270440644509957
Zn 7.604285883305516 11.378578473359955 15.22065310742813
