54
Energy = -36.781094 eV
Zn 13.981951580133265 16.030671400686785 9.05436337069505
Zn 16.561355690650835 12.62266363686533 12.56302868200863
Zn 11.295805580020696 15.537238805473482 8.877679552900256
Zn 16.237577099723335 15.198990205859088 12.896051552558921
Zn 10.414977538689103 9.624766805932635 12.144307786577356
Zn 16.672668658010515 15.983942032333621 15.349915263867079
Zn 11.45615507872656 10.390968216690919 9.791058287424223
Zn 8.164364745585905 13.475172897253286 12.538398770387866
Zn 13.231064854036745 15.480372985826735 12.911697363925896
Zn 9.535718106204309 11.785984157701224 10.867090092008924
Zn 8.576410782079948 11.056932474540764 13.09894840436912
Zn 9.948512831604484 14.377282733570084 16.63720390311237
Zn 14.738069344425105 14.27492026156348 18.218243597841813
Zn 15.198244997860414 13.68354459958152 8.305950190264117
Zn 15.069458527720238 17.386467585635785 13.824286609854783
Zn 9.799626051467682 16.93305117274739 10.368765788131606
Zn 16.725312108289668 12.165736884624469 17.060065594381033
Zn 9.140141095479262 12.629327173424832 14.998061945539845
Zn 14.695005360913383 9.58732147020262 11.870777057823611
Zn 15.749485363002124 13.46357463553702 14.787016680064424
Zn 14.048771444184299 12.445070322614345 16.4340183386361
Zn 12.332477399357739 14.80567323352698 17.285344090982605
Zn 15.68654646354471 9.9919453728311 9.299848275643098
Zn 12.693551111971823 9.313896817947585 13.612715923817337
Zn 13.09212128812291 14.006904309100442 10.797213290050038
Zn 12.370555218021291 13.082081863392363 19.10933074162518
Zn 14.842768274772059 16.993975241559852 11.348422755871328
Zn 12.768296120061539 13.111556790278566 14.328005970578003
Zn 12.484613559910395 8.466493907255604 11.255167528328688
Zn 10.599959047709133 10.53368681223308 14.634877962350595
Zn 9.5273150487323 14.34590559352365 10.431250178974931
Zn 15.142354362947472 12.255404587149252 10.495259300899185
Zn 17.255164827704206 10.310931944246256 13.707247602519487
Zn 12.351624449961237 17.0355489763944 10.795281983262605
Zn 13.491652366139537 8.948971376602453 9.047229869644916
Zn 8.194027281603766 15.942782781538615 12.04950912797834
Zn 17.090922571790298 14.710120429492626 17.465830201407204
Zn 12.688928320586315 10.713682750818595 18.486388947263816
Zn 15.834189676532155 14.765494549663549 10.488126237946855
Zn 10.679491522633747 16.547224814502812 12.754706660546832
Zn 16.788525801501653 9.776526062624482 16.03871560419634
Zn 12.84108837817643 14.067193727974047 7.603371230063982
Zn 12.839404247933663 10.162489683759352 15.926909778501827
Zn 14.079624556279358 15.404289538230046 15.430198404312083
Zn 14.71863031987133 11.034854859619212 14.187107020932816
Zn 11.019026171837695 13.53862127459336 12.54009271804212
Zn 11.1955738196962 12.862868632397694 9.1605801733272
Zn 13.074258280970447 11.77569061436899 12.065965629610227
Zn 17.154039606643526 10.457649855333756 11.262430666295103
Zn 11.196209495268514 12.119436809487743 16.719945811984633
Zn 13.478848473379992 11.63095089798836 8.557392501238327
Zn 14.877799746074095 9.826957837542276 17.594392060555155
Zn 11.54808043572922 15.697648971330358 14.993905230169002
Zn 9.061528732975969 15.19311982743753 14.327320703743046
