55
Energy = -40.22870013 eV
Zn 9.558409482863745 11.541100050975723 15.76656692192913
Zn 15.183465425672859 13.848006946226853 12.021696272797604
Zn 13.897142308955853 10.057092565331207 14.74595724990569
Zn 11.436142756845003 11.744326353765826 9.440105061814506
Zn 15.497532743334641 14.97330918970635 14.849807020022068
Zn 14.213898041202242 14.759656131652097 7.948306930383214
Zn 11.369014413038462 10.56256736834697 13.925426490951038
Zn 8.845487257670936 11.49574741211584 10.40695103324288
Zn 13.00284027890196 13.827983256819984 10.742883055938579
Zn 13.743981891895054 12.047737656228705 17.677271111431878
Zn 11.353709677728707 12.979596193580775 17.439841766049938
Zn 12.998605339069178 14.584064585050843 13.192558210896946
Zn 10.789478693308197 15.500247055706959 11.418500538209564
Zn 8.56855722313088 13.660239113566934 11.854809305154701
Zn 12.620418826251992 15.03515328136013 15.701453621240518
Zn 11.429978458708208 16.942798996315663 13.59353936127093
Zn 13.99689901800756 12.314291519999701 8.82479142695709
Zn 17.70989925856954 12.938151535933631 11.29743100766872
Zn 15.745361825387844 11.415955497240377 10.544827379940855
Zn 13.507840197265457 11.884773031882174 12.651403365674446
Zn 18.69762465965247 12.524397449907271 13.616879325479404
Zn 15.826239115007947 12.140626362096823 13.78548456505006
Zn 13.75339701762951 12.770969459310681 15.135499692752624
Zn 9.904441107428791 13.797635232780305 9.684509491939254
Zn 15.85427661673445 11.2408621711329 16.45432575862529
Zn 12.300031866747723 16.061240536281108 9.301784715143334
Zn 9.423146548655808 14.211559038620447 16.27993727112675
Zn 14.991604720620646 16.054489449961324 10.032149780150963
Zn 13.143552928739513 16.83483495559068 11.677401812528482
Zn 10.78781704067135 15.367603908717616 18.15832929906801
Zn 15.567617908354425 16.456173057107286 12.588956516924242
Zn 13.843391977937337 17.080289076551843 14.483798848529068
Zn 13.307446100981965 14.578454060728177 18.328036736529135
Zn 10.769585829549543 10.034237035670383 11.341342345148817
Zn 17.5538066387393 10.551929046235838 12.493583876071247
Zn 17.45853641086276 13.342136946260457 15.687800936268872
Zn 11.934984841079002 10.683973266556201 16.469873644956365
Zn 18.29210180865399 10.806574915217883 15.41946077246584
Zn 15.584310043705106 13.80822180429297 17.289646287246608
Zn 11.877478802440772 13.848964027845275 8.07678711627541
Zn 17.399885486024054 15.475164891822391 10.818059071319206
Zn 9.594226161450933 15.202760355557952 13.780531639173635
Zn 11.135503886814655 12.720845367026422 12.110735206720664
Zn 8.863418642174782 11.03029100028872 12.993313427827424
Zn 10.559869969338108 16.727694387093024 15.975707295996813
Zn 11.263342985567776 13.198862230431546 14.592518615949102
Zn 8.216793736497657 13.10489466199757 14.291132898065982
Zn 12.48441265883718 17.2080478481079 17.717068437787862
Zn 15.204009241570066 9.534666543368138 12.295749295785553
Zn 13.361730160197316 10.328606487039961 10.42657708829562
Zn 14.709028985975367 16.319783527216583 16.961756504612715
Zn 16.43786754850607 9.442790266762447 14.593798714544311
Zn 12.760435169316075 8.94230741320097 12.542968041940457
Zn 17.530831534891558 14.752008671998762 13.276933169861913
Zn 16.166709910131804 13.731427984708505 9.301555847653042
