50
Energy = -36.10540998 eV
Zn 11.330257922282764 12.444422793717942 17.066263354560995
Zn 11.345164297055506 14.338445200005165 14.892909621589174
Zn 11.951852850229917 9.834445690872714 16.945201644905868
Zn 9.21665832238862 12.907334285211478 15.130624146613115
Zn 9.692243146719061 10.712171181073126 16.348375539102335
Zn 14.150647352595634 10.748223271270465 15.956025842773789
Zn 13.41238892079849 13.182033248472218 15.748360215689953
Zn 9.285611325213985 14.883729016341979 13.508409337440845
Zn 11.559369257256796 15.7350061126073 12.665773766633157
Zn 11.699160215901518 11.470624522528235 14.390124877181877
Zn 10.447037097156189 8.979263064131247 14.62192837830696
Zn 12.913064986941222 13.15569386144351 12.623711280662194
Zn 15.385246980646212 12.42737196174044 14.428070893372439
Zn 8.64363789762402 10.683210542428634 13.881901396480442
Zn 15.841415959646863 9.866884484968068 14.03993118378094
Zn 7.809772241645331 12.93470246147416 12.810522620988603
Zn 13.686614582945477 15.25938733601974 14.14958444295799
Zn 14.366838069748217 8.02066215563803 12.776315705205567
Zn 9.494591533457259 15.491111494408498 11.082968510705502
Zn 9.114785979315885 8.633577802628167 12.345325899138485
Zn 13.046005645973988 8.777732598103247 14.859824815757063
Zn 11.821777781668956 7.553647882414354 12.926599904919394
Zn 15.592140077760119 14.352428950202933 12.774545072222354
Zn 10.413633738047109 12.563233856656788 12.327966342592248
Zn 13.84907247796719 15.789625750506673 11.451942492248454
Zn 11.692034738020586 13.728245995542979 10.383088772046058
Zn 11.688968567625638 16.481659260534833 10.059266979367461
Zn 11.80261271959978 14.006911772663791 7.680867383152976
Zn 8.012959978846167 10.818049079015967 11.350080072205643
Zn 15.971923413724099 11.895599595931465 11.941499812646803
Zn 13.64420796420257 10.702038511452566 12.844272395922744
Zn 11.295653355334343 10.126834485287306 12.069637605431238
Zn 8.395317636005924 13.303767874503357 10.257269734587402
Zn 13.14134075238128 8.365390285874183 10.490065700763912
Zn 10.712566355419357 7.6524694348340825 10.642177079972289
Zn 13.009319277012901 11.484007207962234 10.504452204609427
Zn 10.45874325345842 11.348533039715837 9.981876770741508
Zn 15.134323402804464 13.77834907915013 10.329917247804326
Zn 9.882039294792131 15.358061657495265 8.584716524594164
Zn 13.623327501589204 15.304291053833879 8.887509832947766
Zn 15.38530903430317 9.525239856157814 10.97147022603569
Zn 8.86065293560988 9.023042515534248 9.665420665876708
Zn 7.8113208551364215 11.194518875928498 8.766136338666861
Zn 15.720353298267053 11.467889157041679 9.402488622533825
Zn 9.555151358786638 12.885696859071357 7.836898164556401
Zn 13.983743641352936 12.789052465467602 8.130448099887607
Zn 13.9091146041914 9.90878130377159 8.495684924543205
Zn 11.446420267287225 9.0160504540804 8.597706513055224
Zn 11.842911677301702 11.414446123218303 7.6603797704784
Zn 9.512765433169857 10.238174508275494 7.275531248952212
