5
Energy = -1.09729263 eV
Zn 6.279754065602223 7.510250132884599 7.957866834838833
Zn 10.92231218304798 9.285889196837125 9.793090896678281
Zn 8.482041978169338 10.432632041452793 9.43322870290961
Zn 9.608403388644128 9.138216250269506 7.280571952070253
Zn 8.83357336436492 7.705390060361314 9.614455922791752
