5
Energy = -0.65128454 eV
Zn 11.753970002735233 11.433797571713052 10.392555307564205
Zn 9.37987933490911 7.820254630264379 8.305574498521217
Zn 9.392993687851432 9.958904046603145 10.114230922477269
Zn 9.404597769765347 12.602552230641443 9.168380794808986
Zn 7.70850180778032 5.832566236459548 9.651960858221267
