55
Energy = -39.6077766 eV
Zn 9.510825893314951 9.288637496647672 7.476648396495476
Zn 13.764990634682057 8.277780397228907 10.754686128483176
Zn 11.419844164896315 7.972087844831134 11.636623849576656
Zn 10.691239357571622 11.361509211479834 9.690543569699605
Zn 9.148134298974481 13.543517603808022 8.900682371162096
Zn 11.327883706745155 13.405127206653837 7.493164702434739
Zn 9.488666557511127 11.726467317483085 6.942107976395626
Zn 7.355756920847198 12.131358375568263 13.488997374742885
Zn 13.275546015203604 10.488897785907866 13.299347571576625
Zn 12.343539900876705 13.408933543991164 10.304126277411019
Zn 14.60113041687929 12.421701299364987 11.936336347691642
Zn 13.160899645159612 7.703904531827872 13.658476180478623
Zn 8.089364490189134 11.086261012901192 9.02688829397731
Zn 10.36812313676886 10.259127107574361 16.086228846424447
Zn 8.573504444707678 9.939809303100326 14.18541661571582
Zn 17.331314006290796 12.043627885325847 11.444934524095162
Zn 14.371943164371523 15.088124736620792 12.177007506915427
Zn 15.738589975181373 11.957397305590055 9.467027555926864
Zn 10.101803572743405 12.924714127373692 11.624459714626747
Zn 7.554774204933691 14.623975227399578 12.891415265744367
Zn 9.267507724919119 8.79795647036834 9.947611252515133
Zn 12.58459856807692 15.562662406098672 14.021253950962429
Zn 11.864029434039045 10.711767884354332 7.354047470396222
Zn 16.3061197121895 10.49401988368962 13.398617543376288
Zn 15.099677225112414 14.378688543585522 9.64039095574122
Zn 17.043591908023 14.594830733060657 11.452661786450218
Zn 10.930956470767107 15.53683192307648 9.122561371576522
Zn 12.29123589192768 12.94548408653085 12.928834744265213
Zn 10.116521069193878 12.24218191135466 14.097675343608133
Zn 14.790609312091076 11.246587592243474 15.340821081364977
Zn 15.472328431897537 8.14314856127491 12.69654568411852
Zn 8.190076984622142 10.569703002657631 11.5985778980415
Zn 9.864971820132657 12.649918359412446 16.9547544545315
Zn 8.233897539991224 13.951762731708518 15.267854368705843
Zn 10.837074829451376 10.484338437652818 12.325341973191907
Zn 14.081992381046541 10.010586064667848 8.67360810668525
Zn 7.53455088424389 12.935962086514367 10.89017005365575
Zn 13.645537420893902 12.526809500430044 8.171970124370661
Zn 16.548369837712997 13.172951251746483 13.637440538129892
Zn 8.934345728341247 8.182544233780785 12.433164979841475
Zn 15.146136634024707 8.681666712044196 15.132686557554445
Zn 10.784506434186262 8.517644007965462 14.252711158302924
Zn 12.77854724515123 9.396399228630397 15.719265668989339
Zn 13.425196266263978 16.325069498756502 9.896038167131262
Zn 11.667629672229763 15.700046535225828 11.609511266300148
Zn 9.057786235805063 15.226697328048019 10.872190284443253
Zn 12.342890330047434 12.043855242101726 15.563631879961894
Zn 10.021647265429289 15.01987908855636 13.461868518171817
Zn 13.25914117984813 15.087015394375586 7.81801390452931
Zn 11.223539380503308 14.400420066120683 15.744910904352226
Zn 11.720295274490315 8.814820078281073 9.127493883033138
Zn 15.725458535116868 9.918192169320047 10.86513412899497
Zn 12.893522931656136 10.92958892050137 10.849282547179676
Zn 14.239592035218333 13.654932324124408 14.570959373789444
Zn 7.84023795255048 11.47407347610347 16.059274061204537
