51
Energy = -36.62499756 eV
Zn 15.682593719835259 12.579146306748564 8.873041560474608
Zn 15.48822674574061 11.701642398951657 11.30077802318315
Zn 14.214537353954018 13.916858837697275 10.618255721167941
Zn 15.49716008700896 9.107688152173573 11.584701178291985
Zn 15.51789431730374 10.088295928615688 9.168024895156403
Zn 13.629352111882929 8.542045875692244 9.742969750645122
Zn 13.518754781912339 13.683797424338383 8.088428263520917
Zn 14.50251544778956 13.301926789911013 13.05948703487439
Zn 14.156566745148297 11.236130481734074 7.293066230425787
Zn 12.91471941232456 11.24111467064294 9.821725639711214
Zn 14.86550382005634 10.82767694886195 13.630151538774246
Zn 14.179018598710398 6.965641169551888 11.943034114703693
Zn 14.83893582445919 8.306145541592072 13.994670256336574
Zn 11.734258795773625 14.014131242731203 10.072410441099828
Zn 11.422471975190495 7.7415909119071245 8.679852769295664
Zn 11.27979462943239 14.716018466454015 7.5350428635572735
Zn 12.824217016430158 9.712800137989175 14.874569118656316
Zn 12.69863214941923 9.730607764354282 12.182569930338714
Zn 12.065115673946142 9.853847380639115 7.3774693094974175
Zn 12.979210134056878 12.358588281756965 14.817806119644475
Zn 11.97009821571221 12.357735415376455 6.535904475727219
Zn 11.786604419118788 7.155180377364249 11.094685014086629
Zn 12.03064487418312 12.172401584385895 12.094612430287494
Zn 10.114272663075399 10.926788162920557 5.65206323590263
Zn 12.32517925737061 7.440689129118772 13.775385665924139
Zn 10.699844883645412 9.966707512712953 10.63027677475581
Zn 12.600266984757113 14.91570782559384 12.48555841970258
Zn 10.505922615708576 11.729558502036417 8.839532754592714
Zn 9.332844431207564 13.249264832245323 6.919796828127706
Zn 10.823526099910982 13.654860872567472 14.040352482887469
Zn 9.994225192654948 7.876442550928499 12.620520635055694
Zn 10.531971561848058 8.6089192954961 15.21114508779911
Zn 10.16639723701546 15.11626370515627 11.728351116833618
Zn 9.573739116882077 9.158149506619681 7.713673140205058
Zn 9.231259811989569 7.764263554233555 10.04258781860808
Zn 9.32829120051826 14.738759482824912 9.205861581190721
Zn 10.82345268653806 11.268777184042486 15.531386321267279
Zn 9.553409321692307 12.308935122415265 11.230591910909796
Zn 10.159392047105094 10.549700499755021 13.140191307061466
Zn 7.991593201596939 11.122982392417756 6.982898617284876
Zn 6.852884278146903 11.523703452993477 11.24076990339734
Zn 8.453250176170958 14.506407226706482 13.456421728578908
Zn 7.912458603505148 9.175530551577031 11.807756401263044
Zn 7.776248551857834 12.645261949640307 9.041832830810879
Zn 8.114634674015827 8.393437461210517 14.34101607919717
Zn 7.964436033946596 10.060977154849626 9.442463053611458
Zn 7.618397726005297 14.151999071686884 11.077424245673159
Zn 8.544857114892272 10.17374036764857 15.971564524394099
Zn 8.566691501662712 12.469260874127716 14.939843622399364
Zn 6.457302450802935 13.070127913106054 13.182071254146612
Zn 7.037303581840836 10.667046368864371 13.77790244751963
