54
Energy = -38.75300121 eV
Zn 15.707807684458542 15.918806242139741 12.656199616575552
Zn 14.03582577463163 14.72511932861921 14.241470877370164
Zn 15.933180437973263 13.34335258341046 12.673435397246797
Zn 13.496106815658653 16.94191223310639 13.14069357886655
Zn 14.741763125000501 12.219076599042692 14.741461601740571
Zn 15.452180497540711 10.82628485854063 12.679517187333685
Zn 13.534157205411878 13.669727003811044 16.51161728371011
Zn 12.528037584280922 11.331565800129662 15.96927060634408
Zn 15.942133303044884 14.747550924877023 10.4515464758819
Zn 14.082556793562633 9.731131109463314 14.636157694263506
Zn 14.868283591871451 8.35375188614381 12.585468055062575
Zn 14.255444508838076 16.690283089980635 10.594604675149766
Zn 11.48220945410553 15.554479619571392 13.774751497492812
Zn 15.566179754495735 12.053916553275524 10.432531426294391
Zn 13.292678625251249 13.996962642757932 11.56108907148421
Zn 11.175735656779793 13.978907733774815 15.857023122294468
Zn 12.214689730364277 12.691319388455003 13.523518064977942
Zn 12.91548653776377 11.07196392934698 11.605067765417722
Zn 12.879589120027099 7.532276576851736 13.862601504636556
Zn 10.539264090858598 7.483082608104998 14.839376046270832
Zn 11.769480287218292 16.937822737255004 11.351754350467354
Zn 14.854110618721197 9.504374069746543 10.328209669163249
Zn 12.564420829000168 15.264454198552787 9.240284753438193
Zn 10.074344815527484 11.620658424868736 15.33461250283035
Zn 14.526339241727571 13.648369420827352 8.708922900111997
Zn 11.551682723660258 9.863375429711258 14.026298357079149
Zn 13.751507620326286 11.20054631576724 8.738312556485946
Zn 10.290681654289667 11.57362771515589 12.281204238904298
Zn 8.815036182844109 9.48354263006934 14.329062867129787
Zn 9.581408447209988 13.711319595324438 13.88411315479707
Zn 7.869040657497975 11.821065859453757 14.002158219061686
Zn 12.560355758060938 8.350837978801776 11.32028082582844
Zn 9.800790921699265 15.013009374436631 11.771798157991123
Zn 12.916380557803897 8.723237659300095 8.7901859464042
Zn 11.316089053549137 12.95644443207626 10.256343505167807
Zn 10.042680812027795 8.979342402367681 12.018764466579647
Zn 10.095119012017925 16.340229840369037 9.608337105306394
Zn 10.964540763569802 10.342161167894698 10.000156042734345
Zn 8.398305405951868 6.915653335529263 13.607929658197621
Zn 10.974698304228403 6.399245921896452 12.470415184532886
Zn 7.0427273814325835 8.029251814840293 11.804920116233598
Zn 12.374090869178605 13.032944521371066 7.529124588643056
Zn 11.56199415144444 10.546370132566869 7.370429515621163
Zn 8.016239258369247 13.06052595899128 11.75114088214451
Zn 7.629209817016366 10.463330922800415 11.8301484491117
Zn 8.273175338970072 11.561064227840443 9.610607325570767
Zn 10.966360675272764 6.658791333540376 9.858239400656538
Zn 8.738062455263526 14.113610086559094 9.52133195799835
Zn 10.569231518934371 8.14476055705604 7.895283396200651
Zn 8.716629939133913 8.662322182406882 9.758694273773902
Zn 8.78104568009991 6.303141266834601 11.070793695313847
Zn 10.54962710233573 14.735175077668135 7.768138930897895
Zn 9.731596713542904 12.414629165541841 7.533490689089484
Zn 8.998658694671905 10.066753615947544 7.6454566594803754
