54
Energy = -39.38873523 eV
Zn 15.209687928802895 10.199714883381317 12.275639158804191
Zn 13.397377747647008 11.91853323236135 10.996773487248678
Zn 13.135671993822198 11.77493833490995 16.340094758885954
Zn 7.596237496125938 12.609970197455278 10.466293609346268
Zn 14.646672330916642 14.004761441610148 15.06985960459436
Zn 14.85283450630855 9.777767442762723 14.8539501479558
Zn 11.9122505793405 13.724145804313217 12.508479748419271
Zn 12.152356730371249 9.686520908439142 14.966619134136637
Zn 10.473931197919516 15.553264924463964 13.976241023139846
Zn 16.345218077849683 12.268169428420034 11.039657835510015
Zn 8.265970646089478 10.865921385400451 14.726337889689722
Zn 9.812839926919283 8.871236746475363 13.223851603360172
Zn 9.444652551425953 13.534944649889919 12.162977303854136
Zn 12.305457007333784 13.067796589762647 8.772604357299379
Zn 16.28783795173081 14.818835057231658 10.567203764473817
Zn 8.974420809917781 10.653347016988679 9.276749720798069
Zn 12.16964921378265 10.183787484195594 9.587334928890636
Zn 9.614211114186459 13.128555644758212 8.786308805641436
Zn 13.300959056328859 11.749767649383402 13.636549720691274
Zn 14.97286444815878 13.002592873572711 8.977502505301862
Zn 10.921685594904881 11.2680386431595 7.493204714828489
Zn 10.819094999303472 11.852453667071515 10.907702329231237
Zn 9.233570565583154 13.350242155737286 14.96680168453631
Zn 7.131771000570034 12.684171809700235 13.251555621470485
Zn 13.97463469599393 8.343981780887145 10.807109722570637
Zn 14.46737259404462 13.74079380848184 12.498384580149784
Zn 16.462245616936176 12.461886848659436 13.59602948585696
Zn 13.202312104331462 15.79014095017192 14.074399951715018
Zn 8.488981616666438 10.731621822372293 12.00607766500888
Zn 14.940378823835465 16.40624026998326 12.234344730683802
Zn 7.896809000100061 15.183342397521962 13.728063111581356
Zn 13.523317900045848 14.843642941509685 10.329736803175967
Zn 17.02947463207486 14.997875349714118 13.056937253743563
Zn 11.830192383599744 13.739900156996224 15.286874911416508
Zn 8.273873182685547 15.083822243956334 9.946055953236346
Zn 13.664254181101265 11.186377972580193 7.493508774127793
Zn 10.54610963135976 11.462840609022606 16.287083622743886
Zn 12.045673484771815 16.501799192800682 11.933551189637669
Zn 13.730996528234192 8.019922708869347 13.4357400468835
Zn 10.064038399692599 8.761912848233811 10.668890301569663
Zn 15.136961004770246 10.380916109372606 9.59528639727291
Zn 10.917522134819173 14.844011251483415 10.220410013024003
Zn 9.284265512238296 16.37249637302557 11.8319817725058
Zn 10.670601186492572 11.571909663287691 13.51347244782926
Zn 12.179106865765629 9.849113160934573 12.157322407834872
Zn 13.881101003781017 8.617570859970597 8.160501036794935
Zn 9.722427193144057 9.117813231536276 15.819399414707535
Zn 10.29424322885616 8.751544313160862 7.972434633958818
Zn 11.967521807042253 7.3820732147044055 9.327333473381879
Zn 11.471930277310527 7.250729946863268 14.382217810874453
Zn 11.761272668102622 7.117329370213533 11.886371793996496
Zn 12.24830819971739 9.31018015479396 6.394970567067695
Zn 6.529974012894341 14.712552907792473 11.71754086298062
Zn 15.696329879014746 11.882286395623849 15.934997653198101
