54
Energy = -35.12685928 eV
Zn 17.631619693572016 11.929316165374548 11.333466655388841
Zn 17.456384670780945 11.432644209732176 7.019086169936096
Zn 13.270067768814707 9.175947670139875 10.167384232887585
Zn 7.836809650803938 17.29965894009667 13.960892703500999
Zn 13.209818034221412 14.499017579275307 13.167085915319202
Zn 14.088936986793989 16.361126065440253 14.909742194628876
Zn 10.04074364641313 14.87582511102316 12.16602614328689
Zn 12.46449624690841 18.281700249540034 13.692010140052306
Zn 13.329948934387323 9.77389182828104 7.627190685388108
Zn 13.096574224315551 14.670500728789992 16.611352876799696
Zn 10.29692261795878 12.361131079873186 9.529546187061861
Zn 10.787998650542018 10.859744934955295 15.979988035975044
Zn 14.303315352468715 15.702562793503324 11.057451335676495
Zn 8.827449843980839 12.034005224476152 11.520227761851434
Zn 15.782077291471543 11.334691355047648 15.284420828103995
Zn 9.160944253319169 12.902939852428089 13.808433879963227
Zn 10.480404630522909 10.60855875629281 13.473089563564022
Zn 16.472939278787283 10.421437802084629 12.985541798293967
Zn 8.832437661564976 14.681316086282514 9.940709675091028
Zn 12.73082053757369 11.735392346924662 9.883870250600477
Zn 14.65609346321561 11.889292619543884 8.119717155988468
Zn 11.57455341005812 12.67028708461459 17.696492172828542
Zn 9.185361765166375 10.789759128782938 7.66276011803157
Zn 14.636579266215382 13.385753618083378 10.231131812556841
Zn 14.675373500400385 9.508579378863175 16.806779203656312
Zn 11.652431854603192 16.543438818527765 15.474679553867716
Zn 16.819357672988474 14.41601994711622 11.198213968732558
Zn 15.485948748063132 10.583321056425724 10.411594901674013
Zn 12.04713702642492 16.737642666427643 11.58294159339428
Zn 16.879972693883502 12.752136556661144 9.086951548986255
Zn 14.583896205828783 17.598144589223573 12.647327367544836
Zn 10.286598470896982 17.20112493095842 13.328462255659362
Zn 12.645059120515286 9.184023473848477 12.750910016154108
Zn 8.260315324253533 13.149964095839545 8.020023404827862
Zn 15.514342189669797 10.005211902807625 6.226098336902209
Zn 11.03323382694527 9.36669423682327 8.597408551165621
Zn 13.972274398084792 12.260506761028111 16.82578773589746
Zn 14.235944436502583 12.009995988981805 12.480303141031836
Zn 10.315700713880345 9.370601163273863 18.308293328535957
Zn 12.611944324578845 10.281883402629736 17.935420146706686
Zn 15.916345887762885 15.503024985597062 13.2875519908728
Zn 15.019020548759121 8.567503173971948 11.911592225922345
Zn 14.915521349982594 8.911603176939051 14.392651410844493
Zn 11.685603579307674 13.229550371738945 14.822728534898506
Zn 9.478897114239766 15.189226164505486 14.813048194096057
Zn 12.040926370315987 14.336233834747228 10.334751639415641
Zn 11.629330437716256 12.59681896475256 12.26638386511745
Zn 10.608034028865829 14.948772023689013 17.15460429381288
Zn 13.081536438095284 10.95246815938957 14.62193847504335
Zn 8.429377120348452 10.819874323312881 17.340081557573523
Zn 9.133065317154355 13.060507066414127 16.395558348435603
Zn 10.881212743165847 10.14088811453673 11.055218731499867
Zn 16.712496981830537 12.995493195921755 13.475964964564929
Zn 15.14573289361874 13.95709502109228 15.26687572835658
