52
Energy = -36.57944492 eV
Zn 13.363601492469094 15.204312893078008 14.595492840479798
Zn 11.2143207856962 13.846336599236379 15.093778450034042
Zn 10.771956367000746 15.90070936569964 13.5101078764991
Zn 13.134589702877243 16.532981955912824 12.50823502274844
Zn 8.869675434311448 14.456743045000731 14.315575513125102
Zn 14.676772528988009 14.389711601413198 12.504428894737678
Zn 13.479952435439284 12.561602107261361 14.602892109516073
Zn 9.205814361087354 12.14944308088854 15.300662792400392
Zn 11.763952654396927 11.669000592893575 16.310326965600833
Zn 11.059146844915324 16.306662470250405 11.028330112650238
Zn 11.962699965724758 13.625642428469682 12.373164512259402
Zn 10.914621967459995 11.621694240223507 13.357408524327752
Zn 9.105028126413396 14.678364472511312 11.637901637946799
Zn 13.157266602315214 14.915139042641073 10.405505612954618
Zn 14.416133499328494 9.303616727533726 12.620327528382965
Zn 14.929799513399468 10.337853351300193 10.278211280170297
Zn 14.873865493099563 11.77614202007872 12.636962269877008
Zn 8.099390470372203 12.519920550941006 12.736137876791581
Zn 10.351352538425663 9.810111537516223 15.297934652210733
Zn 11.670701963571169 7.638336299995797 15.04273332556151
Zn 12.990457397160554 9.9615357214784 14.69225701266326
Zn 14.915880356672169 12.977561276662167 10.309039677923645
Zn 10.90119684878108 14.850344961296328 8.979366659290994
Zn 10.366914932047539 12.531983181396667 10.529562414555869
Zn 13.14316425206241 7.146574323769358 12.966428897419355
Zn 13.59259769310279 8.088529634371184 10.451838410709785
Zn 9.139821472471418 8.058804217684036 13.88369073154643
Zn 12.544338503151273 11.286704325160214 11.27212232443775
Zn 7.854229815433649 10.304294789516852 14.09658234642646
Zn 12.632000464572904 12.838214509641064 9.071275985092578
Zn 14.872362564538294 11.694531277483314 8.053721090432555
Zn 13.944584383625193 13.64710064410367 6.529614154872766
Zn 7.646130050593964 13.03321551743847 10.191507240086331
Zn 11.518723145752174 9.217510687683731 12.393207982374651
Zn 11.533586120703255 10.565520416286478 8.994169893929756
Zn 11.366131202543617 13.482185838887144 6.814040511304479
Zn 9.440747221117668 10.40119652639115 11.609213386039075
Zn 9.088960186851372 13.2350867044476 7.998776289704364
Zn 10.830122486377556 6.146853862559173 13.128164434063963
Zn 11.546454128495364 6.315209417607224 10.678359512855502
Zn 7.001094363166367 8.571923368433565 12.376848967639324
Zn 12.801467944540306 11.2885063346933 6.522845732672855
Zn 6.803628878497618 10.801866392207177 11.167390358926083
Zn 13.827566261812798 9.30557978464592 8.049872500224355
Zn 10.433229928676335 8.552747638291434 10.093297602251278
Zn 8.52721504846588 10.931486431984759 8.950640554659751
Zn 8.982825969441443 7.012144211580394 11.535199919369289
Zn 10.200250694093402 11.176695474277025 6.721235364757677
Zn 7.796422270616052 8.60586839111738 9.863968165964181
Zn 11.747737090942111 8.97744819092604 6.437543110881909
Zn 12.03865835208566 7.446584647237676 8.40524153014525
Zn 9.574794110667746 8.860852085613095 7.735037715506233
