51
Energy = -36.21282999 eV
Zn 11.727398801118534 9.965203812546015 8.02348871530334
Zn 10.726367067006153 10.365178277071283 14.963308376662246
Zn 8.655975291987895 6.173061612987963 12.2291426937418
Zn 11.03634472315602 7.163085779005193 11.561539720809135
Zn 6.820139900346791 11.722236596975861 12.59122493020348
Zn 13.270833081185666 10.813732332865511 14.676083333875454
Zn 15.281045440119257 9.84930656237602 10.099798906811385
Zn 8.24258301584582 10.086326827653409 14.08756012212894
Zn 10.572881095739694 10.240179307068559 12.266560855529642
Zn 8.555790781409835 8.775286425139079 11.709708908964478
Zn 6.108060849835391 10.341182479768387 10.2827468365504
Zn 10.004530596981688 12.309411437126773 5.947178512711981
Zn 14.685068318499342 12.790663498700694 13.298061825275713
Zn 7.641759370953428 7.573333981732863 14.25880931262751
Zn 10.850695630736512 14.164236829025876 7.668697140447575
Zn 14.284029213977615 11.23633539301844 8.198157035865496
Zn 12.525604430792063 8.652215448368217 13.301929356427216
Zn 12.295188171862995 12.03668947787906 12.498805495160926
Zn 11.21140348587731 10.084540902084791 5.346293317078894
Zn 10.117428042179135 7.999080580699515 13.921729570088493
Zn 11.626387516018323 12.838703178735122 14.97859519498795
Zn 14.003530205232698 8.520385367488734 8.315843586823318
Zn 12.170855587142487 7.80703624215217 6.429037461146232
Zn 8.710101693396181 13.983166800004213 9.141701367087537
Zn 14.407206175862946 10.180102418712003 12.435418823831563
Zn 11.786279740597227 7.13380706651919 8.990205830826055
Zn 11.064446872035774 15.174574936877706 10.033880982444277
Zn 12.45498180463345 12.250327453861475 6.672536712617904
Zn 14.648843272397865 12.315477340137512 10.701696459329938
Zn 6.148058493508672 6.542286180288972 12.552267524704074
Zn 9.814902808283302 7.869750173025435 7.444159298358951
Zn 6.681234324566234 12.943665373971447 10.303990621076897
Zn 10.092317153581021 11.73064352745104 8.587507135280251
Zn 13.337244699444962 8.138502620288842 10.8518213034131
Zn 9.010713009644384 6.801910761344232 9.718410717601987
Zn 12.389849144114555 10.733543040291336 10.319908526529058
Zn 10.94675409439111 14.50008666563702 12.834743976960628
Zn 12.943997236228233 13.314875443666473 9.032448059375938
Zn 8.651704168806063 11.091237805999071 10.692097877094051
Zn 13.176345278728487 14.372302525210028 11.4789393368438
Zn 7.690267184906899 9.000471619995501 8.531040509609584
Zn 7.529250610691177 11.705910333437537 8.165879431830477
Zn 6.55457711880105 7.7270842408484555 10.375105090194253
Zn 10.607298389633659 12.694587653020871 10.813702485112433
Zn 13.241450812714993 14.630179849237985 14.224004025712798
Zn 13.662416311329835 9.861883352450574 6.015787297819312
Zn 10.247136870796817 9.225487152094423 9.85464975081607
Zn 8.535851359020178 13.99612089554752 11.78642969642567
Zn 6.114769606568103 9.18748406693299 12.662082131574401
Zn 8.891608006897917 10.08748869195188 6.546444868125335
Zn 9.351792623837792 12.404929144150449 13.684138433605932
