6
Energy = -1.47663657 eV
Zn 10.956606308072331 8.193582665406511 7.822887258619674
Zn 10.546841194514649 10.356663662600198 9.411489202123894
Zn 10.223652589469625 7.870439039622194 10.40525724417637
Zn 8.47611160908735 8.832745532804234 8.646442345882187
Zn 6.51166975470334 7.842581858437823 7.0007982544365985
Zn 5.95402898072044 9.573623739317657 9.383181236117242
