6
Energy = -1.41354911 eV
Zn 12.24001180968051 14.885513858415958 11.567830614182727
Zn 11.173481251225358 12.424328596013213 10.894307028159322
Zn 11.633731786089607 10.425907323271254 9.207298624117918
Zn 11.452885736273982 7.715919845426008 13.11557544894919
Zn 10.716531953581006 9.903321883918638 11.628511721165603
Zn 9.130421265908906 11.100721545713066 9.849892931056662
