6
Energy = -0.43125544 eV
Zn 6.880552404374496 7.389850430416792 7.912473984313512
Zn 8.43723341273265 6.4713505166047005 6.153792675398398
Zn -2.964041161439423 2.226842045933456 2.2500210426015106
Zn 5.647881841517327 7.580226948029043 4.9987839258368565
Zn 7.002612262266624 4.6060549075409805 4.850304897680062
Zn 12.419225229289788 9.15916002284436 11.26818065359544
