6
Energy = -1.41062262 eV
Zn 11.677115058827848 13.543699039873237 10.705920193927534
Zn 10.457736013412584 11.01361120922498 10.516875634662798
Zn 10.835715527747322 8.62335648320543 9.541515148303207
Zn 8.452601833190268 9.312944020284647 10.286023850751217
Zn 10.429406191433818 8.880469920571974 12.439950787360242
Zn 9.567840571571383 10.663696068534204 7.826105212618295
