6
Energy = -1.29587513 eV
Zn 3.8828706302242937 7.275909122988937 6.908986799523987
Zn 5.020388289521162 3.3403644747970884 5.9939648141515205
Zn 7.054472130562802 7.796729323242081 7.661509259372823
Zn 6.390245397796635 5.46366185796625 6.895737702767266
Zn 8.762546271062643 6.500683805271503 5.84691175786031
Zn 6.2450483437827415 7.564564804787571 4.97546172073664
