6
Energy = -1.41887965 eV
Zn 9.121753614176217 8.925075990784336 11.11304609304284
Zn 10.590841551016153 9.823987115937186 8.903496750300222
Zn 7.858467970659646 9.597809411647066 8.36187491691108
Zn 5.967707400131929 7.504030718343392 7.831606879349808
Zn 8.417260552775693 7.94857601242521 6.241280122732425
Zn 9.234919354395789 7.385918151656993 8.749244354126997
