6
Energy = -1.43035863 eV
Zn 9.97398671836859 7.395668745677576 7.336987580461964
Zn 9.662778326807967 9.269106918700604 9.233877561736522
Zn 9.700591960311135 6.624137291310184 9.968185883992163
Zn 7.396144957474997 7.856852546275813 8.945653607793176
Zn 7.801060161073425 9.353262057536268 6.500019802272411
Zn 5.45352079816647 9.564956420505041 8.084390901713354
