6
Energy = -1.37090742 eV
Zn 10.820894423058977 8.481161204274628 10.362810105185936
Zn 14.59584629277608 15.169351405191117 11.070337792397153
Zn 12.61318413906339 13.054924619526066 11.369085624394387
Zn 9.431395763702206 9.06586525152119 12.5846978801877
Zn 10.948477981163656 10.944983062289642 11.407683309037873
Zn 8.700453280963321 10.11397734679825 10.234057943999709
