6
Energy = -1.32502705 eV
Zn 8.803807 11.109971774713854 8.50437275587893
Zn 10.981736041507746 9.518580668382004 8.507817793044651
Zn 10.165608562699058 6.938400596415315 8.510537722246966
Zn 8.803807 8.798907695691382 10.281758213537714
Zn 7.442005437300946 6.938400596415315 8.510537722246966
Zn 6.625877958492259 9.518580668382004 8.507817793044651
