7
Energy = -1.66830269 eV
Zn 9.024182747851821 10.089643283507034 9.000137821790009
Zn 10.046872062714616 8.366707548278018 11.058832493195213
Zn 6.561228137095556 10.441171929068343 7.654410013630324
Zn 7.95543833372235 7.790908956204135 8.307013606409113
Zn 8.797001291035448 9.4709906230847 6.305954044515362
Zn 6.412337452855933 5.477081818110291 8.985113943812651
Zn 10.813532177899642 8.006859711366799 8.362762387408278
