7
Energy = -2.03184325 eV
Zn 6.264437016320224 8.32736666062746 7.710639030340346
Zn 7.65223302964918 10.287854196770018 6.567335790868982
Zn 8.06926727300806 6.231995242474059 8.402692464525979
Zn 10.547528793677788 6.87439685604281 7.675761471601384
Zn 6.87481528360442 10.483262797416934 9.14850849818703
Zn 9.110448900239673 9.041516303703158 8.528367516205524
Zn 9.780906181416727 7.053244420881382 10.26633177243873
