7
Energy = -0.66311282 eV
Zn 9.265359 9.265359 9.265359
Zn 9.265359 9.265359 6.609001332689374
Zn 9.265359 11.584021129781084 10.611249548682263
Zn 9.265359 9.265359 11.921716667310626
Zn 9.265359 6.946696870218914 7.919468451317738
Zn 9.265359 6.946696870218914 10.611249548682263
Zn 9.265359 11.584021129781084 7.919468451317738
