7
Energy = -2.04865162 eV
Zn 10.077751108043751 7.893229022100365 10.891807271600683
Zn 8.6945013 10.295827591227896 10.89166826477737
Zn 7.311251491956251 7.893229022100365 10.891807271600683
Zn 7.311251491956251 9.495773577899639 6.49719532839932
Zn 8.6945013 8.6945013 8.6945013
Zn 10.077751108043751 9.495773577899639 6.49719532839932
Zn 8.6945013 7.093175008772108 6.497334335222632
