7
Energy = -1.98842292 eV
Zn 9.046701043684086 5.858453670750772 7.565961290324827
Zn 10.389945502638964 7.8890959379429235 8.608264439096057
Zn 10.992222812595195 10.067140476555553 10.01487620388203
Zn 8.915833902659102 10.401046202906075 8.17336941362432
Zn 8.372878963353573 9.061546715755744 10.271299678782885
Zn 7.319193688047092 7.869194826469807 7.836119017265827
Zn 6.222436136721509 10.113871126552196 8.788332517313759
