7
Energy = -33.28897243 eV
Zn 10.28282300288366 8.854973866960666 8.783474767466803
Zn 9.690622975902269 8.632205773854816 11.081545900652163
Zn 7.5234186322738275 9.573979969827008 10.605318052587887
Zn 9.785192439210547 9.02159931514326 6.456175611655033
Zn 8.05562962965292 9.92999691831807 8.23169839697841
Zn 8.17336376968824 7.534760265391928 9.229682733216134
Zn 7.720806818182684 7.8281741316501705 6.82744165885145
