7
Energy = -1.92735125 eV
Zn 8.306368618459553 7.90309125932718 6.146579406649539
Zn 9.037339053015717 10.325594064067843 7.089827995276711
Zn 7.283402664393908 8.648577184818786 8.61620166238251
Zn 10.217079094859265 11.247009150176407 9.292344922506567
Zn 9.517784770712584 8.925969246723689 10.341612586616192
Zn 9.093319830716032 6.8208902532369 8.644273792242728
Zn 7.58026702578142 7.165484842059562 10.90953792188874
