7
Energy = -1.30035632 eV
Zn 5.967190503319883 6.65780894211562 9.119298
Zn 8.751366587632095 6.998535946131424 9.119298
Zn 11.491322709086516 7.1614889533175985 9.119298
Zn 7.056931558669054 9.28860813280429 9.119298
Zn 10.457948292143204 9.683794016345175 9.119298
Zn 8.562638074486497 11.62640758174879 9.119298
Zn 11.547688216168483 12.41844236904296 9.119298
