7
Energy = -1.95514061 eV
Zn 6.532911608748189 10.016173325503761 10.622475695463262
Zn 8.965694800250372 9.233021048135644 9.974828867799841
Zn 11.097605715454874 9.463461369177391 8.421305311786904
Zn 10.603974205975332 7.194986888015908 9.726344375558226
Zn 6.581961060548836 8.908773245773414 8.16772361825803
Zn 9.280502461631293 7.785036775499621 7.505246740676215
Zn 7.219373796668057 7.677698333608796 5.858758527071148
