7
Energy = -1.6392544 eV
Zn 10.821149718353114 11.740208019973338 13.237005871785897
Zn 12.110032442027055 12.815615825050928 11.07660949136699
Zn 10.489556637404034 9.08733812234419 8.525045275323317
Zn 10.61340029373899 10.3412193079897 10.937410108725436
Zn 10.590374705479169 11.859046460647424 8.633882866413305
Zn 12.771837695801159 10.52266781488572 9.206287909026024
Zn 9.768785184411797 10.826215020306584 15.684921143584322
