7
Energy = -1.91442034 eV
Zn 10.485749665237428 13.21896691945514 10.560670159544973
Zn 11.295782287927377 10.917627519258222 11.768918492354054
Zn 9.565903331821321 11.103348131393311 9.349246125288214
Zn 8.429642371580886 9.40685986636115 7.701684395830497
Zn 11.107779938550602 8.220506954737012 11.760113365898272
Zn 8.682152338460178 8.694561149792074 10.379266630198284
Zn 10.837025786476476 8.686996160742897 8.98951481758819
