7
Energy = -1.66696488 eV
Zn 11.71382905548445 11.474297909634519 12.082701930502518
Zn 13.175318879386653 10.806150523926066 9.126932342455333
Zn 11.072823048419368 9.275657605543033 10.377789610952973
Zn 10.38086357261193 11.64291087440544 9.60707629923084
Zn 11.20982839328408 9.727965591083207 7.496532111770154
Zn 9.108029223178555 10.703122595191239 11.922531118306066
Zn 6.782250907997319 9.255209743487528 12.56548752192476
