7
Energy = -1.69761062 eV
Zn 8.254661048491299 12.516760745024493 7.420708373559012
Zn 8.984334540759063 8.885841056633918 10.325298231456431
Zn 10.283416620465278 10.636862220973667 8.23802071456336
Zn 7.689471453712584 9.681695651579497 7.893143150584342
Zn 9.797059359277576 6.063116982666472 10.771755124957656
Zn 9.789800229694746 7.628652445578609 8.204718356200598
Zn 7.431077013291214 6.816891163235378 9.376176314370221
