8
Energy = -1.56507145 eV
Zn 8.36386577618316 8.896464553789185 10.034591512638869
Zn 11.156702055227873 8.405882466778614 10.09196930421685
Zn 13.88705604566322 9.294852998683956 10.016944647637844
Zn 8.91637024213388 11.667453588002363 9.983113759198758
Zn 11.70881170999235 11.176196431298443 10.040725663494591
Zn 10.758624804765166 13.889941505446394 10.055500067903235
Zn 6.196004095141309 10.774028425416812 9.809354573521386
Zn 9.309609212399371 6.192224030584229 10.264844529882572
