8
Energy = -1.95709237 eV
Zn 9.172037207569465 9.172037207569465 9.172037207569465
Zn 7.112720792430649 7.112720792430649 9.172037207569465
Zn 9.172037207569465 7.112720792430649 7.112720792430649
Zn 7.112720792430649 9.172037207569465 7.112720792430649
Zn 9.879281788482805 6.4054762115171915 9.879281788482805
Zn 9.879281788482805 9.879281788482805 6.4054762115171915
Zn 6.4054762115171915 9.879281788482805 9.879281788482805
Zn 6.4054762115171915 6.4054762115171915 6.4054762115171915
