8
Energy = -2.57495029 eV
Zn 10.25301922565587 9.557958543432303 6.638951096693552
Zn 12.081617060164639 9.47086202199431 8.639652842097394
Zn 10.006874868230152 7.819819792767183 8.626033766691618
Zn 9.671995762021261 10.63245279925313 8.999729026249163
Zn 8.821793112198709 6.3071614471215325 10.454799293816167
Zn 8.101155280145651 8.841934774647978 10.71863426544967
Zn 7.021733452059327 10.880986981031999 9.36762955319656
Zn 8.774161934628214 11.3090370351747 11.403063231605683
