8
Energy = -2.38374395 eV
Zn 8.207677701928336 10.362885842365928 8.319323352418056
Zn 7.804638666387696 6.753711182206323 10.115280452207632
Zn 9.93421776692379 9.56691619085349 6.246913858539368
Zn 9.368891814647917 5.247940130552757 8.289153997469539
Zn 7.090571404151079 9.397630515339232 6.119693625333579
Zn 5.888432585814566 8.659369309048671 8.8931498971461
Zn 8.681954163338927 7.718413777340105 7.670496777994229
Zn 6.605926631499186 5.87544378698498 7.928298773582651
