8
Energy = -2.37737733 eV
Zn 9.974535798634568 5.912117053646473 8.765810505083888
Zn 10.761838864952853 8.435521836461968 8.730741103542345
Zn 8.86023119346721 7.447963258707259 6.922952897320211
Zn 8.394118100404086 7.689330322941492 9.809728837989592
Zn 8.536879252911481 10.385211846595727 7.893842246758297
Zn 6.559791214859265 8.919124351592306 6.701943348971973
Zn 9.216469772701684 10.299505396018176 10.533008048322376
Zn 6.540461008763627 9.746976031157498 9.47929232420615
