8
Energy = -2.35820994 eV
Zn 8.635083 10.649237049665688 9.317378338705947
Zn 6.620928950334314 8.635083 7.952787661294054
Zn 8.635083 9.939807308506571 6.599915299815086
Zn 8.635083 7.330358691493427 6.599915299815086
Zn 10.649237049665688 8.635083 7.952787661294054
Zn 8.635083 6.620928950334314 9.317378338705947
Zn 7.330358691493427 8.635083 10.670250700184912
Zn 9.939807308506571 8.635083 10.670250700184912
