9
Energy = -3.13489763 eV
Zn 12.143312542980492 9.185243466817482 9.425595515804948
Zn 10.21972273407267 9.050441582546155 11.42796794873709
Zn 9.885441334103598 10.485896416176343 9.190516933242922
Zn 10.10389882100195 7.569656438795156 9.159293299843476
Zn 8.223920275970903 6.404454726126086 7.791620487823
Zn 7.5414116163776095 7.660418511168717 10.113044921558183
Zn 7.798512063698952 8.977798494652868 7.7081265823691725
Zn 8.49754174534343 11.464217688022107 7.2232541146018585
Zn 7.255756179356308 10.881644424236372 9.611692428178884
