9
Energy = -3.4273004 eV
Zn 9.039800147473573 8.52331610298527 11.283584212619521
Zn 7.524634514233534 10.135692187193904 9.801562349335827
Zn 7.357307339915879 7.356420811244166 9.573089873669524
Zn 10.322382246060014 10.01863854884086 9.486994902410487
Zn 10.00180407441619 8.816677578596956 7.008079631298435
Zn 8.720472081983504 11.059113673053377 7.603942594637624
Zn 8.496678152989281 6.65799116990765 7.272802642717997
Zn 10.186077110881417 7.228294121570374 9.26673838144541
Zn 7.120422065165633 8.940865208933463 7.329763897081779
