9
Energy = -2.77153337 eV
Zn 10.812943773674972 10.436098638790972 9.419171010166906
Zn 10.769498934637955 7.966832750715158 8.616057827208794
Zn 9.60574578290615 8.733973815516109 11.090442515626048
Zn 9.98827178409326 10.112899814325878 7.232353681109195
Zn 8.683914608945658 6.74008261818703 9.642015282737043
Zn 7.438084726570381 10.380776130810204 7.834175546139211
Zn 7.342009967563406 9.820503893824839 10.461001205517883
Zn 8.641640661636146 7.8001486122880745 7.0044371213976495
Zn 6.704787818875683 8.03388808336911 8.732216084611364
