9
Energy = -3.15913177 eV
Zn 9.861499358404094 6.447841017498393 9.53251821919026
Zn 7.600778448643139 7.808746370896989 10.762347627986061
Zn 9.88383689746564 7.0088238137296575 6.730635229093906
Zn 7.66025038988898 7.188003241368048 8.08686972453755
Zn 10.385960419356506 8.869882729574604 8.612430318330853
Zn 5.628777440745601 8.565525478291468 8.957664740972742
Zn 7.720228872286231 10.064141978802455 9.303056876142673
Zn 8.581345125273316 9.754265127095733 6.695194340618314
Zn 9.770576654794468 11.386033560744204 8.412595729997237
