9
Energy = -2.56430304 eV
Zn 13.376789443957986 13.377522188672804 8.764544346271942
Zn 11.563622277722388 11.190595757117128 8.68700738487514
Zn 9.877208380205305 8.997870156775628 8.527159225303956
Zn 9.389364706655979 9.876246495330815 13.042684437213499
Zn 11.738586690204858 9.860420423987875 11.03469254469574
Zn 12.026875773514464 12.504055790971139 10.979122517283878
Zn 9.573765807159344 11.57228252234034 10.478426709291165
Zn 7.852568922411451 9.383977158894789 10.858431848088626
Zn 9.874173832079915 7.811408639238384 11.344579376346147
