9
Energy = -44.81710338 eV
Zn 8.265057670778125 6.941984866652378 9.3165375
Zn 9.525144607163726 8.458263958847398 10.944952007155113
Zn 7.891093113598656 9.526986562782326 9.3165375
Zn 10.75130127578508 6.934472564952657 9.3165375
Zn 9.525144607163726 8.458263958847398 7.688122992844889
Zn 9.526381854233527 11.007774379395778 8.031707714660286
Zn 11.181705069974331 9.444729408804726 9.3165375
Zn 9.526381854233527 11.007774379395778 10.601367285339716
Zn 7.6566273911076665 12.068587364360052 9.3165375
