9
Energy = -3.11102199 eV
Zn 7.871545116931677 10.02645495785717 9.749224158593135
Zn 7.389594625104999 7.714262123631604 10.918820502509426
Zn 9.441386771986576 8.87287373394554 7.0746765933489835
Zn 8.179991089169532 6.873775128433285 8.534091748408677
Zn 10.390444048339846 10.663846883940172 9.202075713938362
Zn 6.022320143524274 8.410106062987971 8.680935700503477
Zn 10.489203273325188 7.932911448355948 9.569039361863554
Zn 8.416300734332529 11.242784182843396 7.4690017672404325
Zn 10.54158832214614 6.508409672654133 7.397884903612044
