9
Energy = -3.38945663 eV
Zn 8.763999189415753 8.547436475863323 8.200215269176827
Zn 10.357272991101366 10.645934745807663 7.632358501058342
Zn 8.013244209671594 11.062609943066988 8.798324344038791
Zn 11.457125636470007 8.632427908158634 9.051434803246613
Zn 11.578030193531927 11.178020034635818 9.927744166015025
Zn 9.604841285077379 7.232047479981441 10.359261619838707
Zn 7.910498055998535 9.26393853111866 10.796486453557023
Zn 9.230430015950304 11.600039216582816 11.096173287437257
Zn 10.594162441843302 9.347149683844584 11.647605574691571
