9
Energy = -3.22118851 eV
Zn 8.873770725065086 8.148025555546818 11.481592673892699
Zn 11.261871987379221 8.15560430971212 10.427134567891992
Zn 10.158173087005299 10.536064276039259 11.1236055397753
Zn 9.150783814663829 7.416361037867401 8.921159467420603
Zn 10.875761433800898 10.099405848155634 8.524132110896112
Zn 7.454604631929566 10.268030280268455 10.500175261838809
Zn 10.047385392871778 8.516592804877423 6.716627959541233
Zn 8.918469932162717 11.90089790434056 9.081354933362922
Zn 7.973381279726781 9.676298941850085 7.912844199842254
