9
Energy = -3.23501683 eV
Zn 11.248575258595961 8.480041305568902 10.09356896481771
Zn 8.622911056592923 7.765947726035692 9.510862176757616
Zn 10.446857446473578 8.260156714434146 7.521513606735237
Zn 11.402783931437025 10.556713393640218 8.369313584305784
Zn 7.758454947301194 10.330135160164522 10.341080259068972
Zn 6.724397667715356 8.95222228642599 8.271620715973091
Zn 8.824271420149307 10.427324594622858 7.7962521483821945
Zn 9.31181452133955 8.875649184393207 11.935270753274853
Zn 10.328062401777801 11.035114344640006 10.847773176062722
