14
Energy = -65.79647484 eV
Sc 13.89479484747104 12.788556105874022 11.930545766427727
Sc 11.13674810549528 14.053314858674486 11.6056714689271
Sc 11.653906522846224 12.09836305299622 13.872255654038733
Sc 14.888931561331797 10.782159846540287 9.95219872436575
Sc 9.853843415667516 11.294533398166685 11.615956137120627
Sc 12.157678085253929 12.009708774636616 9.612178428315326
Sc 12.718567512964325 9.994757436925177 11.94279454191248
Sc 9.368664036814277 13.213624442366534 9.064207590824939
Sc 10.180186397920252 9.276368781677471 13.763703306699819
Sc 9.503660751203906 10.136863619386466 8.931097756339252
Sc 10.519425360796795 8.225545498020745 11.019536201160916
Sc 12.517243909852942 9.197252011784931 8.964943609927747
Sc 7.775095418714002 9.110221787148394 11.469861928568644
Sc 7.202855935752835 11.679018765388541 10.140669788609436
