15
Energy = -71.9191556 eV
Sc 9.700796702397145 10.383009731461394 7.178659700206138
Sc 12.651709596083522 10.213929376053072 6.752596771335501
Sc 11.493268774038892 12.4324911046735 8.509307957958276
Sc 8.134299637373164 8.446434713645855 8.84054238867964
Sc 11.267188928859138 8.162315170447188 8.565649591794871
Sc 7.548445987711437 11.409872812654127 9.127677319194722
Sc 13.18134005204604 10.250751499651725 9.67815331471782
Sc 10.1645258900012 10.41122576984789 10.241473481445555
Sc 9.302199891378766 13.241213635707844 10.646034161606886
Sc 9.721979110013132 7.452814372451001 11.221996178914132
Sc 12.041281594275908 12.350966567522041 11.569788684015446
Sc 7.580131986770367 9.570912003811536 11.649133359572728
Sc 11.803050740469162 9.312977382391367 12.441355596299939
Sc 9.60795380874899 11.330339427756925 13.064880470732925
Sc 9.262924817544816 8.491843949636825 13.97384854123708
