14
Energy = -65.86078066 eV
Sc 13.299365935441347 11.856098720232977 13.252717621355025
Sc 10.604810066609419 10.580712964886079 13.331461798944499
Sc 12.47280106299612 9.423946114023003 11.294020534001612
Sc 10.774377344719658 13.340995091571703 14.037538653405456
Sc 14.041095528503115 11.601471945812275 10.119182848997827
Sc 13.823299100811786 8.924929285688016 8.737675142741335
Sc 11.038285121034692 7.786233871583041 9.030137753786022
Sc 9.290491577558061 9.467020456946672 10.889731954922901
Sc 8.483626019332458 9.49836210775874 8.065074898494457
Sc 11.457315892299288 10.657376133119538 8.606964123632311
Sc 11.34563537027914 12.569761934887353 11.18295638939391
Sc 8.3376368866206 12.207560185591083 12.33417105291748
Sc 8.96574512258339 12.095367089550669 9.442108263773681
Sc 6.614035470183218 10.647685922940742 10.161132833849008
