18
Energy = -86.07531792 eV
Sc 16.13630509467129 9.756331126791201 9.052429293682483
Sc 9.777044895245787 12.039664725187517 13.743531415042455
Sc 10.760712191728125 12.011347020022018 10.899484877689222
Sc 10.88655596692949 14.634933667798744 12.65852981973864
Sc 13.444541970734607 13.095847248630882 11.65612491557406
Sc 18.00736374463697 11.72839486993186 10.347819633638444
Sc 15.35016663653437 12.51150928617842 9.386904307615303
Sc 15.092400171206982 12.765610571138165 14.236808091699753
Sc 11.799006872336111 16.37937207646626 15.172931785142291
Sc 16.44363423361745 13.892003982510895 11.855671148907449
Sc 11.527778945665867 14.807634278153357 17.634899964951988
Sc 14.053162117420156 15.444226929978694 13.334357889879419
Sc 12.493451902997514 10.745564676707527 13.039998237318969
Sc 12.227868415722076 13.395321021567074 14.97933525832524
Sc 14.253015260173939 15.168822426008047 16.34728056462148
Sc 9.443998483456118 14.621596648928723 15.391073937415456
Sc 15.595656081309977 10.866314074676596 11.783372444128311
Sc 13.22844219565605 10.372375019709173 9.97328982584365
