12
Energy = -55.09995863 eV
Sc 13.52757373206325 12.784844129935742 10.908456983024804
Sc 13.42694823551552 9.846209128094367 10.360582871495987
Sc 10.981159588594423 11.475323280364696 9.861307725385657
Sc 11.423993471301765 14.480202810675575 9.45031664649397
Sc 9.419155451891172 13.458082015992714 11.446884303861129
Sc 10.087037455153215 10.828754664337762 12.706239383026977
Sc 10.739764512639407 8.551774914149235 10.753209524159185
Sc 15.158313627601895 10.821335851667556 12.614648211997178
Sc 11.764721237271695 14.663728039901313 12.427133300481907
Sc 9.904544983269746 13.375797518199626 14.409004357716974
Sc 12.61557721554284 9.256798770238433 12.99043131484027
Sc 12.632913696435864 12.138852083723904 13.753488584796255
