15
Energy = -72.28743664 eV
Sc 8.48510487629164 12.190538995227337 8.338439250213485
Sc 10.275312175005984 13.5431617785098 10.340996784265357
Sc 11.507178164746419 12.063476752137053 8.159910589281903
Sc 13.293019190544662 12.22405634478169 10.523096410269853
Sc 9.775103621450697 9.777552456620409 7.0512969571110595
Sc 8.060358057337089 11.39099881544535 11.625740389878928
Sc 7.333423467811525 9.352060295585117 8.834051739671219
Sc 9.856144158870212 10.098438603973957 9.973069933826984
Sc 9.666409561550097 7.393787238781929 8.87825081692333
Sc 11.081695037834061 11.638087464746585 12.227358124352298
Sc 8.215197053352231 8.049671153928704 11.49305626792398
Sc 12.560897260002204 9.444186392566527 9.415616138736514
Sc 9.962084678638638 9.431774037415797 13.52840312497907
Sc 13.126065910979651 9.687892572819827 12.458587035667136
Sc 11.183091482990939 7.6899925354646905 11.557583684287751
