18
Energy = -87.8457755 eV
Sc 15.161467881681542 10.540869488044875 12.82585717145473
Sc 10.014068127042407 11.439237507987913 10.606204216883903
Sc 13.823409407553473 12.04115508260819 15.079076075569082
Sc 11.913301255573577 14.35033110601737 15.134624374357855
Sc 12.404288886490221 12.692080854212588 9.197216610137586
Sc 12.606501708335395 9.269618891503953 14.088296253300374
Sc 11.658263513862565 14.630946067604757 12.31063235212409
Sc 11.453967008008366 8.855750639017147 11.348783729939157
Sc 12.560592163101003 11.829232217356394 12.170616842916603
Sc 14.43503221222111 14.321526609976663 13.165938348024458
Sc 10.98561109879141 11.674866542537258 14.685798578099774
Sc 9.330615009659072 10.025399861673904 13.103721671040274
Sc 10.148219526099641 14.360549373216354 9.987882641968737
Sc 9.217191694518567 13.221591479010721 12.91667401576629
Sc 13.834561698258726 10.069063125039193 10.067174158756517
Sc 14.157216194286582 7.765860067336802 11.96909985345932
Sc 15.06145697709332 12.785673875170858 10.697331734694073
Sc 13.381638691444401 15.25014261118332 10.223742278081735
