18
Energy = -86.89709018 eV
Sc 12.376507083887528 11.456879148731007 12.966903864945158
Sc 12.615986302010924 12.380157822925923 16.22346800136041
Sc 15.248081493826836 15.147872917508812 13.002723027251823
Sc 14.541969961978515 9.958101839291531 9.246849975794223
Sc 14.383263603536435 15.033974132756317 15.973661793453145
Sc 12.548778757735475 12.269862795321657 9.291483339796255
Sc 11.910015246628552 9.655826170979587 10.600558531530439
Sc 11.117298574802623 15.275466364194004 15.937028692223217
Sc 12.706709062699899 14.091627289432097 13.965946900734423
Sc 13.853383622823339 7.386128358265629 10.274132905948578
Sc 12.843008502003094 16.912997690892464 13.869054903716398
Sc 10.19419254148265 15.382210511400979 12.955087062799391
Sc 14.515883928331023 9.5085262838576 12.146044624908493
Sc 14.667593545494565 12.477118972091313 11.246508651775288
Sc 12.626805227903375 14.758214308217827 11.1551990004303
Sc 15.06420259341731 12.350903548081098 14.327823618315358
Sc 10.007555031450018 12.78134727740831 14.349245375951734
Sc 10.349552069250409 12.763097022769731 11.235316682891147
