19
Energy = -93.91625085 eV
Sc 12.1085643103802 12.889183696346272 12.938752705936277
Sc 9.185778414577033 13.68568019762162 12.845092304625588
Sc 10.004331561436285 10.892299633542107 13.98922362491347
Sc 12.741723189692914 9.868326579738774 14.343045276767304
Sc 10.906956054093166 15.066386103277774 10.629036016855256
Sc 8.161419360969859 11.021834106212404 11.669462560743858
Sc 13.151178073600096 12.55031805574792 9.742422764464166
Sc 10.629238501331848 7.890337112649857 12.999744952111014
Sc 11.68102532947196 10.0681376668995 11.486493533691872
Sc 14.48678424898507 11.089903379921518 12.125963020398714
Sc 13.7544901584516 8.032203066369675 12.245226059509227
Sc 10.383100471421503 12.386355965405762 10.418329017789151
Sc 10.323374737104395 13.477893862765573 7.90476460445101
Sc 9.166248676337057 8.662024910152965 10.247521661987527
Sc 8.122118328869883 13.958910284375204 9.91395296386777
Sc 11.849906091170649 7.469256521534229 9.982622669402032
Sc 14.034286253480639 9.573697665835125 9.532411691710244
Sc 11.187909393052214 10.155150619455329 8.366515950535547
Sc 8.312610213015452 11.227104149522958 8.603639651377136
