10
Energy = -45.30042269 eV
Sc 11.275345752026244 9.097240397516016 9.528778450563912
Sc 9.830739245038291 8.921421266873867 12.032842950535713
Sc 9.31575776056555 6.922060220261281 9.647256951920866
Sc 11.113775375127634 7.583415328497944 7.062053992198595
Sc 10.993377159596868 10.805608819664867 7.209975772474843
Sc 8.710593771129883 9.08296925164417 7.743608436352969
Sc 6.440809171243117 7.34414826966508 8.266778327702824
Sc 9.149036412104042 11.093360989172702 9.847753713664286
Sc 7.337883412657999 8.89567864588628 10.55119519407487
Sc 6.29327523084634 10.564358275651614 8.427355114016732
