11
Energy = -48.05332622 eV
Sc 12.38892757891532 10.505845733135065 9.61617351065505
Sc 12.228769502050346 13.508741088329387 9.634837077870406
Sc 10.701436853139786 12.079581524941378 11.570152265975969
Sc 14.689686736309353 12.177970653594329 10.581743788402335
Sc 13.88979235882745 14.831406678734895 11.825255257262295
Sc 15.313157261752622 12.725326258395116 13.475098649298745
Sc 10.87138384081014 15.129927441675624 11.78535569598189
Sc 13.188202692995564 10.747516667848641 12.520711965057549
Sc 10.724203069341712 10.851686580994993 14.43831775588084
Sc 12.354341789766686 13.400463677856303 13.83017486819579
Sc 9.308029006703718 9.69946438510761 16.380109856032096
