17
Energy = -82.13725285 eV
Sc 9.408421533774124 13.383204965057724 13.098315175895578
Sc 7.677607794234377 10.790681611009733 13.985211039074994
Sc 10.623703581350787 10.899523411809117 14.160969541615835
Sc 12.078587098552955 12.437531771817097 11.683809989383066
Sc 9.872709379366658 13.338999359983575 9.878312244736085
Sc 6.947680764990915 9.143849493805014 11.28097452867876
Sc 9.167137401926164 8.402738613550412 13.087868793327008
Sc 9.275546489768516 10.898752303233296 11.559676745237471
Sc 12.940087671810257 13.173114905238199 8.787363956815616
Sc 12.00519826824329 9.25481606341422 11.69928586753077
Sc 11.326368026632698 10.759544272426142 9.099803427627938
Sc 8.298428284623153 10.616163033169654 8.713302627630581
Sc 14.168121664892807 10.677140789948123 9.903279818789901
Sc 9.62349615681858 8.200330754407648 9.865999854459876
Sc 13.28654420253773 10.533221031499808 6.9982525035068655
Sc 12.713286740339779 8.168052819112452 8.819910026195943
Sc 10.490735909670683 8.941838153874855 6.970380701837109
