16
Energy = -76.700441 eV
Sc 12.727928486714056 13.604119088039008 8.95399729453187
Sc 12.453262759343257 12.17315244863513 11.61019140202453
Sc 9.92826985035015 12.692944789979101 13.640257855062321
Sc 9.787561216875993 13.235728120026307 10.63394987436923
Sc 14.224566930844354 10.983610105161533 9.39824568423852
Sc 13.256261994509972 11.485520070506178 6.717532172547479
Sc 11.339369132703007 11.000135238497064 8.940410681005124
Sc 7.394807248759458 11.838231845819022 12.3103549081203
Sc 12.855007023389701 8.656570204401268 7.982785029345089
Sc 9.851852697737025 10.40520357826505 11.772723629828572
Sc 8.158458020682176 10.827776833746556 9.407917408150887
Sc 12.535142197723111 8.96271022756997 10.981218690633517
Sc 7.472452092576609 8.758301665929936 11.705527122956118
Sc 8.590302661673391 9.869917921645753 14.333454495791354
Sc 10.05609779828056 7.585978413104853 12.63673375586333
Sc 9.916507021468457 8.216212667449543 9.647514028947544
