14
Energy = -65.99053655 eV
Sc 13.350720617040245 8.34109184540146 10.508500407627942
Sc 13.211223075761866 10.456133273671472 8.213621029167344
Sc 10.604697750038032 8.578466493028602 8.740499472316388
Sc 10.645384214700849 7.976091885346125 11.72146741093647
Sc 11.80736838193075 10.695409802392884 10.609609061183201
Sc 10.40310714649181 11.551382279948527 8.000002552322929
Sc 7.91939655982671 8.020064555964135 10.547086677214963
Sc 7.7750906106558935 10.129596140211971 8.203675842400667
Sc 8.992132051146207 9.705618600147602 13.399134352849664
Sc 11.987261149567187 9.985700020584794 13.36720586595018
Sc 10.290240612187647 12.560165921896225 12.444131151108804
Sc 8.970940164816845 10.59523651364472 10.683471389847343
Sc 11.803245908020973 13.47186672003804 9.775188900116786
Sc 8.81204440767643 13.286820025005566 9.722979605255992
