14
Energy = -65.91840579 eV
Sc 14.343583496006678 8.61759952598493 10.397251897311426
Sc 13.946094216277041 10.487212373875732 12.688677414529316
Sc 12.083800460647913 8.679020664581502 8.407412933513088
Sc 12.850892825296357 11.10468139952459 9.83631061702837
Sc 11.278598964941212 10.266267818501246 14.380695963467824
Sc 11.669301624990169 9.004368179911223 11.59341786264134
Sc 10.508800202618177 11.30671980335864 7.377368679688407
Sc 9.687688883199955 9.838005620046589 9.58233394753092
Sc 9.525002802916365 12.671197661198928 14.59213339712936
Sc 11.629138574483397 12.509195162564291 12.522625641316388
Sc 9.113521928875516 10.935178975786537 12.23777579368017
Sc 10.539588308012258 12.899691399288496 9.818490098146366
Sc 7.923445931643373 12.138923701466377 9.276634133108455
Sc 8.7408727515093 13.815196894363368 11.917062598918756
