18
Energy = -88.71680222 eV
Sc 12.1912014158695 14.122543959370672 10.779914888559647
Sc 7.0381033383849605 8.465833439067733 11.625612019900233
Sc 12.279681855098298 12.5912812485267 8.034137278216273
Sc 10.188739195186319 10.105622776370236 7.741712325027909
Sc 9.826149907328565 7.0087887847999335 11.704092015471746
Sc 12.47185255973006 8.936943083679092 11.476157095979524
Sc 7.45958352741267 11.513006694839397 11.71797644761125
Sc 13.136559253760462 9.707885427298397 8.452195467235844
Sc 9.974751332338418 10.114119969382608 13.10397103158902
Sc 14.27051807890256 11.879029475092837 10.306857645915558
Sc 11.471055969389967 11.38594926782263 10.471583824462101
Sc 8.238307132569734 7.261990499106434 9.06071446979455
Sc 9.14908364473633 12.624494126689767 9.423843725249686
Sc 9.39481360084885 9.488515968039305 10.391375578614058
Sc 12.64136230044128 11.99462276152196 12.990065188487675
Sc 7.005740192074278 10.163573077890572 9.036754380799719
Sc 9.858606878514516 13.104077978948903 12.497831897816196
Sc 11.307666102911309 7.435497747050735 9.088981004766758
