15
Energy = -70.81701362 eV
Sc 13.654304698815592 8.256245600230935 9.237060223203564
Sc 14.761530655795113 10.856313811352743 10.265640955322331
Sc 14.221270824470354 11.42194660107594 13.344914224313209
Sc 12.354445894121415 9.570542062990842 11.559677129884502
Sc 10.755585737297212 8.006373778081258 9.446630102917185
Sc 12.869442428218264 13.944506182046378 14.109883017565615
Sc 11.981689614875847 10.698116943222876 8.894426597561223
Sc 9.146584581980266 9.737869386024949 11.489608614248551
Sc 8.815591814019214 10.196847391758759 8.541581993946519
Sc 11.150829352820347 11.67337349212908 13.40947202668818
Sc 12.772323260039379 12.925360800659993 11.25560360608625
Sc 10.392475391607698 14.458322618019114 12.60352917403105
Sc 9.84772356191574 12.349561115904416 10.403778276893172
Sc 7.018998906777582 11.60276706664935 10.367821068788857
Sc 8.241690166004613 12.303210797061242 12.978498080061053
