18
Energy = -87.50748154 eV
Sc 12.994217338197595 10.22681384406207 11.647847431841091
Sc 14.03558589452529 11.72248776155077 9.563488519053976
Sc 12.106975736427819 10.944080191182307 7.4932438034769
Sc 12.713604410586171 8.567722468996958 9.283715173200966
Sc 10.181764739286931 8.796387355915668 7.590198738774462
Sc 11.668516240157054 13.375835799458336 9.031365717885604
Sc 11.931703203918254 12.87844572832825 12.015178240180779
Sc 11.942529559787838 10.563255223875554 14.1981888199995
Sc 12.48719040603652 7.555925980778524 12.301585610169361
Sc 10.221179164091573 10.585139721928392 10.276446954368176
Sc 9.930732587303062 7.419571905310273 10.359202041603027
Sc 10.09722210823544 8.839861044504202 13.001983884214688
Sc 7.64112771750491 9.211736293778115 8.878439884510522
Sc 9.303339405051698 13.65272823030226 10.663079203947484
Sc 9.045355217688904 11.907961845101962 7.850995661592129
Sc 9.161135261938737 11.685900668240441 13.05964078966786
Sc 7.509014382570099 9.1208276702546 11.810025650552863
Sc 7.191699806130817 11.707775552859863 10.460250296558685
