15
Energy = -69.85074546 eV
Sc 13.075780152137519 13.103701021014999 10.399912768277114
Sc 9.860867427638198 12.468453853906846 10.247976409667558
Sc 12.371748915084043 11.694737238812548 15.655571732038323
Sc 7.131580613498262 11.095535053097365 10.005440719289206
Sc 8.533837585011419 11.100511593119197 12.650597620618136
Sc 11.022469536031148 12.84850397473665 13.200771330768033
Sc 9.798743433484363 9.668244323451095 10.18524758076807
Sc 15.721157124570034 11.652019965885822 10.915251249281853
Sc 11.301847065839832 10.019279186155508 13.297814928962932
Sc 13.898454195552704 11.91932682064974 13.160132905600765
Sc 12.92417565830891 10.360525423263358 10.642938881912201
Sc 8.737100833643163 11.111164353644336 7.7136554830391075
Sc 9.559764317691934 11.252098988266967 15.38062629878526
Sc 14.561601361186385 11.461968044594022 8.302190061604241
Sc 11.668751462693667 11.387833874124526 8.114884202376585
