10
Energy = -45.47977412 eV
Sc 8.126764895035507 8.987206705270493 9.043525886857827
Sc 8.201392709208456 11.05331719773498 10.601453316025964
Sc 7.825486173549867 7.696512655130036 11.355581490659269
Sc 6.868315927195999 10.564218847185211 7.420801486324514
Sc 8.86496910286313 8.266106029919975 6.453958132760957
Sc 10.0698599664074 10.678752420793352 7.9692815543390685
Sc 9.349500324083088 6.504891218513941 8.913182670117992
Sc 6.437367522710027 7.185973600230168 8.040969087770929
Sc 10.535770500575683 8.879550951896318 10.442880047797336
Sc 11.659263065395297 8.122160373325537 7.697056140321829
