10
Energy = -45.23938799 eV
Sc 10.420019218939299 7.308155726043844 10.929991157230663
Sc 11.97743098060718 10.125858708136029 11.138431412635715
Sc 10.332317659810577 9.499037496599339 8.732998852189013
Sc 12.626552308848213 11.403492527083996 8.395002488155033
Sc 7.914071958574476 7.090434012400825 12.312333113647316
Sc 7.88002195050954 7.769480201679329 9.501929329069213
Sc 8.908549791615252 9.802098779252717 11.369618749847268
Sc 10.06077628412889 11.902290575014254 6.958280053157199
Sc 7.7272130582924845 10.91667586930314 8.747288333020437
Sc 10.201744224827936 12.223009384988181 9.902636708641287
