14
Energy = -67.08134471 eV
Sc 8.750394792619778 9.050929827367554 8.841740393636764
Sc 12.502980588970873 8.689107448015449 9.337849447718147
Sc 6.053063102991503 9.338897387552201 8.285844592774502
Sc 10.745500766904492 11.114710978093344 9.2590569882514
Sc 7.593769245832652 11.675588524602299 9.62117985602433
Sc 10.38282764719128 6.612388394596689 8.631368094848728
Sc 7.4264520696905825 6.695617470591192 9.558088608455076
Sc 9.490797474722473 11.285021092947147 11.991336010007181
Sc 12.416665977541019 10.603338224162808 11.687341780615867
Sc 10.267612541664207 8.524293284560732 11.289818470912738
Sc 7.253885430962758 9.350871739804758 11.426667201525552
Sc 8.189348437301598 10.603884225816294 6.591575339863803
Sc 10.857247397367688 8.909327773064556 6.760003728194515
Sc 8.021487098257335 7.498055247479154 6.67016129649856
