19
Energy = -92.2528736 eV
Sc 13.374432396734502 14.323646498670547 11.3891752416416
Sc 13.106378908877874 12.436315275827626 13.989560423681809
Sc 14.446021203881072 11.330402519349796 11.665502540001057
Sc 11.617187363947945 12.353727346365579 11.17257033761515
Sc 11.568028540841345 13.94617592919725 8.645934844821014
Sc 9.46194360978495 14.398604194128705 10.762063981635468
Sc 13.908657204508978 12.264489878927021 8.968658009721285
Sc 10.79598336942343 14.105384375628994 13.450716638968315
Sc 10.414297939646165 11.553265945704302 15.109516485165852
Sc 8.982127698763748 11.763940365736303 12.432840223845432
Sc 8.842824998501596 9.08557547688192 13.988144833069338
Sc 9.502681145044871 11.657820019541465 9.195127948344982
Sc 11.52958246084574 9.889555871283584 12.862866108962024
Sc 12.032008442101322 9.774286704908864 9.709767716644363
Sc 11.696575129580205 11.284829352086245 7.123533675679359
Sc 9.228325461126708 9.028678124839638 10.897343710832839
Sc 10.538703218150054 6.977354736381548 12.632018597384015
Sc 9.820640653942998 8.886764710757651 7.84290271494141
Sc 10.961304956059154 6.874121795108144 9.767298594992027
