14
Energy = -65.80549463 eV
Sc 13.34460873388545 10.731374965261208 8.904099252829603
Sc 10.351041232895618 9.94650202324622 9.848270509259246
Sc 12.883602404511324 8.025625248578182 10.453338722430175
Sc 10.928730539995893 12.162738582200303 7.52370753254268
Sc 12.919738097018847 10.704655126896585 11.76702087084329
Sc 8.098849660370245 10.93089326246825 7.7076667500937575
Sc 11.882934608474223 12.963719130768931 10.149427246418426
Sc 7.612957106948278 8.297077323032804 9.317958319532089
Sc 11.097824021069895 8.663338709766537 12.72652554901979
Sc 10.041560553939398 6.83755227932044 10.694074971114203
Sc 7.151257226580387 10.949436522114793 10.464606624537165
Sc 8.239154204152655 8.731668143632126 12.110882060025247
Sc 9.850048684237237 11.49894600860156 12.191212813276474
Sc 8.987873684777067 13.056382082529618 9.524479372742197
