16
Energy = -77.26895224 eV
Sc 10.023809964186729 14.025353272533472 16.073036071054414
Sc 9.87402217949097 10.951198697111932 10.750200428969626
Sc 11.368660152018956 9.705055730002607 13.014987320039541
Sc 11.300488769868199 15.019228798929158 13.520071564976696
Sc 9.424324104548019 12.427708159007782 13.411068223937734
Sc 13.022783918693941 14.205107487039724 15.799857536906577
Sc 12.324475309302432 12.53263174391949 12.316744455398334
Sc 15.124798356846881 12.795806114803735 11.156178260470247
Sc 14.009211863822946 10.060638077311213 11.583938152562107
Sc 14.39265340490896 14.765719280468304 13.227342434925765
Sc 11.699943803903354 11.76053515097919 15.228382637444286
Sc 14.58495625320792 11.876486506332837 14.151600286082996
Sc 12.990047779001815 14.867280291573172 10.518737636864515
Sc 12.50210920610859 11.823559315516318 9.507040489532649
Sc 10.133573589216267 13.893105537847262 10.771034582129568
Sc 11.785069532171015 8.812815321207713 10.109582658554197
