19
Energy = -93.53008651 eV
Sc 10.344538806422854 11.293277225784559 5.896836338589379
Sc 8.856471756999305 8.599498026334679 7.623842739947869
Sc 7.797952632170838 11.68311747288575 7.503922782768857
Sc 11.957138133432418 9.010595149018592 7.078704322633011
Sc 10.23984334324469 13.63698228127722 7.878474282152794
Sc 12.75749583026689 11.984173737808236 7.592626075838941
Sc 9.261243159191235 8.69531677443303 10.720295537528386
Sc 6.825728405147102 10.070940678290349 9.765278519699843
Sc 11.322349293212257 7.114074770237245 9.302921122997994
Sc 10.320911554959705 10.858494565803225 8.763586997650519
Sc 11.798940541733222 12.775576569974348 10.476419105231825
Sc 12.589543494150117 9.696625499698694 10.168977269720544
Sc 9.311861567726925 5.808746284489827 11.410340833282168
Sc 11.661692510676314 7.545375448177418 12.199930007417278
Sc 8.637966839233387 12.329771237934901 10.633906343251647
Sc 7.416818706156079 10.277925994300787 12.64545215183191
Sc 6.681563683239285 7.513234808152345 11.648408191344275
Sc 10.568628335461407 10.604698619094787 12.392373267084674
Sc 8.914234926644498 7.766498376372424 13.562627631096348
