16
Energy = -76.62531817 eV
Sc 14.081057558624583 12.387426260320044 9.38701744093331
Sc 13.722462284236716 10.567253568022466 11.929030116801703
Sc 12.370492846960328 13.465939328979953 11.83196354022165
Sc 13.583108985293235 9.297019716607053 9.042930559410415
Sc 11.520076812970212 13.874955107769884 8.848553171796125
Sc 12.355180572277408 11.330331916953622 7.141109987669608
Sc 12.793570374744403 12.106494252864628 14.712194092213117
Sc 11.487729776701627 11.121581203648491 9.955152870379218
Sc 10.730831908456405 10.942851155265101 12.937350484477388
Sc 10.229798133204097 13.546323064182934 14.165484385942861
Sc 11.503259430678183 8.39322244834154 11.203939589004154
Sc 10.700563700247402 8.791102817549193 8.32327666775141
Sc 9.318181629620629 13.018220943482168 11.262492226713643
Sc 10.182625412982507 11.03366832912854 15.833114598035644
Sc 8.0115728557888 11.59036938639623 13.741066056206993
Sc 8.848109909797047 9.920719459664715 10.817251066302273
