15
Energy = -72.0805148 eV
Sc 12.400586448080679 11.813679950124815 8.358392327074354
Sc 13.268551729932963 10.356583209645152 10.751826034840363
Sc 11.848790364754445 8.548215757123685 8.43382333336404
Sc 11.634973033278206 12.92262997115073 11.168749315190508
Sc 9.993369590779645 10.900493465304365 6.959138730510052
Sc 9.706542566309043 13.239803465443762 8.973951432596706
Sc 11.948035794779653 7.9669806006104835 11.716678489211963
Sc 7.497638025363397 11.31680553411444 8.763706916451916
Sc 11.33248473882658 10.724226316455384 13.07204299184199
Sc 10.202710439928092 10.275035308952935 10.094079826613926
Sc 8.601301018738873 8.512474636820011 7.967313290757792
Sc 9.606502023130984 7.118194599264237 10.34032919618917
Sc 8.565566665620839 11.944789502395459 11.830682627093864
Sc 9.200754623718254 8.846937760872674 12.899815570195768
Sc 7.337894588142369 9.119920419772996 10.705984835502447
