17
Energy = -82.16948091 eV
Sc 11.30076330748146 13.910686168019799 11.43736731227569
Sc 12.378350933736716 9.181357882395483 13.019704117012843
Sc 14.012246334608081 12.579602636445651 9.206813021876878
Sc 13.786529715472097 9.853990564376668 10.235065386504399
Sc 9.33371249513608 9.948865894154567 13.891117258243938
Sc 11.269279433342929 12.655164927231775 8.699319320392638
Sc 8.679975528298645 12.672029493331143 12.982562285981919
Sc 9.27171944299093 8.08988538434116 9.156766650317785
Sc 8.676067529001964 13.059356290290207 10.129291025607316
Sc 7.730076280116514 10.198119881713378 11.090800842692301
Sc 11.384300635047158 12.044641214266315 13.975562579171452
Sc 8.966814575544523 10.80330558032541 8.239920306752216
Sc 11.830220266795509 9.781329875885303 7.989919445677865
Sc 13.511805148671275 11.99439114254896 12.021037189574026
Sc 10.7806244551475 10.672681822788295 10.9901050466709
Sc 11.952848231113856 7.630555968645311 10.286396652123726
Sc 9.617027174233545 7.754424412321308 12.048161504680763
