10
Energy = -44.84473993 eV
Sc 10.829811674424809 10.040782843317013 12.879614597048667
Sc 12.305279263061934 12.62838378378515 13.314719303533808
Sc 10.566657888010395 11.6246846525348 15.423574635513525
Sc 11.198945861217469 8.756915150033143 9.652427945303398
Sc 12.69118404108229 11.02742650015814 10.65949715422246
Sc 13.522162188391514 9.531890943505157 8.043193886406884
Sc 9.521278620035687 11.1345039409043 10.436430055005646
Sc 9.474712130069804 12.709682786305034 13.00838087620811
Sc 11.21660546706678 13.564516388074752 10.580853205090044
Sc 11.314218373536992 11.286613577301353 8.130728424369938
