11
Energy = -50.92090543 eV
Sc 10.769700613110405 13.012770687009358 10.901171413067669
Sc 12.415842209256459 11.629609763233974 8.900924334193146
Sc 12.295584903219247 10.477436189041729 11.96637055838012
Sc 10.276084179538342 10.314047952514658 10.219975986337877
Sc 11.35369718641246 7.702866291385571 10.030282791592523
Sc 9.40166751329456 11.768904254001606 8.112268332141117
Sc 11.084900144345786 9.317529209216788 7.4753269235692015
Sc 9.607768179151527 11.306714299221092 13.07193672599466
Sc 7.579799153099669 10.734748311447314 10.896871128617349
Sc 8.552080608045301 8.48902659816437 8.994481142896419
Sc 9.258539508940519 8.459842995361578 12.089304139896049
