15
Energy = -72.0508376 eV
Sc 11.573349566480827 10.197629182639904 8.10416506772294
Sc 9.727783600111493 9.220805699844872 6.011532521770708
Sc 12.025052557705127 7.484213323823533 6.680542733983498
Sc 8.812404118304006 11.686160370382051 7.579741251428355
Sc 9.204800385618865 7.038358126280397 7.894886808416084
Sc 11.666064881395071 7.50387121585548 9.566406441266349
Sc 7.000489616114161 9.146507821809545 7.380208296948516
Sc 6.624456376101508 11.086930509937124 9.67690794877538
Sc 7.044804141049638 7.95314011862806 10.365606042694969
Sc 9.148271639539331 9.546109913474918 9.517972838144912
Sc 11.896904069789928 10.199762589603734 11.083358109191689
Sc 9.552934364914137 12.140123885508503 10.756617307146605
Sc 9.906624670049114 8.139793530046855 11.98619858575061
Sc 7.796263406366034 10.182080817556432 12.296026490566534
Sc 10.401917026716161 10.856633314863831 13.481949976448677
