14
Energy = -66.7835459 eV
Sc 9.111444342285575 6.83896498781124 7.0233329924838594
Sc 8.80262903969081 9.620732506244705 6.331456420998821
Sc 11.608907447385366 8.831033041726872 7.344695719634312
Sc 10.427123447732834 11.805891705443107 7.532029178458429
Sc 9.599722624869088 8.987837427379468 9.214638018161713
Sc 7.816327301112136 11.19675707956336 8.746085396941929
Sc 6.965340607911545 8.144800879799119 8.97458759552219
Sc 9.479957042140471 12.72124644832267 10.461574759122291
Sc 11.832630072724285 10.788875269153348 9.869162144462488
Sc 9.143413412530482 5.9748704350424635 9.74053460567678
Sc 11.424788732078792 7.808157224061345 11.004255285809496
Sc 6.995874582024491 10.567310316139015 11.378517713914432
Sc 9.82247159668188 10.260422626464333 11.939754536305408
Sc 8.307523507452586 7.791253809469133 11.777529389128322
