14
Energy = -66.93029884 eV
Sc 10.154106282640027 10.596459601522913 13.594865670150744
Sc 8.457775569471746 12.506848051912474 11.774639147022214
Sc 14.440198984418961 11.364694333827176 11.195497703147915
Sc 12.372184954045533 9.345975792145017 12.087743515545144
Sc 10.064115410484046 7.616054519031449 12.97791719904819
Sc 11.835516744451338 12.717778541023277 12.08772747393137
Sc 9.740140070463791 13.371386012580922 9.083707625978665
Sc 10.217683890719762 8.231735179335102 9.925429901519546
Sc 8.08483072527845 9.46009874717297 11.842453182648697
Sc 7.920968162195271 10.956740138492716 9.152788294057082
Sc 10.473873912555058 10.919839188589945 10.464398665935244
Sc 12.985283704783841 9.586141531122168 9.210344155506174
Sc 12.712193066015073 12.507352364284417 9.094587452728163
Sc 10.614597478758993 10.865790983582919 7.576820249090222
