15
Energy = -72.34674233 eV
Sc 7.792378461400194 9.784738788784576 8.59256509782773
Sc 9.481613689986398 9.888102036133969 6.247896269075404
Sc 11.879495689104537 8.879753011221304 8.437503080084136
Sc 10.68085451605239 6.841730215306276 10.636344369278039
Sc 9.90819207842353 13.060076624684504 10.422909524557715
Sc 9.636264605737995 8.575402784842737 12.98950682429937
Sc 12.627053968913916 11.564462477627481 10.38903632707457
Sc 10.154820372329972 9.887951339211057 10.433783792282977
Sc 10.7805456181928 11.654305114564655 8.021237755052226
Sc 7.820364649760359 7.770183237417773 10.694618494939974
Sc 12.503393629622549 8.913026913609885 11.924067974092138
Sc 7.761914031677302 10.998744803830476 11.352725461295508
Sc 8.017734217114485 12.504551013916585 8.16911818077257
Sc 9.2659683086038 7.386731149655934 7.999190518356323
Sc 10.817095607028495 11.41792993314162 12.817185774959862
