15
Energy = -71.15442172 eV
Sc 10.936679814362023 7.4413181631649605 7.147078213877472
Sc 7.051531600249595 7.468937511342749 9.00583153813455
Sc 10.821742400360844 7.439432732975214 11.08672125237485
Sc 8.360520610421563 9.075019580304723 6.467094697766456
Sc 9.556305080508162 9.059954912695636 9.077937144722327
Sc 8.208712821876373 9.072236295159074 11.61756893528972
Sc 10.856093220810166 10.647959987649575 11.090671819735284
Sc 7.08784296382259 10.704948656457372 9.007694521691413
Sc 10.973301367462863 10.649494976744737 7.150808688802213
Sc 8.391068848819346 12.08477509926984 6.464359724156872
Sc 9.536569873954873 12.397795403653355 9.080161910866005
Sc 8.237470825238658 12.082436294834636 11.624177703717981
Sc 8.172278031836049 6.062321573932775 11.619817923218386
Sc 9.46151267845811 5.721908774098988 9.074428647813091
Sc 8.322132361818795 6.0652225377162345 6.459409777833624
