15
Energy = -71.41321582 eV
Sc 10.218618946254761 8.341317503285737 10.26040105274522
Sc 11.705544592565646 11.85979681222559 7.044539949021437
Sc 8.291986136817087 10.74473249499453 9.48026821746271
Sc 10.642731507950772 8.878629903711918 13.184674657561095
Sc 13.449241202924075 12.525149754280022 9.341223077029131
Sc 10.41556441908291 13.571300621677832 9.453434079927368
Sc 11.578780683704547 11.413239573307935 14.444316568878993
Sc 8.69872206853979 10.345157889442362 14.803526161691314
Sc 7.8658509439682565 9.078953184730489 12.162209687399914
Sc 10.114100559486698 9.331966692126427 7.451510062921203
Sc 12.922245594570823 10.328486154053753 11.830946793778306
Sc 9.642989068224933 11.58245859204998 12.213531642331688
Sc 12.933590259772082 9.386610051147104 8.556555550607088
Sc 11.093307637737025 10.980028000407666 9.719972360086999
Sc 12.215775242774445 13.254947817366505 11.991273089927272
