17
Energy = -78.11906823 eV
Sc 11.862984070423819 16.48802055001712 14.673343503138529
Sc 13.494712431941396 4.361822937712392 16.555736385854658
Sc 12.652513767225477 19.47796823773386 14.885588004015482
Sc 15.201054806729388 19.950681154197486 13.012612874407427
Sc 13.875556753948361 15.089577237400011 12.708164841949271
Sc 12.91473334461304 18.012697765974593 12.13689625181639
Sc 14.238632682563455 14.775085179292464 15.811373653979313
Sc 14.621197084374083 6.6291147666485255 15.334839466675472
Sc 14.710224943960785 17.404454512402435 14.434681133380465
Sc 15.928334323967118 17.23652659799752 11.695889647532018
Sc 16.747890833950354 15.239809132403213 13.978607310024778
Sc 13.269825924024358 4.850576648262507 13.634298879770679
Sc 15.633943214389545 3.886217903518301 14.804308744655446
Sc 16.518733014565885 16.730434259076965 16.735516776047223
Sc 15.569001719418068 19.631242407948776 16.17846728566921
Sc 17.55347685830549 18.25616459017986 14.18717822619988
Sc 13.500902828458193 17.502282082338112 17.155184502816667
