10
Energy = -45.09284833 eV
Sc 7.663949242910129 9.992601867100692 7.380289676194692
Sc 6.302850443849351 9.23362314011294 9.813026980967555
Sc 8.855785026069492 8.443138842914948 5.379880449329725
Sc 8.422118313738254 11.617165347197835 9.521718524514634
Sc 6.538142183222261 7.310468754319346 7.253306353014393
Sc 10.991936454480767 7.019476891952189 9.982634617391664
Sc 9.155334618380936 9.092578215025187 10.614103561861215
Sc 9.428426805016688 6.851443839611732 7.642891695088856
Sc 10.482956478425397 9.561885728345924 8.030303157518198
Sc 7.816631024970236 6.535747964482973 10.039975575182567
