19
Energy = -94.2917448 eV
Sc 11.326776994773441 10.02904071828531 15.065732204133575
Sc 14.339941272093197 10.618697035917483 14.812754842565973
Sc 9.800265114718536 12.776189831619257 15.075261569493689
Sc 14.718246344365985 13.72319329353639 14.678573528728581
Sc 11.902044766692116 15.022770637825786 14.804511104192601
Sc 14.981940125067366 11.955870930300456 11.955485360161564
Sc 13.363038905875866 14.857964029312413 11.955179154769448
Sc 12.75898836586662 9.573483968390684 12.219219842714525
Sc 10.182235257773776 14.236554658298871 12.215603304431099
Sc 9.77940663626214 10.951836326844584 12.38296820434495
Sc 11.497304223837249 14.790502060604549 9.34454303423199
Sc 9.394526597911073 12.535937098364501 9.569544856261896
Sc 14.306167485145895 13.487153588799798 9.165254654715552
Sc 10.92330737920014 9.799691685619468 9.577044983212053
Sc 13.930039778651214 10.38996498917159 9.336043087276588
Sc 12.539804296604121 12.500594900302268 16.54069414992009
Sc 12.321878974863136 12.37640871597504 13.586929583935515
Sc 12.104749555272821 12.251784734847513 10.704627531076904
Sc 11.88977946594212 12.13559563590436 7.757258556369406
