19
Energy = -92.98905364 eV
Sc 10.908823658124795 9.67079207300715 8.33119146543171
Sc 11.186320147891236 14.555118984265812 11.98302931483869
Sc 13.72959713968331 14.082954779463227 13.714824366689669
Sc 11.829951863765032 11.738061532105723 13.193978661129504
Sc 9.382368386030635 12.202952654749826 8.034314044361638
Sc 11.10856164161431 11.970437803162236 10.355521530690847
Sc 10.364830325967988 10.973331215688553 15.649963773568201
Sc 13.800338501518691 13.33120642613403 10.856874341662405
Sc 10.999984906609761 13.872256966957615 15.03391076262794
Sc 14.506305345779419 10.926248168270645 12.546021742795421
Sc 12.60427960337852 9.126705217949276 14.378181019431713
Sc 9.809794687935245 9.24013591091826 13.23116328935792
Sc 8.95922447347279 10.101207893073662 10.509230708352119
Sc 12.059750716784277 13.802435298776667 8.430986353950043
Sc 13.558309059066254 11.065643718815569 9.032131772944279
Sc 12.062571110017476 9.240272779833758 11.256134089579824
Sc 11.918788177329485 11.68365681340881 6.392303616647006
Sc 13.407959038738511 11.796621383472958 15.648812015532625
Sc 9.003353067922218 12.28561918849435 12.912736540065795
