17
Energy = -80.98832519 eV
Sc 13.122286655786157 13.368526852796437 11.216618880213812
Sc 11.284359057417648 15.63727566186503 11.208767940350803
Sc 9.966030884684276 13.134160395732858 9.830937667528929
Sc 8.548194384783622 15.477281782840407 11.401156209963451
Sc 12.738406300456731 11.707746282179945 8.625788647660029
Sc 13.004740167355344 11.588672177257951 13.756373098849457
Sc 14.577468409885736 10.746718398597169 11.077999223128208
Sc 10.160227885732878 13.141808888302673 12.83905424200617
Sc 11.488918715209612 10.835530384885917 11.234350146473037
Sc 7.308088087436099 13.015043755978855 11.529182754200702
Sc 15.2999800803502 7.8471976844709665 10.979201027703116
Sc 12.842927922961833 8.695347836820421 9.53977593372463
Sc 13.000746152855383 8.637960521257938 12.705834174184329
Sc 10.119235554968386 10.008557436645752 8.703348239663054
Sc 10.36544627385548 9.931542188309512 13.855669053823995
Sc 8.531969238529703 10.38809984414167 11.365894789231502
Sc 10.331922841238846 8.05263119953407 11.250617374189273
