14
Energy = -65.20572368 eV
Sc 11.726743549716895 14.234802890707924 11.170124221204219
Sc 13.312550312569218 12.014231115396178 9.64029522016004
Sc 11.828857074131946 11.448792251284168 12.243884983834265
Sc 10.27749919663472 12.186650368311382 9.531707924114112
Sc 9.124305289530703 12.848607590282892 12.259342904580729
Sc 14.174907447440871 9.713014956854524 11.585840649594092
Sc 9.81996635725055 10.575799500835753 14.287849171613885
Sc 11.647883306552014 10.900583350589951 7.211246026061759
Sc 11.812991369978228 9.37587909154435 9.784162884967007
Sc 11.513562652331801 8.463938853902796 12.682582067473165
Sc 9.127247745168896 9.901496997224694 11.462937031390364
Sc 7.346005917920276 11.748006494770264 9.924335468514414
Sc 9.08744298494709 9.594177845745019 8.445555744120824
Sc 9.840083835915678 7.208717190081031 10.361900287721024
