18
Energy = -87.07262903 eV
Sc 10.98467622435812 6.6037608279175615 9.290650745709137
Sc 12.613322649697439 9.204825992647711 9.271862617376255
Sc 12.728591151527583 8.909287313564949 12.13313552721213
Sc 7.994770968828959 7.394444292777202 9.047214442574166
Sc 10.05615265279304 9.127618010283133 7.904735525141496
Sc 9.805733898738707 8.668886137191896 10.973587918467343
Sc 10.412847102255384 9.752888098792619 13.832756797622428
Sc 13.959688056234768 11.524438588666301 10.691407239667699
Sc 12.669708562000793 11.64177827318745 13.580322336732744
Sc 7.994944833023346 10.661239634774937 9.616677536531164
Sc 10.189992336467732 12.351184478454822 15.205340984938736
Sc 12.947761643940796 11.721377643475359 7.850117609921913
Sc 10.984557720585448 11.306071564374667 10.910064880745553
Sc 8.489186417570165 11.711465722612717 12.685798895261131
Sc 10.09526387797046 12.166988912186222 8.06647729368285
Sc 8.936988536515102 13.608716384451728 10.361838374519733
Sc 11.993431461661267 13.877136839874654 9.73806473622816
Sc 10.76370246750034 13.815098346820953 12.6942623172686
