12
Energy = -56.40963786 eV
Sc 10.657972684324818 12.695891173131981 10.811028936005703
Sc 12.752239095229825 11.30159426024845 12.545769205043026
Sc 12.751744200590084 10.287515824322867 9.643154594217517
Sc 9.805922194308891 10.691059400069957 12.913216215966386
Sc 9.98127018513596 10.148191115632297 9.927589538625343
Sc 11.690090651467333 8.544540812884215 11.868483117853241
Sc 10.924176538965197 7.674684231565067 9.017753890690752
Sc 10.744296562069591 10.000204920069619 7.12349409053194
Sc 8.582586970414203 8.265804163268765 11.343904358048631
Sc 8.847152327560957 12.168611993064577 8.182519164759231
Sc 7.646262174198644 11.370061928099837 10.838321142432052
Sc 8.01141294793267 9.247721539586184 8.23778401426099
