10
Energy = -45.6276841 eV
Sc 11.983986245789636 10.64701714238699 11.363723907259201
Sc 11.231846744521569 12.520613680644544 9.284526493332452
Sc 10.757378216789123 9.64163105747568 8.663059478612777
Sc 9.304044786768936 12.18052539385631 11.797485139233777
Sc 9.542105318062156 9.22635612785489 11.447935936730905
Sc 6.817699163558506 10.160051317766797 11.34675726025902
Sc 8.433313887425063 11.147789734151948 9.233048452520766
Sc 8.041930376286995 8.180264461484821 9.222200406989108
Sc 13.542553722945891 10.272356551254852 9.025265240724465
Sc 12.137881537851841 7.81613453312317 10.408737684337376
