11
Energy = -50.53590364 eV
Sc 10.884003314928087 6.9598592460508355 9.221933710199027
Sc 9.743012608184578 8.739519689920058 11.277917109845276
Sc 12.629874245863348 8.832220012404989 10.607655091077891
Sc 12.095265563290557 10.916534218952034 12.864997925729869
Sc 8.087251959320273 7.800042934189668 8.889358340598914
Sc 7.593544781836772 10.634078260680777 9.792407291585544
Sc 12.159454532607876 11.647432339345464 10.050062859668664
Sc 11.4191664675978 13.773274083721684 11.796097808426826
Sc 10.204605829970559 9.911305563763749 8.644671555894714
Sc 9.57871727125975 11.619292879367038 11.668589122527022
Sc 9.66394940972615 13.055073609129849 9.195555335774293
