13
Energy = -62.41144953 eV
Sc 10.616249911827481 9.281129684433823 10.417223489791791
Sc 8.274113163422111 11.191356569642444 9.72342718159831
Sc 10.524887486047776 10.519236319709469 7.611206170959568
Sc 7.596734121947829 8.595355164238722 11.280445490163304
Sc 9.512701742132329 6.311771632546339 10.301844809269143
Sc 11.289314229053728 7.540648264657763 7.93335770731579
Sc 6.484420966501659 6.475887271244289 9.314472939723672
Sc 8.546480849376701 8.415715491154126 8.499649712325203
Sc 5.737939897337123 9.456095292385855 8.99837621459387
Sc 8.714784713574065 5.827924809724862 7.162573808144473
Sc 7.523870282093524 10.665699920459064 6.682851684810887
Sc 9.427029165648438 8.363703262806688 5.61805650757721
Sc 6.415443198061641 7.718355023004391 6.493789472025971
