19
Energy = -93.84324649 eV
Sc 13.588285829075884 10.211617589930661 9.9172513996748
Sc 13.326008484293101 10.565394866805883 12.86588669648947
Sc 13.912005279573535 13.129797969539245 11.146442008856058
Sc 11.882219849105038 7.6914008271492245 12.551959569471691
Sc 11.488310469373625 8.11527125276938 9.297309826744772
Sc 11.487801117738465 12.949000365931076 12.939516520942705
Sc 13.157592136608995 13.222219576414533 8.18609675658109
Sc 10.569049520751765 9.800770153022174 11.664942910365804
Sc 11.148239743821703 9.999804912396717 14.671264771664616
Sc 11.800885605118939 10.585184815528011 7.4602182233736904
Sc 11.337869787446929 12.07229510021462 10.10551583943094
Sc 9.080536747200702 7.356730208374698 10.809378412201925
Sc 11.416852694716738 14.836935540762381 10.184559108987983
Sc 8.785359348690102 8.443253047850412 13.592510917340302
Sc 10.136328263000363 13.206830285354645 7.834244140033669
Sc 8.88656615842422 11.546174455654855 13.32427905803779
Sc 9.216280382723099 10.136544924623294 8.836452808484331
Sc 7.471606907404145 9.928837698915967 11.265426291522182
Sc 8.61494272947285 12.884485654103635 10.61081576346231
