15
Energy = -72.35063541 eV
Sc 11.169087268291664 12.001143314124679 13.810690838496715
Sc 10.15190113267724 9.01950582204611 13.76579106090821
Sc 12.953663483266908 9.760971873640926 12.56563280473041
Sc 10.392449995000549 10.639057501649983 11.29053347163094
Sc 9.76514602168069 13.545288641449769 11.480262232457129
Sc 12.74275898972444 12.559375098132453 11.152432811053924
Sc 8.160373250979669 11.38124254183378 13.093840971935721
Sc 10.673991718740812 12.298040543039923 8.706737924140638
Sc 13.590391540714544 12.307909737942794 8.012446511208129
Sc 11.058356951897027 7.731745349000991 11.054294817375652
Sc 7.867565001611336 11.513048267476513 9.968788342711717
Sc 12.734346471655345 9.857275405490917 9.40614972445421
Sc 8.115274914691986 8.734992235166525 11.37715649986123
Sc 11.902250057942487 10.493852114964639 6.651504328382031
Sc 9.660557162967152 9.251270868348984 8.686786057933578
