11
Energy = -50.129316 eV
Sc 10.782047725576655 13.280241791499343 9.974449234558815
Sc 8.35973449099484 11.34218422012163 10.449975667286948
Sc 13.092877522836348 10.901384307728177 9.053486722280367
Sc 9.442490873527996 12.58003686172605 12.798106200665826
Sc 10.300376501812126 10.904371621202264 8.138769938048453
Sc 9.204694046776448 9.350968057239804 12.609761181046892
Sc 9.636471789371098 8.506868132808368 9.786024733387029
Sc 12.436496893717104 8.291396524650525 10.79126333952081
Sc 11.184408001849414 10.852671278320114 11.21419517291252
Sc 11.977051767024703 8.406316197741033 7.840735813102725
Sc 6.8514633187973 8.853703779599252 10.836650070129245
