19
Energy = -94.01484543 eV
Sc 11.846291128304548 9.649705613471173 7.250894710179094
Sc 8.800668524375652 8.778899778804785 7.316551903855878
Sc 9.527755671320454 11.832642876834205 7.30339309175857
Sc 10.917592583438894 7.286668103408228 9.076661847988944
Sc 12.169340723589592 12.34518713503086 8.909414999778335
Sc 13.111036932772388 9.294971050493121 10.126997045639422
Sc 10.108271651469563 10.068913443075079 9.589060363888018
Sc 9.20695250722785 13.080705515899357 10.206664179991163
Sc 7.2738760126952595 10.794344355271392 9.152655331577009
Sc 8.13249861047897 7.970459150581194 10.26468395393305
Sc 10.733220959160624 8.225103792302894 12.08990001843682
Sc 11.91982429287876 14.236553254300919 11.59162484709951
Sc 14.129056494204745 12.01627582752558 11.393933107244628
Sc 8.259283493103094 10.556153815912774 12.139838804172976
Sc 11.347195022883222 11.42810769826518 11.830311334761632
Sc 9.666029722596193 13.195985507518493 13.38767377826983
Sc 13.262109074365773 9.709174799070954 13.273122955339494
Sc 12.591435865310014 12.655343115012368 14.161448740829703
Sc 10.508930727977182 10.38617516537421 14.446538983409008
