17
Energy = -81.66709605 eV
Sc 11.05152995056332 7.304275838534053 13.310332410884815
Sc 13.221096391700128 9.428140427996045 12.334870498237178
Sc 14.499153366699266 12.079697141233655 11.321410969498167
Sc 10.190650496854461 10.127058993975876 13.359752144173916
Sc 8.29517951175872 8.068459420190518 12.093328352511792
Sc 12.700860773864273 11.970235222884202 13.906018761355563
Sc 13.353278948141947 10.037995212444004 9.293431975933386
Sc 10.759743235328854 8.692584248544707 10.613478697985059
Sc 13.048261616295582 14.499351249004519 12.553890247924532
Sc 11.579080874792133 11.849745145202641 11.100172083211735
Sc 10.084141343532798 13.651954442490883 12.680011165241691
Sc 8.146308903133514 8.753712672792544 9.057762931364758
Sc 12.663271881517682 13.026746660698857 8.699340795583185
Sc 11.455761139559677 15.253779750635594 10.455953196034816
Sc 8.561231538135441 10.91144066863208 11.018720798383299
Sc 9.573838942049704 13.411086565447214 9.409088187858442
Sc 10.516277881790701 10.76460429780926 8.338317671835991
