19
Energy = -93.31292668 eV
Sc 9.593376123923784 12.074327597423663 7.520019452968427
Sc 10.763047460906078 9.383824537830561 7.377634224671816
Sc 12.702283949277687 11.694591703353192 8.729666080446188
Sc 7.6574281623315645 9.897625619163147 8.778802076440535
Sc 7.8347974927058806 13.049277422721303 9.786733236325988
Sc 10.643588713692544 13.668876839523458 9.767802620625643
Sc 9.65739452482011 7.428923242393888 9.324442533559143
Sc 12.84419296731358 8.820315427041683 9.92818310466976
Sc 10.106689334223658 10.3393257590671 9.985638419493128
Sc 11.936926808501767 11.26227374572273 11.698116906727845
Sc 13.28358002444469 9.226097324118733 13.19634095869558
Sc 14.710116233309511 11.219765069421948 11.45391546664406
Sc 8.167535218944115 11.251681539293797 11.951015094489199
Sc 8.01198704185099 8.387075656899853 11.667753148156837
Sc 10.105822497286685 13.365438324729988 12.653879199636073
Sc 13.089269558462883 13.837754863663555 11.546700659895038
Sc 10.83763146024101 7.956675491338134 12.016604526078027
Sc 13.150399704340735 12.17651063678536 14.048519146179588
Sc 10.15552861106941 10.211235087154858 13.819829031943646
