15
Energy = -71.10644466 eV
Sc 9.021436789123479 9.474915564014724 11.566650272990271
Sc 12.005885755231791 10.201214661954305 12.09459092030913
Sc 7.436602759999811 6.798559892951928 11.763936335883395
Sc 10.757346510126558 7.14176187743284 11.591559337580708
Sc 6.249121173226237 8.928066225499604 10.07680696444026
Sc 8.743928987561583 7.467014961616112 9.244819275560024
Sc 11.232417546214506 9.320319774424776 9.425247055688843
Sc 8.419351224131239 10.581590589465304 8.49331696687271
Sc 13.180307261443998 11.493642249727529 9.558412043751423
Sc 10.46408715739976 12.066820887325346 10.38218740121224
Sc 10.94666886588673 11.624875420812753 7.267183004185911
Sc 8.371143452790895 10.93064011058503 5.55815999659456
Sc 6.824192570429257 8.554244396584238 6.96815433177225
Sc 9.869979703349996 8.819292641650984 6.59151836138927
Sc 6.106034971142956 6.225545745954418 9.045962459828328
