18
Energy = -88.1248139 eV
Sc 11.084144267070037 11.057818171546373 13.077718382594679
Sc 12.654469593814843 11.963197670492804 10.228913992499148
Sc 11.334059259607665 8.947520271477249 10.685085028026812
Sc 11.723778383148337 8.027275799908017 13.420106643958102
Sc 8.17819095055711 12.249918788525141 12.796293341664084
Sc 11.073473830044792 10.349577893101593 7.770828057665274
Sc 8.627469866341437 9.218857292907412 12.307713479110957
Sc 6.664680630988121 10.858476222810257 10.445327758382746
Sc 13.458557365595015 6.946611472151984 10.940165898058922
Sc 13.794780509899333 9.723304670860724 12.13585470705277
Sc 8.618592112961215 8.789394881675673 9.056300323752817
Sc 7.87938739809597 13.748827370879274 10.042938942313032
Sc 11.61372096830948 7.288044212944288 8.31699422037985
Sc 10.608503491837165 13.860715409204658 11.577204373290767
Sc 9.585012358049614 11.343599018066623 10.338135759647276
Sc 8.140616345164295 11.58009034024977 7.770342358265464
Sc 13.704377946584389 9.202693055033007 9.026765139845688
Sc 10.567493832326175 13.443712211853082 8.468376267604784
