16
Energy = -77.42880518 eV
Sc 12.42326881543444 9.585634089115949 9.856563259054552
Sc 13.158718421433823 8.759757957483577 12.61826384898033
Sc 14.799477727031952 11.425617676953701 11.181059368248514
Sc 10.85348792088101 10.335659834344455 14.488902741907237
Sc 9.796061276070336 13.26077200019291 13.146877106670761
Sc 12.82215443671209 12.444355177170985 9.118071486848692
Sc 12.103418670540904 11.604888327471517 12.23172391849847
Sc 12.04608037801518 13.163079336099837 15.042984503300035
Sc 11.40758039887545 14.221466393527344 10.882137141061902
Sc 9.884679793440139 11.562977064719352 10.415887569769309
Sc 10.28417977253796 8.89662597981221 11.836345237729692
Sc 11.99116678323175 15.66562929101402 13.246023202611873
Sc 8.241324158077468 10.672703296742595 12.91594792284374
Sc 14.240818788317798 14.714873733219806 10.461221311615907
Sc 14.088001477329213 13.702150478531758 13.078781734491642
Sc 14.072256815068938 10.99117180194593 14.352770202754899
