16
Energy = -75.30942907 eV
Sc 13.246515037322846 14.57370248561397 10.523190184988035
Sc 11.588206434182588 15.043276775508717 13.251717175648201
Sc 14.040048115697047 10.664477085801332 16.86478292522571
Sc 12.827500485164732 13.035647099201325 15.441860415747573
Sc 10.646972672384853 10.349066204979625 11.581981644927561
Sc 10.158387403376985 13.303975816465 10.953783518830583
Sc 7.919905410005015 11.472167911899774 11.55807158222669
Sc 14.499570468339625 13.246448304735429 8.10856507907001
Sc 9.994055540946457 12.369764123892134 13.860158148614039
Sc 9.409700645422301 11.139763151051577 8.976140827888635
Sc 12.667380812666186 12.433268035446533 12.51540542305421
Sc 14.709175670830618 14.391374872070871 13.215312257719798
Sc 15.206004818505034 12.344817885318669 10.928420476471869
Sc 12.266316286879977 10.224431451129096 14.623986989817169
Sc 15.028298891580262 11.459668048378562 14.221454395293112
Sc 12.451953580626395 11.67870556543119 9.422109174425364
