16
Energy = -77.36922454 eV
Sc 14.534695666997905 12.97601435535869 13.618870092209448
Sc 12.08757451135446 11.76356711245632 14.929713772135063
Sc 11.634179962397338 14.35358068930858 13.190804869887787
Sc 14.265925372841844 9.944452007591337 13.714711394364036
Sc 11.411408546378588 9.093387869215318 13.703120079062597
Sc 8.666023785048342 14.699877947816862 12.241439438320844
Sc 15.329488604962458 11.319162168610884 11.199914913606511
Sc 9.528317996195993 11.9913831788811 13.196357277729183
Sc 10.729165116736187 13.72191614598856 10.29115694410167
Sc 9.797493873380716 9.663515648592307 11.338931117541112
Sc 13.428214307826854 11.714936109718062 9.000330637651516
Sc 8.23080626033459 12.178843673533942 10.555489749483984
Sc 13.789001792501901 14.024565141636499 10.912544488917082
Sc 10.60031404893183 11.060944257648382 9.001921925070942
Sc 12.234780692740557 11.645368504739345 11.8975292427819
Sc 12.85524037765576 9.22765281217732 10.810445093285034
