18
Energy = -87.62446437 eV
Sc 8.916381173867318 7.580047387276431 10.492267743825243
Sc 7.5372828270705154 9.31321226289924 12.552751991081259
Sc 11.861913129099852 7.246577434326842 10.294232293381242
Sc 10.476283061676181 8.392181529213026 13.018581662943319
Sc 10.485354431639493 8.796573945733902 8.227742910811644
Sc 8.239461664092286 10.49615657771284 9.857352664293357
Sc 6.460615122653412 11.976615437016925 11.710369574966245
Sc 13.385582042581511 9.815992807693439 9.007249830167257
Sc 13.496297127548042 8.789189031432807 12.242304236762516
Sc 11.183543269519403 10.173215126618114 10.873842912154261
Sc 10.767065683192072 11.933110767658464 8.386589610197978
Sc 14.079836214198266 11.570017882695716 11.405643095490468
Sc 12.109656528192996 11.007613804698872 13.64434039229827
Sc 9.222245511037375 11.708589763049634 12.653958437128068
Sc 8.751192277767865 13.468856507636621 10.169459124864316
Sc 11.59585240180123 13.28150110357395 11.153438258600632
Sc 13.468822636054174 12.949816894891574 8.824410050200568
Sc 11.152526378121681 14.833925642212426 8.667620030173786
