13
Energy = -60.97813309 eV
Sc 14.63461871153861 12.335720637396495 11.681120331334395
Sc 14.64415119218594 10.484574434572309 9.371606471782345
Sc 12.347654712473066 12.328565227080716 9.781412589748783
Sc 11.830069690600535 12.549198669851664 12.89583749284932
Sc 12.816932194038928 9.900273845388266 11.733162110397513
Sc 11.83867390820198 9.344890299667782 8.904385243252031
Sc 10.188321208724615 10.90747895067893 10.951246592812764
Sc 9.884359670851639 8.16181892646065 10.975693065700618
Sc 9.913652869071937 10.223330585104508 13.611003755876908
Sc 8.750431665286513 12.879749777586337 12.585990272871529
Sc 8.774747860966217 9.835686432877994 8.632851427370785
Sc 8.569728702962896 12.73999594232373 9.546623134538823
Sc 7.480500169593759 10.453774986981307 11.302235609556096
