19
Energy = -92.12290654 eV
Sc 15.323886072789865 10.01758331547053 10.014133014044502
Sc 14.448666049588388 8.465772096594566 12.812308023815199
Sc 11.790800722157735 6.853136415666806 12.677476335348603
Sc 12.824201283329312 11.739222961052869 9.20601095564715
Sc 12.52021845853188 8.951781365299697 10.645333894664262
Sc 15.406967951788543 13.035619912223687 10.188795505760408
Sc 13.820096231753123 11.44439314273798 12.19181738076094
Sc 10.148599035115872 9.986876206758573 8.727569686603216
Sc 11.746597655407717 9.649719325850869 13.606060658648035
Sc 9.563238174933723 8.660481532304855 11.434409635218886
Sc 12.774830664799437 14.079452479831328 11.14592440370348
Sc 10.613305746819144 11.609737270827903 11.350062657744958
Sc 7.8011085881819895 11.132222356756584 10.41384034364814
Sc 8.816719526442625 10.483110157441798 13.650310697566397
Sc 9.767741785297035 12.982382592661768 8.763974982535697
Sc 11.056370002390226 12.95735881699453 13.684192726275919
Sc 8.051211825302175 13.098655433836695 12.640925499542242
Sc 9.91893008171101 14.750290164863898 11.245329783422756
Sc 7.270905271569259 14.161317014051024 9.998302740016994
