12
Energy = -55.51889623 eV
Sc 12.713881002527584 13.869559009581781 9.632270533871525
Sc 10.092922905438991 14.28933381793462 11.013604341512128
Sc 11.822107753731101 11.926875877333003 11.763409714516744
Sc 13.353162347382273 11.014143182197632 9.067527454470538
Sc 10.574089654657785 11.939799566050857 9.144488339895366
Sc 8.779466901172459 11.698130536769916 11.963300730694039
Sc 10.193472224130163 9.262581441857243 13.043350391048712
Sc 12.037519778190136 9.134526002728968 10.839294756642344
Sc 7.540986070997584 8.697643627996294 12.161642654594127
Sc 9.112997338666677 9.63413326427963 9.985335089778383
Sc 11.203286077351935 8.708674852851226 8.178906475828294
Sc 9.857745951870944 7.074049926342805 10.75381865141309
