11
Energy = -50.37703029 eV
Sc 11.980793663163436 10.19087406854096 10.514937403091883
Sc 10.756413059478957 11.143765262407275 7.933271123202161
Sc 12.350656931952233 12.920960127009842 10.494922814738997
Sc 10.545238019863685 8.353808896846784 9.045866956611778
Sc 10.963922777549078 7.758425442415819 11.965474557250813
Sc 11.136874604300385 11.239720787390537 12.953915073850306
Sc 8.99334139940631 9.699890571709831 11.462686874220955
Sc 8.829532128265773 8.412097226385452 6.8916273392856695
Sc 8.077381732955185 7.321403167398083 9.822097892057117
Sc 7.956162265019685 10.271140434222072 8.82117569319657
Sc 9.589119458530346 12.359998971815426 10.491436321438899
