12
Energy = -56.3741783 eV
Sc 8.921723471373245 8.785120872234433 9.190330927056452
Sc 11.382641390824963 7.095213291347594 9.651898265404594
Sc 8.268318373136756 11.906700897410184 8.892835545841432
Sc 11.099399242687067 12.827517658677193 8.548884033639567
Sc 9.859043849862424 8.250788792239144 12.05308615494871
Sc 11.934302401043968 9.698031824103092 8.430986274874284
Sc 7.846771373670289 10.630561669607255 11.579466772596156
Sc 12.660426507900864 9.168905525851812 11.414745643779078
Sc 12.728514348551023 12.288127939816674 11.06744249453395
Sc 10.387022640409397 10.800628518166482 10.533394273731263
Sc 10.921955236599029 11.041923346444047 13.215261895497951
Sc 9.796272585779066 13.389974226002103 11.174990615548033
