16
Energy = -76.94842771 eV
Sc 12.808366809822985 11.508496341816478 12.956753883766412
Sc 13.949333370235708 8.53651715637892 10.995235837494755
Sc 7.620675079457154 10.329402987467358 12.454508668185849
Sc 11.468127220539477 8.188974920899623 9.127055324564942
Sc 10.630662999548424 8.908007462313504 12.241432655958544
Sc 9.940967076851452 11.43566320411058 14.107727807809628
Sc 14.971503565094725 11.424141075430862 10.68283021286324
Sc 11.019626432167527 13.949070711235734 12.910670940274223
Sc 7.8964360984949975 13.30533042067898 12.805948741542823
Sc 12.526242104619834 13.219227033649958 10.042658509024351
Sc 12.227902935698264 10.54467020157965 10.468664780590762
Sc 8.664711755809135 9.264324197005207 9.865796961667828
Sc 13.709535873196481 10.157017754085498 8.261093880544754
Sc 9.828938815825268 11.815154125328771 11.215688075782237
Sc 7.324029049128348 11.924970057754969 9.838310108782157
Sc 10.424515868654167 11.048568051846889 8.264843288174749
