17
Energy = -82.40290784 eV
Sc 11.255851150950733 8.196800606460874 12.570949011170924
Sc 11.82110141658992 11.165630172660729 13.251547184368466
Sc 13.388960794291005 8.775120466126321 10.638134629967055
Sc 9.144799462996287 9.836899281328918 13.901065689718948
Sc 10.55221993710804 7.627151890883324 9.680456251689487
Sc 8.362590238202522 7.892348315069362 11.648512048780832
Sc 13.108172419617508 11.681437280250787 10.55247220471498
Sc 9.07820113497334 12.668045581775381 12.836195076284653
Sc 10.805612437924124 13.492519424742893 10.361556118701726
Sc 10.057298331339988 10.494934560748542 10.935674504538316
Sc 7.008890889157837 10.554231671033948 11.850195628469367
Sc 12.74360020123765 12.791883704523432 7.909692695928608
Sc 11.81566453652009 9.973904790291598 8.292869098169644
Sc 7.882939014270971 12.672878999546082 9.991020602879464
Sc 14.671643208340335 10.429646268560841 8.439248994085114
Sc 9.799276326606215 12.030008697285819 7.9331485311301
Sc 8.06737409897017 9.598312414025399 8.980165984078711
