12
Energy = -55.28389657 eV
Sc 12.12877361186263 12.46464760067696 10.311046971608869
Sc 12.440290075975216 7.788490875677444 12.908500912638326
Sc 10.75064604996915 12.677790707408148 13.076981266040702
Sc 11.97267914580657 9.281561714319208 10.332162889703726
Sc 10.351754711913307 14.76793026626071 11.04167673196429
Sc 10.099108553039098 9.617838530499602 12.484306510299374
Sc 9.024857377302483 9.040308860184881 9.637096129323742
Sc 10.679270196388497 10.926605760061971 8.043800773500251
Sc 10.33066588802792 6.911478426539524 11.10279738758544
Sc 10.23389930818962 13.777237396101413 8.308067438335561
Sc 12.993286519267237 10.681502220667207 12.80776892827957
Sc 9.292567386871067 11.999415346870288 10.525094741952435
