16
Energy = -77.3370259 eV
Sc 9.906046921018895 10.616743467715867 6.8700068883024485
Sc 11.116533371319257 7.939878773820157 7.385217097620525
Sc 8.288378609927651 8.188128525584572 6.221219205667097
Sc 6.8770947834545195 10.819280838988236 6.950398661981974
Sc 8.564708775368954 12.52345595674965 8.736405218631537
Sc 8.980225251314842 6.423295077320488 8.712960024494176
Sc 9.39265612491669 9.599923193726386 9.641799742116973
Sc 6.867577437864569 8.508395098149995 8.805434264219548
Sc 10.204610950880982 7.125186204340891 11.36884789207062
Sc 6.348816917903998 11.139881181470377 10.08347818322457
Sc 11.839468148149543 5.75225279396301 9.249836502359722
Sc 11.440742411986486 11.566009730036034 9.56050125475165
Sc 12.347155044702667 8.627973643082628 10.04620328585083
Sc 8.87843157511785 11.870760298149591 11.62758097798491
Sc 7.732951448969466 9.055061531656875 11.962870043968595
Sc 10.79692452559865 9.82609598374025 12.35956305525029
