10
Energy = -45.48622178 eV
Sc 7.6331488100285405 9.089915688397735 6.889792274445412
Sc 8.237320868801671 6.189560383185971 7.37447221876807
Sc 9.5587704835655 11.326492050477263 7.846154128144933
Sc 10.18113884116855 8.434468021533302 8.33649889723204
Sc 7.9618486124830286 9.707995026412643 9.80472742424692
Sc 9.898361797190258 11.957611337013297 10.765145923476497
Sc 6.041070212763689 7.446899617230115 8.833532514385523
Sc 12.105650959537563 10.689748718168664 9.310418175639827
Sc 10.502565032713541 9.053684694874573 11.25614929793293
Sc 8.58856773015356 6.812067811112071 10.291552494133615
