11
Energy = -50.76509403 eV
Sc 6.657464055752469 7.9203680388437325 7.198406286465094
Sc 9.629498994864122 8.611206729138717 7.560226108399585
Sc 9.36912850361722 7.948547013880645 10.54232452324581
Sc 7.768166263633699 10.56681725795973 6.084828004465059
Sc 11.519408269624309 9.652349985457207 9.750708978390842
Sc 11.490762870364057 6.657120599283168 9.038179758873547
Sc 8.512023336379544 5.972120069784138 8.669037294698551
Sc 9.037272182459251 10.771644578494572 11.166377751540315
Sc 7.317548576297615 10.10270245319078 8.916257018452328
Sc 9.664496692950244 11.5993284497158 8.279101171862361
Sc 6.490182053024835 7.653746824251758 10.250504701541608
