11
Energy = -50.47731769 eV
Sc 10.581948715195939 11.029729836989894 6.668461933359855
Sc 5.738158702660682 8.78269047449196 9.622926062023765
Sc 7.597536089567659 6.985343757003997 8.004889790711848
Sc 9.946667428186624 8.796511995893429 8.340511384229803
Sc 12.54388008590692 9.745456297392476 8.852732896502602
Sc 10.181217449059131 11.575911094845631 9.479241539171086
Sc 7.69990343809195 10.455782591982452 8.143325751065804
Sc 10.800700962854485 6.60001415751362 9.671843177881573
Sc 8.27936081148786 7.880242355413134 10.608375724769802
Sc 10.677276964692057 9.309430619028367 11.271558935786476
Sc 7.779804167468444 10.665341634616635 11.16258761966912
