19
Energy = -93.16718529 eV
Sc 11.039365996547705 9.141533545835212 9.109548118688318
Sc 9.99081999016127 10.269021859992892 6.6318973926187565
Sc 7.829331593542745 10.270950710435159 8.606644155655935
Sc 8.761621287834556 7.483063574246443 8.927932732866337
Sc 12.290693466165937 10.32701589190807 11.489710180679637
Sc 8.939294020610339 12.8617966034642 7.843047643427559
Sc 10.726832131592646 7.702862961784949 11.678379323683222
Sc 10.073790877548237 10.223129598467235 13.464893317002424
Sc 13.042416845091655 8.78235841177405 13.713936373906847
Sc 14.903517231649229 10.712524164635592 12.345588345537879
Sc 12.602236890270989 11.8163710287173 14.107042684110102
Sc 10.034308991242725 13.288451968864118 12.894566023404902
Sc 13.763278908074073 7.998238353558062 10.9130656111449
Sc 7.546123953615693 12.64704288611897 10.819641122386722
Sc 8.174319373197394 9.254699877091419 11.292915004005174
Sc 10.108589817119192 14.41970025509486 10.12113343294586
Sc 9.916874918392777 11.52591683514639 10.4411853803807
Sc 12.598201738786177 13.251065998349178 11.469584327205382
Sc 11.924881326746528 12.065249889488173 8.487925647228533
