11
Energy = -50.12948207 eV
Sc 11.412163142687762 14.396528608536066 12.619130598187239
Sc 13.253041335562537 11.99684320654415 12.406553463290905
Sc 14.133827740983238 14.885518829385067 11.508603064769602
Sc 13.575944400647948 12.667785479801335 9.577833143520634
Sc 11.845084164360854 15.108198849535514 9.754276862123572
Sc 12.637078185613836 9.871011968538397 10.453360574985949
Sc 12.153583543722212 9.028716126296139 13.316019717027787
Sc 10.426503932710048 11.44827727278562 13.52148304357083
Sc 10.865530848123154 12.232240079788427 10.569102487579942
Sc 9.89500608732895 9.254958069778898 11.568976760335461
Sc 9.483572371109144 8.79125726186083 14.385996037458384
