12
Energy = -55.20659998 eV
Sc 10.600902609954272 9.357786185714403 11.759306269211585
Sc 13.008271785679781 12.557679429351333 13.198542583805738
Sc 8.753047567173008 10.558848853090876 9.714605094459158
Sc 11.319260645855836 9.38472427035096 8.816358755025442
Sc 11.016383655028536 12.324549882339818 8.63649134779878
Sc 12.934144015277528 11.179424005583739 10.64851244231708
Sc 12.622191765026699 14.101827044769324 10.650608106502533
Sc 9.486825749276433 10.536735591008412 6.849838120610536
Sc 13.254828067560606 9.57425254347939 13.188569424912432
Sc 10.33467293449974 12.43333182976237 11.746726977401664
Sc 8.144934296987284 10.603209056405142 12.781589328921791
Sc 10.74430305468402 10.789710779726557 14.276168783314274
