15
Energy = -71.54297822 eV
Sc 14.413417694849603 10.205709537195997 9.344111167186279
Sc 13.406795705134002 8.960475409337752 12.180599148754752
Sc 12.537808704967823 12.488232825004003 8.759964208429249
Sc 11.760973733571163 10.523220811287882 14.166824707125249
Sc 13.30248246094211 11.927847046864734 11.619374818008447
Sc 10.984986948878124 14.122253825321241 10.804839311976254
Sc 11.693343035516943 9.904127439170301 10.052973683540477
Sc 10.288147917315708 11.671841549050864 12.011834027914658
Sc 11.588527961545495 10.087895350194952 7.2410347019025645
Sc 9.578504606034434 11.906140904053883 9.024584413733043
Sc 8.051103561230487 13.325731555487327 11.547186375377978
Sc 9.277054231543742 8.801836309891142 8.970280133992599
Sc 10.092917300330994 8.69569469413414 12.387632518946628
Sc 8.581706537476308 10.763477246273673 14.036443752703649
Sc 7.844296153772811 10.35274222383628 11.087309120919508
