14
Energy = -65.96408928 eV
Sc 10.522459096637636 13.476978116009835 8.675813698731075
Sc 8.168548500265542 11.367931318747814 8.101854345572626
Sc 10.858148312952997 10.740895446696975 7.648635419287453
Sc 11.427548511190704 11.084705075579718 10.711519332544091
Sc 8.667098036173215 12.71902473472834 10.657379631166444
Sc 11.242737133649232 13.851978698844354 11.78504251319677
Sc 12.00855932441142 8.481227546330947 9.080778873085109
Sc 12.569177316378749 11.23515767836844 13.45004900006601
Sc 9.325105446092794 8.272763528832563 7.9524840371339405
Sc 13.040187147621962 8.490870213514091 11.840148657195805
Sc 9.698120525006148 11.81886776072314 13.238902977065127
Sc 8.875820095156909 9.628089529717862 10.46094328169948
Sc 10.531774330375223 9.025126311802342 13.0127605163969
Sc 10.369772723094275 7.04778780910943 10.838250991497533
