22
Energy = -109.73543028 eV
Sc 12.25369930633118 8.748186667439159 9.356342592153961
Sc 12.1666075705582 6.908674828416637 11.692704032058156
Sc 14.069172944435467 9.39536641613961 11.575384591603816
Sc 13.632097615506769 11.207094950617579 8.709871126694436
Sc 10.31132242655661 10.021377780435653 7.6216377884253035
Sc 9.575499091335573 7.8085970455846105 10.148304547565564
Sc 12.493961973200308 8.520206848065502 14.218888975414318
Sc 9.709993055896918 7.503206596931154 13.326233138036962
Sc 13.575125075059434 12.243529498601614 11.466631909000071
Sc 11.482711371214073 12.95492961907939 7.11372207823692
Sc 11.0106991115495 9.86049545754347 11.978740152087779
Sc 13.085088591384894 14.24180755726478 9.309778117322203
Sc 10.885701124530357 12.029614598398647 9.910443725680365
Sc 9.976575416960136 9.994115443856627 14.998811308203276
Sc 12.42380228994356 11.711830464686939 14.062585869176088
Sc 7.966257418455127 10.073172315437679 12.577833945380739
Sc 8.267407364784694 10.356331366569236 9.717452957418644
Sc 8.581025185507954 12.634781805616583 7.830044214950991
Sc 10.133607616419507 14.83695274033489 9.172172049531897
Sc 11.501897717362 14.257938895807326 12.004753600273139
Sc 9.682988245325312 12.375868061817703 13.23070745820562
Sc 8.112471146507882 13.046491621938177 10.894413035587448
