22
Energy = -108.62781622 eV
Sc 11.742305396324538 14.996981774198138 14.240777621453205
Sc 14.234314431126961 13.076371547826922 9.953658409646327
Sc 12.97348117268355 7.947597142357549 10.675513925469467
Sc 14.164201312907254 10.545780648612862 11.256505421374287
Sc 8.495061911163521 11.010787106473051 11.714964874010285
Sc 11.348157114853821 9.73775314278744 9.260065815037152
Sc 13.689556050407063 13.208495889269264 12.84112638122532
Sc 11.489744139394825 12.568198599637414 8.599403112252666
Sc 8.805058558159434 10.888819113574918 8.901034557775498
Sc 9.065235220537076 13.660046553419933 10.424109960950576
Sc 9.397974098141496 16.091008859902036 12.489795978119755
Sc 9.368932737660469 10.058524766497648 14.241960900258501
Sc 14.446100556474713 10.508758191756312 14.161692481684769
Sc 9.75629369821606 8.425914455071426 11.255399841657717
Sc 16.355679693020225 12.323129144077184 12.703985932077263
Sc 13.948134682298758 10.428553885967812 8.369367325985218
Sc 11.887298491440548 11.912365433835815 14.853477240688601
Sc 11.358070865268658 11.741022504659979 11.545407419639401
Sc 14.76808282375481 13.197059787380145 15.412637759932693
Sc 11.856242006483614 9.256058374841535 13.129803283122438
Sc 9.483204099227923 13.273065834266736 13.446999257122236
Sc 11.718556999038421 14.783163936220875 11.177560364131034
