29
Energy = -147.49136364 eV
Sc 12.226313979800793 15.380395600614385 15.339118771833984
Sc 10.57144321449879 12.698790703919778 15.465801430876386
Sc 15.223407466569903 15.056793200936944 15.21073291868999
Sc 12.037758896339913 9.924194597409913 15.241162925566607
Sc 16.6196596889516 12.492039281188463 15.348775465127167
Sc 15.058728891173715 10.026509486590605 15.127751266948703
Sc 13.965821378136633 15.953121941353876 12.582046092719303
Sc 11.347899939055685 14.217907551061261 12.712594141806333
Sc 16.399201529685772 14.06273250884287 12.473138292498943
Sc 11.22397859040683 11.231735667764514 12.65658257462831
Sc 16.303276491773865 11.034006529080425 12.41898891023364
Sc 13.73309581855996 9.332804828811181 12.466410204650497
Sc 11.939622541945905 15.463163059781447 10.044864406295618
Sc 14.903958833411096 15.135883810231638 9.768961009108681
Sc 10.280182366649125 12.8050409691469 10.002644316085448
Sc 16.366151702847247 12.604845212369009 9.535713462265948
Sc 11.753203022596374 10.048332682553529 9.946771769660039
Sc 14.740200738552023 10.167502078979322 9.682289137279495
Sc 13.63940377984263 12.570700464213838 16.67909077497051
Sc 13.974836019340021 12.595575086028916 13.984697910394331
Sc 13.825532770995233 12.657650722494973 11.097267374316719
Sc 13.24217105986606 12.729445226280983 8.440592842171396
Sc 11.142097279876603 17.128122084005902 12.761522109566647
Sc 9.086466482378459 15.442823331805975 11.288840480197653
Sc 9.259240719806835 15.401163577895016 14.403501945559743
Sc 8.48279140888891 12.816817785277975 12.851722588301563
Sc 9.069094758217762 10.126373687346083 14.313258054868827
Sc 8.895863744511892 10.206858223327108 11.194694755066232
Sc 10.83390930294293 8.339230618352158 12.607170967082908
