22
Energy = -109.1332494 eV
Sc 9.473838187963466 7.888198318660844 13.169971517229591
Sc 11.387310705397148 9.822698616545212 14.396720133086516
Sc 8.478826570595492 10.625697708324568 13.078529752447551
Sc 12.864918208096334 12.255338731071872 15.37869736652333
Sc 12.115223653801854 8.345313585869794 11.687587251699911
Sc 9.679774919599026 12.116615678193217 15.315124162074579
Sc 9.293347061632053 9.025583565606892 10.389837375882632
Sc 13.93876136622778 10.857767948302099 12.875249722964265
Sc 14.48819316566264 9.754089634804307 10.18913895567321
Sc 11.096166333160022 11.090207860855593 11.670082854070403
Sc 14.035862615456127 13.879830541700532 12.758918745528822
Sc 7.193705577905071 11.186643674937361 10.479436883441176
Sc 16.040354837925182 12.194488376870522 10.761448385152812
Sc 11.246302602987528 13.458363115705646 13.415594724874852
Sc 8.502763856589171 13.533461056708926 12.497048924942957
Sc 9.438691111306929 12.744889754402806 9.872781521252472
Sc 14.570472515665902 11.600211920391981 7.902637213737005
Sc 11.860485369704364 10.040022863110993 8.855906943623918
Sc 9.036532926042131 10.757024154986166 7.917507712689547
Sc 13.253973569508013 12.591011966854724 10.246318092825906
Sc 11.304330531089988 14.71977465687714 10.826129769212454
Sc 11.543964112332485 12.88967161358707 7.8894602117457975
