26
Energy = -130.16362693 eV
Sc 15.018240822794379 15.017937041559012 8.297826929781461
Sc 14.819493162010387 9.835579503648558 9.98564195153262
Sc 15.406704863645952 13.65084140169962 13.30102985275161
Sc 16.036178943044682 12.90822618204079 10.395518114705114
Sc 15.094869511266639 10.453772918241501 13.082781900050504
Sc 14.066869327489599 15.258831386958162 11.05431634390463
Sc 12.533749114588035 14.665309722304128 13.419301358682425
Sc 14.079201323805979 12.25847985443754 8.31071646978718
Sc 14.686232771527658 7.681350953188971 12.232804075138626
Sc 10.181926806542869 15.612802282847221 11.48617708217149
Sc 13.15901638819343 12.124262849990984 14.937488880226054
Sc 12.028058939819381 14.25014921079503 9.071828865276807
Sc 13.466091675042295 12.169765445482351 11.4183756755616
Sc 11.011938607726016 10.925283356161323 13.489004123172206
Sc 10.084795309000302 13.540283194490742 14.545480548016727
Sc 12.222491750308484 9.156784095833252 11.48735054652443
Sc 10.768475334883048 13.018247591169674 11.476345616962156
Sc 11.496476176937987 11.093923447136659 9.19256994704566
Sc 8.944886014427171 13.337035952681719 9.443288710618978
Sc 10.567606034157865 10.485015208068543 16.213112789940144
Sc 12.87984197465983 8.938662117740233 14.520462295714234
Sc 8.243774716498043 11.216419144021875 14.47687017854324
Sc 9.134725692407192 10.525813215280623 11.260540493493638
Sc 7.855930071018931 13.130646150122526 12.269870218223952
Sc 9.479578466571198 8.560116594465173 13.768583101450782
Sc 6.62092129747976 9.954090660405917 12.523811650793837
