20
Energy = -99.27062991 eV
Sc 10.255146849652073 14.518991335106513 11.969526330441338
Sc 12.729702253936313 12.460416525668188 12.18753895092314
Sc 12.037776261726863 14.080303688227664 9.506791303642979
Sc 9.836583451077498 11.717833846436097 13.54210849852469
Sc 8.984075918264512 14.349867207288906 9.136474932350568
Sc 7.606938255228347 12.98767819421423 11.568624119910194
Sc 10.149884637860078 12.004822337657314 10.403472996877774
Sc 13.066609791490805 11.112129676135128 9.229144811190828
Sc 14.229749791515932 9.661944380308832 11.785633447695398
Sc 12.493488178716534 10.010539796269242 14.295429306327291
Sc 7.688739253897362 11.566487345865722 8.842371881890566
Sc 11.293289745893686 9.698871355067249 11.615360119899028
Sc 12.17508619396473 9.474030928353878 6.9024956719660775
Sc 8.12863182718727 9.81360984944827 11.479551907899914
Sc 10.549656353837046 12.089865923792779 7.477246316773583
Sc 9.833167207248307 8.489350861098496 13.883116135045842
Sc 12.478602383773122 7.307237985478313 12.75329256812696
Sc 12.59759915675118 7.9700499463614065 9.604690964267894
Sc 9.802642877524205 9.227865842285714 8.711927597975897
Sc 9.87426951616429 7.169569665048951 11.106159776097307
