21
Energy = -104.00648325 eV
Sc 11.997874118898082 8.729495234498529 5.6025319818191095
Sc 8.28481130441733 12.209934756805906 7.04024797963338
Sc 10.7933287104143 11.427812659256551 5.5438078297283715
Sc 11.4352405323454 8.068922583915587 8.53017880619666
Sc 12.585737042574971 10.803941557848868 7.812934931358524
Sc 9.219327169991438 9.289535525353216 6.839054986317289
Sc 8.589900664482142 7.880588965047769 9.773354400858661
Sc 10.974772149664233 13.416919169991196 7.805816001224247
Sc 8.673832508404402 13.531475763466922 9.67661625548862
Sc 10.01278243074358 10.759644332123912 9.283054270273288
Sc 11.535949402820474 12.717868560083067 10.817193145310474
Sc 7.107322298385545 10.771215986897749 9.575179206773944
Sc 11.281759721450321 6.70968465400152 11.178893384056762
Sc 9.957119806901348 9.214308511864207 11.95940487784328
Sc 12.623028693241872 9.6558860426289 10.922142512322319
Sc 11.518223030954728 11.190258598081908 13.470318065734556
Sc 7.028089639114707 9.202159963496674 12.196681685538978
Sc 8.725931844396902 11.85229486345233 12.153115134983222
Sc 8.910263760895718 6.879789633332478 13.178569939869488
Sc 11.633591615140183 8.08210538844891 13.94541088850116
Sc 9.051480046732465 9.546523741373628 14.63586020813796
