28
Energy = -141.3260629 eV
Sc 11.735587164585823 8.09970941048723 8.407111966992813
Sc 9.598750475334334 7.469103130144453 10.694691498268217
Sc 9.2816205631774 9.780207664252758 8.758301287805619
Sc 12.554661088574685 6.855583253422021 10.903436149668673
Sc 11.995324102097877 11.234959500754151 8.204366407199382
Sc 8.400629633457523 10.328349755023487 11.711437725647045
Sc 14.3106598450196 9.280942595004584 9.834338422915266
Sc 11.524775310239193 9.779395740008999 11.085673932298002
Sc 9.330618575998018 12.429307735297371 7.215481061091122
Sc 7.043351549893947 11.751128816407954 9.320872599059124
Sc 10.21212722238061 10.482742752718092 14.180131451376038
Sc 13.928444037224791 8.695425340457621 12.812794049198292
Sc 9.93808402209462 12.575262208006082 10.304496007547202
Sc 11.103180063703253 7.7532700932214595 13.443257045534349
Sc 12.813949580261472 9.640638362257969 15.318842785798964
Sc 14.0755822100499 12.282078151805852 10.06978928212124
Sc 8.076628932469578 14.578416365462534 8.875965473365785
Sc 11.25664627654006 14.453737141485922 8.436304876536477
Sc 7.397914487940113 13.483185267852326 11.760964406587586
Sc 15.71929868154514 10.94647427090386 12.199525664230164
Sc 12.850450348032345 11.829912541270179 13.028364860320673
Sc 10.097737504452615 13.39263282067039 13.39525026158912
Sc 12.470421016671892 14.473685849375759 11.267583897859538
Sc 11.86755574081855 12.398067004203066 15.892196981714903
Sc 14.866430153206194 12.141909268045715 15.119633490775911
Sc 9.673083107436458 15.516303541439557 11.152311662643255
Sc 15.189835068837505 13.82513155034677 12.588958840101188
Sc 12.916657668572864 14.608284284040996 14.310832125129465
