23
Energy = -115.27672177 eV
Sc 12.098855743576587 16.5871806494465 14.05981673458818
Sc 10.299237256725057 11.279140245052066 12.265509486461253
Sc 15.98297875431239 15.579774334545295 11.101935815461355
Sc 12.593366456303169 10.796710421065324 10.293304743860972
Sc 13.11971105451203 15.234136162400288 11.633415661606834
Sc 16.240454320454717 12.785035877482947 12.37433722120533
Sc 14.551906634271928 13.237152519549102 9.807339439278092
Sc 13.611060376212096 16.372340201078426 9.20059654410635
Sc 12.041323020064027 10.76417139330977 17.07111095840246
Sc 12.01234462853641 8.627232118847022 12.461642597936992
Sc 10.403687436638277 9.05975961768916 15.148131636554059
Sc 12.403927259128302 13.714840294193898 15.419457113555064
Sc 13.905391541120657 17.863948201512592 11.866852671521386
Sc 10.464769921302901 14.264733224983885 12.996627672019706
Sc 12.341723376588972 10.84343234211198 14.370618674966913
Sc 13.458483646142428 8.536922620971499 15.230773342452808
Sc 13.218700735433513 12.6655113096049 12.536071360427192
Sc 9.832477282218019 12.128383442006948 15.31464228965377
Sc 11.073575132613497 16.959254948224817 11.106174298521537
Sc 11.353762559956413 13.650045448687829 10.061469573734636
Sc 14.675771168736212 10.010789607929137 12.48797758376387
Sc 14.888416701712666 14.978336252034932 13.995051334186826
Sc 14.945390721888169 11.809521423369272 15.100032066140576
