28
Energy = -142.49676435 eV
Sc 9.54947517339693 13.005817455722262 7.603418285554156
Sc 8.562433118288048 13.690000028735371 10.58494792619795
Sc 10.696485157150267 15.701001822154394 10.497135645660162
Sc 10.885523366427574 9.83441589797771 8.003932002245788
Sc 9.379547200769252 15.265991802337398 13.124315135269821
Sc 12.23815792617415 14.717555942583777 8.158805030878057
Sc 12.498565112308667 12.09338463536803 6.877608225473137
Sc 13.318692924821745 14.50363177319511 11.054624962110323
Sc 11.267475754261365 12.437593087182425 9.68194216331966
Sc 8.131143028456972 12.009919922975739 13.066954357479718
Sc 12.408442488688422 14.717591796752524 14.132010349263297
Sc 8.684256567897405 10.727474940661695 10.175506833066164
Sc 9.800362781268998 13.346118288235292 15.3009080552745
Sc 11.039481565016981 12.959457045466362 12.508274790542082
Sc 13.96370611348845 9.636839316086046 7.887663517848066
Sc 12.584144837463334 9.979580211050772 10.611333935235923
Sc 10.531416997402292 10.067677481275288 12.63085617056096
Sc 10.024983020049058 8.053575273671141 10.296309855154732
Sc 14.025460364374187 12.001243819677043 12.539005950410456
Sc 12.894656659683625 7.3584036915007776 9.388570200720876
Sc 8.263183534644067 8.542364581611267 12.938898306818073
Sc 9.152020768118486 10.383290980429996 15.360299100843791
Sc 14.351568013125213 12.217651620091752 9.351555627512859
Sc 12.049877704108347 11.38852135275948 15.007781363892674
Sc 15.208266531683769 9.168202231276329 10.763517403947352
Sc 13.511935032814968 9.21091238955212 13.492478862576364
Sc 12.007762375769614 7.04024598588879 12.209867356407454
Sc 10.91219201287497 8.118440605221975 14.757074791686597
