23
Energy = -113.68366129 eV
Sc 14.41492497765897 17.4837574075223 10.834175780288183
Sc 12.558281468409644 15.084224466552643 10.569325190391453
Sc 12.225934457145817 11.44677627954834 14.931370263369859
Sc 9.87947255229153 13.469106327042553 15.687212036705871
Sc 12.577066322121905 7.401019472598961 11.435363637377248
Sc 9.425130262624009 11.24452966378364 13.494311547418603
Sc 15.204854078755513 11.728480082908941 14.008900229074776
Sc 10.577886694666734 12.045908329789485 10.676572420998173
Sc 14.609324081239963 9.9310051066974 11.285348716249857
Sc 13.719878827678208 12.364742139462331 9.37511053497171
Sc 15.3498952367561 15.004213836815895 9.542228584340235
Sc 16.213137580708473 12.564044314513183 11.158105726161875
Sc 8.202719036080598 13.9783589554387 13.224450632300705
Sc 15.124468383414724 15.04691619201312 12.528887702126209
Sc 13.106136879617107 14.300903219297544 15.011825490695427
Sc 9.661786371839145 8.93668980899664 10.838596407858002
Sc 14.032486077872644 8.799848160059966 13.974406255902696
Sc 13.321889458981655 12.564559017577517 12.190718228097488
Sc 12.747386663610039 16.628191678682896 13.155347151210044
Sc 10.998196371497865 13.863512706736929 13.073639961485595
Sc 12.147352346436529 9.677351307980711 9.517501827351248
Sc 11.802678031077223 9.873369606350183 12.4581769136866
Sc 10.058006604499207 16.147964139311703 14.632982305904347
