29
Energy = -144.63671466 eV
Sc 13.107520223016943 13.58715260992022 8.71011749067534
Sc 13.258333848032605 10.368573731454214 8.856005398477077
Sc 10.454282500156696 11.719545828285737 8.888253186097392
Sc 9.969658314956229 14.404975099934619 10.13406263461787
Sc 15.053689970297876 12.25419730109798 10.445317265307155
Sc 12.689097836114222 14.874825777102139 11.212615000432972
Sc 8.069260775494502 9.959367014684128 8.50454796298616
Sc 13.654904777864619 7.178509464124031 9.331721877193079
Sc 10.769793086895895 8.701187992968391 8.849817123899598
Sc 7.7397437413446175 12.391263551164535 10.24256473828567
Sc 15.534598308102792 9.18830503113427 10.258980690785169
Sc 7.5965978904031495 15.183654373221204 12.006516434874559
Sc 12.207546524591637 11.9337853474917 11.642972703977781
Sc 15.410511159440725 15.346027168468051 10.560724077732091
Sc 9.425745102699846 10.08900665403554 11.14228257873121
Sc 10.365978308970783 16.22930223214951 12.503274277050348
Sc 12.529906695594752 8.870401955664763 11.503228209192244
Sc 9.518195169936691 13.031723614603353 12.828369238180771
Sc 14.850079385626955 7.171192787850977 12.221095298314646
Sc 13.931864550671168 16.562833028060236 13.11219032821549
Sc 14.898604935974463 10.320876039805222 12.888067704287774
Sc 14.862422449351394 13.708152972601011 13.045713879235818
Sc 11.95030178718021 14.347292388795113 14.14640351895486
Sc 10.64747619703033 10.13083532287541 13.982149950422395
Sc 8.930457382937496 15.223910848678251 14.814301942795817
Sc 13.016185302948326 11.611138630869291 14.94098637218983
Sc 13.11162965492225 8.56715385083872 14.551424855626847
Sc 10.251945452561374 12.408317776789955 15.885588407855028
Sc 11.520844282237997 9.843640627419695 16.790567011226628
