22
Energy = -107.80770188 eV
Sc 13.05527836208101 9.121415865015052 8.91574532283706
Sc 12.302018035712402 11.890795302773425 7.557410216476822
Sc 10.041146392292708 10.238054258739833 8.582862008937315
Sc 14.353723184361801 13.049910815061006 9.599893211772164
Sc 10.544855787079856 8.043326469258997 10.42246318901804
Sc 9.417230976199278 12.913707707400928 7.3398062617727575
Sc 11.462638278334216 14.130694005947626 9.281415914860334
Sc 7.844505285918956 9.182279065538001 10.700915921633909
Sc 15.04960716169283 10.363487767431891 11.035537228205047
Sc 12.204567252052739 11.363024089984094 10.563422117600574
Sc 8.860554749969197 12.623110850382828 10.38312770546998
Sc 13.598528097279921 15.391541131673112 11.224595151795393
Sc 12.808064924161734 8.703704796677469 12.129481204040369
Sc 9.760554611671296 10.597436955351675 12.181373717920629
Sc 14.75368914357933 9.982750469974851 14.060645787334638
Sc 6.884459463279169 11.250521287652674 12.728727506283017
Sc 8.970833310709528 12.946100761991335 13.834947670177746
Sc 14.15238402888489 12.650180005599742 12.664410271648467
Sc 11.352252853030357 13.737792846032681 12.280817904491986
Sc 9.809226912729622 8.033423588061188 13.266004559223097
Sc 11.825369835448097 11.016136961869133 14.111739682749125
Sc 8.696740822423273 10.298549528980674 14.984314860630764
