24
Energy = -119.8386597 eV
Sc 11.198822216130319 13.174007367564329 13.223331771038445
Sc 12.891193122714643 11.00640775429416 14.729825315629604
Sc 10.125586613281289 10.440591714379849 13.801161065725845
Sc 12.199059755152057 14.765520426332117 10.95783183995648
Sc 8.244161135784035 12.893062229637357 13.275331626847578
Sc 14.021390851988349 12.60708802015631 12.346649026338548
Sc 12.720655453253457 7.934460894987688 13.73024198595413
Sc 9.057357996302024 15.015911553591977 10.97194030953891
Sc 9.876249903697742 12.184575434243705 10.569478209088835
Sc 15.183640520202507 9.874099678235908 13.266517872440772
Sc 7.866603861431965 10.197503459643661 11.836361531412505
Sc 10.889932868846449 14.416935152716151 8.417792296657158
Sc 12.384985784458244 10.060563544085301 11.673785828932449
Sc 8.15582578958576 13.616728823407003 8.231263189491468
Sc 15.249270912767887 10.59554678437679 10.337837882997032
Sc 9.82462773415607 7.823868400487186 12.492313640931757
Sc 12.859848453713568 12.283081084553698 9.397149291013486
Sc 14.659323983748047 7.810560551546749 11.178521034895788
Sc 6.7343222278351975 12.877811865348653 10.74584852967644
Sc 10.46267666377271 11.352132570676696 7.68832604151743
Sc 10.005535777755291 9.071114313169918 9.766414836064959
Sc 11.965660735241126 6.9501371854901235 10.781509038185536
Sc 7.622425278006001 10.753507731048938 8.801317573041104
Sc 12.927138351657616 9.226997123500082 8.783440833721297
