29
Energy = -147.78885288 eV
Sc 12.724388319112416 7.126221291233962 10.97814696025934
Sc 11.351979898393855 8.1569895574823 13.688740070987802
Sc 14.168864974427384 7.929576486755607 13.789487197641693
Sc 9.603848618913021 9.126367084917266 11.602741884861635
Sc 15.596282401548503 8.574144932970823 11.259393135264828
Sc 11.177900142309975 9.556217345011877 9.097494802769585
Sc 12.424624237408757 10.269886461364177 15.476193596205817
Sc 9.177562552403032 10.244595567263683 14.551422705699228
Sc 12.940143233674254 9.796848860381658 11.524926520525606
Sc 14.039655178728873 9.064023059604528 8.724467368892057
Sc 7.449024674521419 10.20924095542403 9.116329807711196
Sc 14.856977476425916 10.90380746201571 13.481829078045129
Sc 7.077794045722563 10.594496744556338 12.212653500854207
Sc 14.98256791517035 11.574881244909704 10.048492824863645
Sc 11.26738946135356 11.612112490684135 13.0590357407603
Sc 12.972199629510845 11.746546590309132 7.597959764924818
Sc 9.839498636129603 11.242164351321552 7.147507711533977
Sc 9.186682812703138 11.8094046420503 10.328245053101611
Sc 13.104483126728775 14.788433726748138 9.533378376013061
Sc 6.524985731473687 12.97970624493847 10.556676228698779
Sc 8.599541447793209 13.10379807109046 13.072538785471744
Sc 11.969591881914035 12.459673369939491 10.277710965884648
Sc 14.142933451483838 13.492940203574513 12.138834912973504
Sc 10.497056647776985 12.89811971334216 15.562838076659112
Sc 13.308043801550872 13.216120282765345 14.908548394341926
Sc 7.8609960133617065 13.201017284907692 7.970458973737023
Sc 10.860856564279839 13.889335657448838 7.769922879438675
Sc 11.414406809223946 14.61597186594088 12.851287537101289
Sc 9.584228675900507 14.688794124217841 10.34979004592151
