28
Energy = -140.67959384 eV
Sc 7.807923779235467 10.210182825977489 15.839365322299484
Sc 6.831865028989995 12.270954453589395 13.871852380742093
Sc 10.815861243886507 9.998477219646409 15.586252112943159
Sc 9.426792291062478 12.55192639419656 15.174119427432844
Sc 8.894881867752424 10.327215153899644 13.05867679409039
Sc 8.713147026623462 14.451030760377282 12.91662970082142
Sc 13.749576188694471 10.817803404196393 14.966174133877603
Sc 11.96087910923534 12.369257505759233 13.371518943535156
Sc 11.232052579299621 15.044166904001756 14.65961966272252
Sc 7.294812420820799 12.15847853444871 10.821800134443729
Sc 11.754762646726652 9.276618723794257 12.844985226083473
Sc 10.103930107625414 9.717116026051096 10.164065129907717
Sc 10.069908023075616 12.539576257300364 11.15645382493115
Sc 14.018071080284288 14.350283091128947 13.82839608175816
Sc 16.03681238265796 7.76323605097711 9.834706466496906
Sc 9.12061446901633 12.01243901240868 8.350223845533508
Sc 13.086788249581353 8.359354087283492 9.84929719827209
Sc 14.717398336138793 9.08704453089263 12.364621820114383
Sc 12.887843006739935 11.177411176224371 10.673549573998349
Sc 11.557599156913572 15.112573219294932 11.686497240776863
Sc 15.231369906673976 11.938583094139869 12.6970217618764
Sc 8.764365270228296 14.67667984387748 9.82872929257614
Sc 15.734963106000485 10.723834138646126 9.919316481430686
Sc 11.930209415651891 10.606023716154844 7.899488055030022
Sc 11.661970137796768 13.60522642857308 8.838107074540687
Sc 14.776903085859828 9.305793238096728 7.540339422282645
Sc 14.166441534981955 13.841434142246083 10.649137690245194
Sc 14.331022955176255 12.339755980225462 7.871763622507761
