28
Energy = -141.85489939 eV
Sc 13.04197360525641 15.879713152498761 17.698246688468135
Sc 14.68012798447994 14.228577036550112 12.124381004828196
Sc 14.097667832265856 11.449448769875762 11.748395273827088
Sc 15.526707732845551 11.813980314638549 14.429614639683495
Sc 12.689007504303413 13.670083699390984 10.010194681923545
Sc 17.41875733374402 17.53482110344735 -3.5007075814854227
Sc 15.763560905439471 13.334387400642688 9.598112381044874
Sc 11.75904437131112 13.4866810256621 13.1206041964104
Sc 17.3644289036676 17.556940772563667 14.47405455877973
Sc 17.17021212521698 15.718666681509326 11.44940068750826
Sc 17.2916856055256 12.623225170730304 12.158229888922666
Sc 16.207925617958043 13.078520326015827 19.614515250857465
Sc 12.713544433958461 11.228943547007255 14.688434587262451
Sc 11.711617639833223 13.438396970007107 16.49561724566945
Sc 13.246449284394526 13.524748773842223 19.274398151792802
Sc 18.319977845177718 15.104073906278234 19.200693920542
Sc 15.408331009585526 16.014399584303618 19.780123482163113
Sc 16.922541209486596 14.652960980792455 14.373719417954595
Sc 11.926795432412229 16.428759935874357 14.84411917220792
Sc 13.971919568419498 14.419388498882098 15.050435015290944
Sc 12.108473461353764 16.04873743700485 11.782999460194757
Sc 14.547471828402488 12.042627761009662 17.16415616961163
Sc 16.051008523786148 14.86907910529145 17.270332666019492
Sc 19.00659346009826 15.469983882902017 16.217834759116993
Sc 14.671745017182202 17.132973699220376 13.001647840221047
Sc 14.790346864945434 17.468560863352067 16.0091772909085
Sc 14.528938435990428 16.149740478005395 9.876482648925304
Sc 17.693829081347513 12.631583808673343 16.62835968472863
