27
Energy = -135.6109122 eV
Sc 6.8837298447179505 11.225542289949878 9.02641269163954
Sc 9.165074355672022 10.249680254467842 7.483917895490803
Sc 8.684035941087563 8.79048991543222 10.415638126742333
Sc 6.895896605228197 10.820731353755585 11.97303887475565
Sc 7.37084155864334 13.611421659272738 10.764906193932998
Sc 9.266593523321966 13.226876237946339 8.100772945096415
Sc 11.453227075005568 9.62449450074473 9.096052075265277
Sc 9.472448756836553 11.540220730309391 10.513806734439301
Sc 9.066194086126718 9.511104544264228 13.672527977720256
Sc 11.805395348436987 11.646145073795292 6.934122463218123
Sc 8.868289184457838 12.653481927172773 13.38759294432725
Sc 11.422383248308483 9.8365242592523 11.990034843740638
Sc 10.299871416085672 14.494063009086828 11.48971022995994
Sc 11.989960003894122 13.044072611259558 9.491569491734072
Sc 13.946474117359688 10.85394532479993 9.895255113845252
Sc 13.7514284281415 8.195522234575334 11.282195706302906
Sc 11.025102667388271 11.425475233326399 14.866892575861762
Sc 12.289107636618484 8.800005417046373 14.53494006431671
Sc 13.239361694112981 15.211983744446892 11.6438127647495
Sc 12.659666666464485 12.484089309370015 12.432494529503744
Sc 11.63148570662051 14.431172527490233 14.357404033629606
Sc 16.54572314202235 10.129198824488604 11.260591214923103
Sc 15.530789990472021 13.03961431263672 11.416084453575433
Sc 14.541729333230418 10.17138140593163 13.24864518733265
Sc 13.829285069947643 11.659536795903652 15.553959009827087
Sc 14.633119262546058 14.116940063967052 14.044916921300711
Sc 16.696957525252273 11.898743969314632 13.918006513242211
