21
Energy = -103.41292405 eV
Sc 15.168360724478925 10.635235061474313 14.39862132232887
Sc 15.353198013724903 11.721665428042478 11.524723589441887
Sc 13.367735141025385 9.578050687510673 12.333999694189464
Sc 15.416172518654074 12.842774239248369 8.546701002946907
Sc 12.219174230280956 10.120712625193766 15.09557077926373
Sc 13.115298879341957 12.49246579620769 13.420463643527455
Sc 13.498419921387168 10.721192984458854 9.254935213729603
Sc 10.220562350559813 9.04630676207179 12.985244545329648
Sc 11.316932134144423 8.600551796212038 10.058845757013405
Sc 12.657744388623748 12.984308955017664 7.532218761699822
Sc 9.126567985585396 9.641863135819705 15.659140805393474
Sc 13.242947436572466 13.667155579150048 10.3568041210539
Sc 10.482331176037553 10.880221728140755 8.214859321862033
Sc 11.136073751676232 11.478812623680717 11.19950849905371
Sc 9.964871760184863 11.988662410055344 14.08251676078202
Sc 10.229950500912596 13.769958009606464 9.29473780752255
Sc 10.813251919017922 14.390018175014374 12.22152655964075
Sc 8.582077442874873 9.91029595387983 10.364230315865289
Sc 7.603604695677544 10.401443744331218 13.263131834636082
Sc 7.769616777720601 12.180711353958273 8.537508112847773
Sc 8.329957616677623 12.80144606928835 11.444626103094386
