21
Energy = -104.23240777 eV
Sc 12.269220659585676 7.611118166531653 11.715818248454775
Sc 13.224832068656431 10.293685280963885 12.836700193728726
Sc 10.297308913138984 9.31734944985343 13.44957126007937
Sc 9.644162436029282 8.7124460388253 10.356831591665522
Sc 7.515195468928521 10.15327759923832 12.083157505805165
Sc 12.40869325434531 7.704235592283807 8.654861118595159
Sc 8.461447455832342 11.851681691435562 14.454179000025318
Sc 14.671744107512874 8.936515052711037 10.236882453068654
Sc 11.586832183048687 12.20536998163565 14.4729947910154
Sc 12.04733054370524 10.258573755696917 10.126399511466445
Sc 14.418662730284343 12.047634090665893 10.297807688973041
Sc 13.641420573276024 10.317171304386651 7.69151146310274
Sc 10.569359922426479 9.937001911898724 7.534542314897368
Sc 7.328968876496454 13.230820632565752 11.970049984020648
Sc 14.374046363630322 12.986281218367271 13.332678951878036
Sc 9.744607536123674 14.43256849598024 13.378463006450446
Sc 11.51692853913215 12.710257690507087 8.635349632294945
Sc 10.011070415596006 11.825551028889224 11.922938094160182
Sc 8.652337138302904 11.541802232197377 9.391023733980248
Sc 12.23647430409288 13.709083058248847 11.493377966848396
Sc 9.542828738990583 14.463202140729157 10.291939415438979
