26
Energy = -131.54025484 eV
Sc 10.482621314256907 8.011912187425752 8.75489563139744
Sc 8.467562035730639 10.016461102638415 9.565819623406894
Sc 12.481228719716839 7.429586887666999 10.948500093124599
Sc 9.763966128521254 8.368029958519934 11.9880317401151
Sc 10.897370837152048 11.05961662970024 7.663574473703479
Sc 13.251641770209613 9.06071190765208 8.551079136606152
Sc 9.677988301095015 9.863946711211051 14.850557336008904
Sc 8.883063194144944 11.344277034776665 12.343800232443092
Sc 11.305045760330515 10.423689747731194 10.460453545421927
Sc 12.320763827010968 8.52053602171865 13.921631094712431
Sc 14.14901486565667 9.893363700473442 11.541271428999606
Sc 9.361167913633585 12.951807630201873 9.630314888518383
Sc 11.766507522144524 14.17699247453578 8.269151283758346
Sc 12.168340230701258 10.743310024628455 16.257626451537863
Sc 14.610006812536628 10.605834950884011 14.515842516252828
Sc 11.929807376654828 11.407351512892065 13.370578223202337
Sc 13.646145993022971 12.035225094269062 9.235561669653114
Sc 10.084020153056095 12.922548670609354 15.099272166815727
Sc 9.139227426916992 14.301141897579067 12.390759809914952
Sc 11.891643910013887 13.483929438469891 11.279542158387647
Sc 13.4343310162828 13.426329010700599 15.058976081000418
Sc 14.709878006882937 12.8441026301021 12.274040975034513
Sc 11.499847705052966 15.236184260578376 13.694396666833452
Sc 13.995171017183742 15.133001714054858 9.956249915168465
Sc 11.232050730459125 16.126018908328863 10.795009054012143
Sc 14.109874059286076 15.774405398496944 12.816741328080383
