27
Energy = -135.07788693 eV
Sc 15.434521475012623 11.681010942915893 12.168688375460212
Sc 13.673607737518118 10.491759002069823 16.725994854423465
Sc 12.88512610675958 7.979984756389519 14.791011978808477
Sc 13.9498280642044 13.829633402475324 9.855907200894704
Sc 14.576633099960373 8.708830389958043 12.044953047310155
Sc 10.827791492465183 10.124122852553949 16.129526234994696
Sc 13.120664067284833 13.711202777083532 12.772547458046352
Sc 11.893967829622817 12.993802328319765 15.61038063851207
Sc 9.792427896431255 8.654486876506505 13.869089171722019
Sc 9.63908280595039 10.38860780166857 11.079261457027622
Sc 9.803590694392348 11.688230941443555 13.72215331699265
Sc 12.774622491018668 10.709464959675772 13.731415587616098
Sc 15.649971864849782 9.706665525369054 14.620213896024637
Sc 12.065380507635712 15.987395171326655 10.83049952474796
Sc 11.686899545052157 8.291450464211344 11.741195343265995
Sc 7.971709580302308 12.999679976752365 11.151249508858765
Sc 12.812782012214692 10.939399007800436 10.638250704200132
Sc 9.168088486638453 15.769229490949778 10.283817288877177
Sc 10.863494378080134 13.255498921969775 10.297735281271228
Sc 14.95691730427888 12.640077091221611 15.06672404180391
Sc 10.20958979329333 14.536195512788982 12.943702839941833
Sc 11.008876840661186 9.375549930241192 8.73017594184647
Sc 7.7858175932782245 10.84345048525772 8.86222625917984
Sc 12.966950806542197 11.948521512444222 7.843181924229368
Sc 8.18825057900049 13.89742957323053 8.251749402628413
Sc 11.376664002869868 14.84003395566125 7.951291953524924
Sc 10.14633868463781 11.911867323941093 7.728604856654207
