28
Energy = -141.35905217 eV
Sc 11.442243342385499 8.187467565523425 13.791687562460243
Sc 13.996572481385963 10.092848245454883 13.857481117435238
Sc 9.868100038303904 7.960618101870737 11.137817254519323
Sc 11.463002837607823 11.053263815965494 15.470123127952718
Sc 12.933160039473867 8.730903729690596 11.014680449528804
Sc 14.273663624435766 12.586623716976325 15.887040965704731
Sc 8.68608542014305 9.730804137679707 13.434946999689407
Sc 15.916532898437557 12.579647904659254 13.438287653485013
Sc 8.562418125542665 8.549674081878548 8.054306708510392
Sc 14.984947648947763 10.953526372534553 11.08678696837424
Sc 11.15500361702407 10.716526900978447 12.433158101185107
Sc 7.288183174607863 9.465687575863015 10.543683629329998
Sc 12.864258723186865 12.99247114197462 13.312915793696657
Sc 11.525286147763042 8.016384883625184 8.354268563818529
Sc 13.158071187044914 10.612311460019772 8.343255555218645
Sc 14.35958038947068 15.321997051976517 13.911932358460119
Sc 10.32167567314056 10.490896263325649 9.56110563162488
Sc 12.708776736799923 12.642180185110087 10.454278596310388
Sc 11.836641311879957 14.235760479977252 15.845299512046688
Sc 10.52559861625611 10.420079002213857 6.623397766768401
Sc 8.233559731227505 11.94919116273498 11.359176377929442
Sc 15.344545745210523 14.071109234089404 10.979424734960741
Sc 8.015495141030671 11.583140646878926 8.20915871886333
Sc 11.233328937550363 15.625363958909364 13.307584852082636
Sc 10.967068567867422 13.08277459716715 8.07708460404504
Sc 9.642175113384871 13.022586622356588 13.899070316257879
Sc 12.8555492309037 15.599593377063776 10.850242149813157
Sc 10.138764109761956 14.065170035796768 10.928707933099941
