21
Energy = -102.58114683 eV
Sc 15.234334241269877 10.639254764842404 13.417573307979822
Sc 14.204987139867118 10.669115927231967 10.535025158128667
Sc 13.102798636354278 10.571247952381677 7.5436180947389975
Sc 13.808897547904843 13.117411414565359 12.333744622291219
Sc 12.85069116405801 13.136023761923772 9.42099036679001
Sc 12.504851357681641 15.625262297016757 11.169538888365304
Sc 12.426918102401588 11.33085114593199 14.443579686770923
Sc 12.91106508692893 8.859681875838072 12.644423262987297
Sc 11.921652245470948 8.843665494406778 9.589283350731526
Sc 10.693736577922714 8.929142530606049 6.848091495710705
Sc 11.287835218947906 11.364214781973589 11.500898978598293
Sc 10.493589298573063 9.033108987099743 14.378190113178203
Sc 10.207929261312124 7.602181080810333 11.754749155294892
Sc 8.911847028073522 9.071374759905144 9.322575382100082
Sc 10.987181200283603 13.964923853661526 13.26262036654761
Sc 10.45943908622241 11.498938779687975 8.384173554589413
Sc 9.41768497055772 11.77981720285293 14.732398977641102
Sc 10.061247815782508 14.05907248801638 10.310626001459658
Sc 7.824703440594537 11.949098134242979 9.80769915822788
Sc 8.657311892517038 10.21127915298513 12.19800023344809
Sc 8.177864916206609 13.254544972631443 12.476217270410672
