25
Energy = -124.94972092 eV
Sc 9.803307335890388 8.843349391822116 10.044134478977684
Sc 13.302770496487424 13.8437954144767 8.45520676265707
Sc 11.077819445658948 11.42640271803855 9.39377957691017
Sc 8.460809293535673 11.672132977966223 10.8268840781851
Sc 11.810140911378571 16.162719238469336 9.840072799703806
Sc 9.87231303031667 13.964939567526253 9.034261671789032
Sc 13.933266138963344 11.119034276601612 9.74742311809624
Sc 16.17264500874792 12.918763393768282 9.65070147965059
Sc 12.283154223853648 13.651116926957052 11.103342522896627
Sc 9.022354507621449 9.388079797705666 12.791824859164228
Sc 14.589874810364146 15.321371002825803 10.885816499833004
Sc 12.37954387229972 9.33752248617561 11.604890579229854
Sc 15.024852173892842 12.566212700104721 12.297113063743705
Sc 10.825115781273709 6.872206609979378 12.213657064282163
Sc 12.034327870220043 16.113328553791245 12.83177262420512
Sc 10.853721683412722 11.784706669752724 12.753072646465135
Sc 13.04217733620362 13.651589653921697 14.26895802489433
Sc 15.612398394375981 9.70605628997481 11.731318652069842
Sc 9.44201419335752 14.54799088973403 11.873607580322547
Sc 8.29310927195187 12.138246778250416 14.049034171109136
Sc 13.702476228094602 10.540025839265784 14.11192346794422
Sc 13.76298025639022 7.522591272814658 13.490785690780811
Sc 11.268879528890093 8.77570734760402 14.482127284366666
Sc 10.244153036522558 14.32644117933703 14.703824470681946
Sc 10.972177995702543 11.592051848542363 15.60084965744696
