22
Energy = -109.52551524 eV
Sc 7.650461694411852 6.782962900607708 9.454733507105765
Sc 7.5064970550827885 11.745687161403005 11.214609220472862
Sc 7.89293322625521 9.779113353096475 8.963782389800887
Sc 7.079411160857848 8.778356717510013 11.568078770980938
Sc 9.563129530564176 13.084448960328803 9.626278598522006
Sc 9.54329639275008 13.569096467112189 12.765667267929421
Sc 9.35431118692954 10.412137732855715 13.020776328729166
Sc 10.252149048481387 11.009582856864474 7.3348897748957675
Sc 10.60742166509745 10.247619806970269 10.14319810963884
Sc 10.327197605639023 7.950312196436516 8.272272328306954
Sc 11.657307444314222 15.030715386952934 10.78056147232524
Sc 12.5163472659538 12.715968463124701 8.775450164256892
Sc 11.94845372613315 12.223279664137994 11.80777874551104
Sc 9.794454242359649 7.6698271288278 11.40943311068744
Sc 12.610221699189363 14.45028345775727 13.630908469493805
Sc 12.855498070348434 9.737127355183793 7.977502266441072
Sc 11.495600712483032 11.837791974489567 14.779948286869883
Sc 14.410279281638068 13.735638163696022 11.176400926186394
Sc 12.637745936741798 7.933297030252409 10.36344910767022
Sc 12.288668209049668 9.375424759835665 13.05217915837805
Sc 14.243206237401372 10.565892958872096 10.694978155343993
Sc 14.291369921419182 11.814033967051826 13.605088488928965
