28
Energy = -141.40339088 eV
Sc 12.410993989183167 17.04205502374496 11.669869166223462
Sc 15.439443844411453 16.097940170071098 12.583635592547019
Sc 14.207169583933934 15.175544228050347 10.142031847333408
Sc 13.010803065515598 15.55954064469399 14.347392687304561
Sc 11.572257200116203 15.67411485024745 8.804673918004035
Sc 10.10153317386532 15.944253556159738 13.592646817925345
Sc 9.293230832183296 16.038697916676895 10.692291442087296
Sc 11.590688527221763 14.18541405520291 11.45825061247859
Sc 15.719858856076538 12.528434048687167 10.437242224382347
Sc 14.216506142434781 13.416447030581839 12.874334338320908
Sc 12.919476771819003 12.87188252964817 8.699890258156495
Sc 11.125871096223616 13.06371487791787 14.388564312623995
Sc 9.74244566036099 13.171707975916151 9.333185210874944
Sc 8.596927154076612 13.51697676301673 12.337925327550694
Sc 13.223136701343515 11.300024931965792 11.13466745719264
Sc 10.378212138985575 11.317589556342758 11.721950360502081
Sc 13.979238434590236 12.21333324557236 15.606246134208916
Sc 9.278083422962597 10.412185179408661 14.272779764074494
Sc 15.46764402145694 10.623190412321561 13.098743172422651
Sc 11.281045956518739 10.099122155366342 9.183626599509054
Sc 12.483302364859243 10.387701550439072 13.758720349203468
Sc 11.448517914348695 10.417936743329502 16.435828685723028
Sc 14.654242083577628 9.304734602565336 10.082988139654905
Sc 14.016550480459603 8.993933164794257 15.79784446941246
Sc 9.114743028503792 8.762841503250117 11.648543722242636
Sc 14.313554177782708 7.913861524216738 13.014481291906266
Sc 12.006777932207804 8.35754374026053 11.390132186532128
Sc 11.170223659639081 7.944845948225086 14.34007064341354
