20
Energy = -97.89082231 eV
Sc 14.78593843736206 10.41015358164677 12.415982291110474
Sc 12.376922751786967 12.693378476388673 12.223401281354684
Sc 11.44128037293379 12.305057845580931 8.948582575440568
Sc 12.793325267562178 14.662176272028349 9.975964684339353
Sc 9.049346779910604 10.688511652535455 9.208416205788513
Sc 10.558399817003407 15.2250791488238 11.99560544795662
Sc 13.430577680636866 15.48522073052611 12.875280455949131
Sc 11.51301220192968 14.291087740574481 14.789535252832387
Sc 11.82415146159461 9.973713607375819 10.651122471969048
Sc 16.931479306824166 11.648402401983654 14.030546923600491
Sc 9.629698479712724 14.438810331923149 9.160154759173416
Sc 12.06374532406976 9.97912279810482 13.757060579913526
Sc 14.72703739268615 10.053487124130635 15.419449238084281
Sc 12.091705654404343 11.568719853557127 16.201919758100555
Sc 9.380334319281628 12.53850444596411 11.394977515553592
Sc 15.446177698434882 13.393944105190878 11.851285196680239
Sc 9.815024452902986 11.945949001073423 14.251518063673949
Sc 9.331600612971474 9.721134921126788 12.141177307662524
Sc 14.220061745525078 11.756997111926525 9.725131192411895
Sc 14.267942346282853 12.898310953353992 14.660650902220937
