23
Energy = -114.74820315 eV
Sc 16.918232225538663 10.365026210236856 12.23289127119557
Sc 9.994835151618803 13.041308560109119 10.939193128763707
Sc 10.717789444239468 13.700484104302152 15.804896193101204
Sc 14.610040337813416 9.765552127128759 14.801790981457222
Sc 13.780626189780605 17.32449844914406 11.939417220386025
Sc 12.498726900627243 11.053238544876065 13.52846708983388
Sc 11.692413075954692 10.766604617646706 16.26055258154448
Sc 10.75161589923831 10.020417057084474 11.441372804046964
Sc 14.757684415037666 15.134642098167403 13.47605714049219
Sc 13.720557589263047 14.77736494853911 10.502783081874274
Sc 16.443954447145067 15.699944018600668 11.147356064952326
Sc 13.947620039074943 9.277819125824374 11.843546900872251
Sc 9.668579961850506 11.689392495383895 13.80377753811277
Sc 11.931968041617301 16.327596016440378 14.302510243552337
Sc 13.705430270431588 13.051629933788528 15.559268645274589
Sc 9.228338202262359 14.867848880095448 13.45661983390343
Sc 12.919316940208246 11.860197539963027 10.460097667056049
Sc 11.89477899820862 13.809764912177338 12.983639694372872
Sc 11.73850573115892 8.511131546930955 14.109610553080996
Sc 11.021722845375349 16.10872854760619 11.369492665454414
Sc 17.444359219363626 13.346862609899773 13.019431172519736
Sc 16.106295498317863 12.736461532593129 10.371852885666284
Sc 14.879218383942257 12.155779771283086 12.858660736314217
