28
Energy = -142.44275753 eV
Sc 10.280454525932905 10.142853820459118 15.983590731658682
Sc 10.62131363883774 7.988273832211271 13.713693358859214
Sc 9.549898933257191 12.893224664311697 14.85013808082551
Sc 8.038285288680562 9.76615783200491 14.076157607778468
Sc 12.346235969745203 12.54247993737 16.050494908351073
Sc 8.742723946154989 9.308153047090556 11.218930584590312
Sc 9.456807258168585 14.858252758806408 12.635119597201221
Sc 8.052506079218375 12.21065130753713 12.138843204793641
Sc 8.487215848811166 11.702506914869188 9.123610093063634
Sc 12.966954259784988 9.825757639546794 14.789116663748155
Sc 12.194557421786332 13.110725338896422 13.171094566066577
Sc 10.568951245774988 10.697172241619894 12.956848151664142
Sc 10.778379600050869 12.821768880849554 10.640232248474113
Sc 11.933620520775413 15.436426807191385 14.506113242952148
Sc 15.737621036131497 9.40370543229217 12.95031065564014
Sc 10.80195946813526 12.693397774423 7.647767897992978
Sc 13.036572570219358 9.324099796176474 11.828978180450537
Sc 14.757652782529505 12.013500359928408 13.869201839012616
Sc 13.820095670373956 11.990195934975885 10.823363722721023
Sc 11.808770446403297 15.679216902338501 11.352356978130576
Sc 14.632768015373532 14.58593938318113 11.830852038287818
Sc 9.329215044986546 14.772587164807176 9.474472554928658
Sc 16.780090185117697 11.982031622209949 11.674343061579657
Sc 11.169833082611921 10.203696704421269 9.462696100557064
Sc 13.580952724098728 11.383608915618074 7.9402306386784005
Sc 15.587033011177727 9.836622947988971 9.887686323961537
Sc 13.070082298035308 14.281921619804004 8.985612097697693
Sc 15.896459180156649 12.90199416395193 9.025715168341522
