20
Energy = -99.20309484 eV
Sc 11.223246671382999 8.503670154695936 8.6766515738291
Sc 13.177544261239648 7.602590117618992 10.894610841100723
Sc 11.757393811146043 7.489612319391253 13.552623142843714
Sc 13.253351047872346 10.505257221260798 9.596263943928518
Sc 10.219624000150137 6.792897013900893 10.934855370321397
Sc 12.248529106540733 15.157558158052373 10.85007580581459
Sc 13.62839784975223 10.128469662562214 12.838060881381526
Sc 14.183316637873215 12.819952547632438 11.155451038288879
Sc 10.372419659290333 11.417730950163275 8.140661912350147
Sc 12.842600316258507 13.447166871932364 8.465389270137369
Sc 11.061833461674402 9.642153771466264 11.599005528571745
Sc 8.795078028243166 8.473181727444652 13.067571575823033
Sc 10.02407254587497 14.726659788717104 8.796457711646944
Sc 10.879309414978954 10.219366692638356 14.542813520314672
Sc 8.61848497216116 9.545100165420475 9.99939501416911
Sc 11.002605257765765 12.546251635221852 10.60326728111198
Sc 11.896848851554479 12.79672688589537 13.248670609017546
Sc 9.304338288154666 14.619322445002396 11.75308694494206
Sc 8.800776156143163 11.544521295193471 12.587224131343033
Sc 8.055702523272954 12.65479911032079 9.80486608313943
