27
Energy = -134.01987397 eV
Sc 5.779809683804248 10.418368647598665 13.540731368569135
Sc 8.753990400405726 10.31284055380814 13.602251433533421
Sc 12.137868621347033 10.214436953223602 13.546519794233207
Sc 15.109478515893262 10.14903159106141 13.388547571146034
Sc 7.207917472918577 10.661042895439824 10.962538606120837
Sc 10.410683191250138 10.602634111577899 10.822292510991543
Sc 13.614765871459227 10.476658466551566 10.857198022761887
Sc 8.832304212500697 11.012646873433201 8.118812798314698
Sc 11.9203021324827 10.924394853921099 8.06816145229318
Sc 7.41930205212874 12.882375263342064 12.938873247047747
Sc 7.226533759587819 8.026805176877795 12.372969187108545
Sc 10.5140119453545 12.957328483261412 13.00167670609333
Sc 10.354067297428449 7.85618334971904 12.21988583024359
Sc 13.595521581827484 12.704085266080853 12.838573685672257
Sc 13.490220043317123 7.846040222209879 12.269200638552517
Sc 8.894514860267662 13.379226762249917 10.186379196861475
Sc 8.75453283533884 8.21354272945889 9.551931873908172
Sc 12.063244917867852 13.288267810936214 10.134463220760546
Sc 11.883949717035865 8.123561036465004 9.50058552125125
Sc 10.441519588859828 13.496305129330946 7.6284580138699
Sc 10.29125218661987 8.60779319695553 7.006338603859597
Sc 9.13750518324256 15.603032456135583 12.306115246029494
Sc 8.814249674710299 5.458229494466212 11.008753515240109
Sc 12.017050367083245 15.520109135489106 12.259219203169277
Sc 11.711802930073853 5.3742460323209125 10.961709292804516
Sc 10.542871476481876 15.850899547649737 9.651384568319843
Sc 10.233838828258287 5.869591026155654 8.385066970224198
