28
Energy = -140.32792622 eV
Sc 10.267792032779562 16.108016352841133 14.725397346422023
Sc 12.772196438063988 14.421932130757357 15.415941557117172
Sc 15.05176791570359 12.575717083744154 16.391986801314314
Sc 10.305675277014515 13.209556126364175 14.058617359946332
Sc 12.638351465164117 11.475381825639527 15.052486923533174
Sc 14.70414617669637 7.671129569186298 12.4240835720505
Sc 9.19400689239397 15.021838275169475 12.08162481102239
Sc 9.986854229761944 10.094322958621504 13.441048910375136
Sc 12.69053475129815 9.637811162715437 12.54690813287805
Sc 12.200747226585142 15.31238287203858 12.563553890364284
Sc 7.420309447849661 11.797902314021353 12.513579954334624
Sc 14.835361021006639 13.186431737863908 13.525918584805677
Sc 11.210391927129338 7.234743232021421 12.190747456668017
Sc 15.266477706733513 10.305509133544557 14.34370418644611
Sc 11.260202942628908 14.293251785618796 9.651432642876202
Sc 8.07924721542171 8.576767568045494 11.865336603630437
Sc 12.494879769788652 12.449659519968273 11.963652004230498
Sc 7.7762305658939015 13.500936242391225 9.673068921940953
Sc 14.421309537632842 13.603839388994563 9.947561380943261
Sc 7.565862876856418 10.59157366580076 9.685380572653994
Sc 10.399034492862905 9.247942498344754 10.179726945515068
Sc 15.084702626022185 10.725421564187446 11.24733390756464
Sc 13.413160557620289 8.401945799879977 9.929176431632541
Sc 9.890473294845155 11.995234715937753 8.07600670910256
Sc 9.74791864993842 12.099234985749932 11.08115727618654
Sc 15.127114722554873 11.145544965422266 8.16022205042334
Sc 12.521531567594707 11.286882040730706 9.337913487058366
Sc 13.021367103261971 13.238838039570409 7.273624251376394
