26
Energy = -129.4214819 eV
Sc 14.46078958924789 13.518098062228995 13.324725711869593
Sc 16.059835174849006 10.91529076381896 13.176756298676024
Sc 15.319339666620849 12.750535385813253 10.596777263413177
Sc 10.432707168383685 15.238797669811973 11.34958052465422
Sc 11.304087882291636 13.803782025216302 13.845265534070013
Sc 14.575279063182332 14.281685689112122 8.074504944838433
Sc 13.145130048685186 10.698766770473378 13.849603469616934
Sc 14.256043729552102 9.90884312635651 11.051671504676323
Sc 14.859023058906196 8.182645667814409 13.366656338660457
Sc 13.559426127570173 15.20528800512872 10.850840402020003
Sc 8.994668605045272 12.776543284117206 15.477110490558522
Sc 9.169032943791288 15.671374446272205 14.353918473112856
Sc 12.400602196180445 12.640179815701305 11.364559260899899
Sc 11.943293311666089 8.184214405218096 12.170440059503333
Sc 8.348908696669433 13.370962628435077 12.64534560853812
Sc 11.708287062497677 13.976956436322931 8.565336423984867
Sc 9.475056498486127 12.775884016322387 9.960634254132362
Sc 10.130745835744388 10.981564040192605 13.080250877007872
Sc 11.20404953843026 10.29478858021147 10.36915457292423
Sc 13.3379154343576 11.43185428095701 8.46088097474063
Sc 7.259046661432593 10.760914014862948 13.798892545972654
Sc 8.112780071723103 10.309117116185403 10.88650413880066
Sc 10.307990144091411 10.530690277261671 7.820707582807191
Sc 9.68365700171837 7.851154703181035 9.910694509231762
Sc 8.878050424960382 8.289983111791129 12.890870021515736
Sc 12.456226189362079 8.332383138294826 8.84178159299467
