29
Energy = -147.04042572 eV
Sc 11.753616355844525 7.09603092044074 11.703907003254837
Sc 13.821415307739418 8.59343227548276 9.934061518949257
Sc 12.232617545123105 8.572504729836158 14.377953758548008
Sc 14.005296257383868 10.135453272577378 12.388023903693794
Sc 15.098545704230235 11.46206580138801 9.79127715484721
Sc 13.55578361351475 9.9125397229111 7.2408427703869975
Sc 13.356018515074386 11.430968333847867 14.991352349428734
Sc 14.91994962441561 13.00322362187862 12.809320893122809
Sc 8.820833495058375 7.757965223490139 10.860154881962043
Sc 11.092893835520751 8.53741978468649 8.808795461511897
Sc 10.795416323726734 11.309403969790413 7.2286089521293855
Sc 10.849652797779786 9.763044407393274 11.788962455050582
Sc 12.279069046176401 11.402467075822337 9.625826695846872
Sc 9.416566175196452 7.947800435424285 13.753577281451124
Sc 13.617028792685495 12.844723617837042 7.339509567494951
Sc 11.966269108843253 12.655235286058383 12.57804214323823
Sc 8.03492606893651 10.468214039621804 12.29723261276522
Sc 14.450859331619034 14.258049305083269 15.702896893202235
Sc 11.12631413836847 14.11422815675303 8.462559275823175
Sc 9.441054235552713 12.600108418560302 10.509615835151381
Sc 8.624688513332776 10.175598705514368 9.144689079925556
Sc 13.542140170973072 14.193661327526268 10.24808601978607
Sc 10.25373736343408 10.846450549458918 14.632669611235784
Sc 10.76850860008936 15.156058236840705 11.371143464825398
Sc 11.496569572806198 13.86595180727902 15.482623758800722
Sc 9.159471344564704 13.461725938362505 13.401308105860055
Sc 13.11501429655269 15.511581857361545 13.39033670304872
Sc 10.357814502229598 16.294290582703223 14.242863969405473
Sc 12.607864573685603 16.560578263214396 16.18037320665207
