23
Energy = -115.5298619 eV
Sc 10.794862947326557 12.7028015193734 15.174787646005338
Sc 11.982166930736513 9.75679564637024 14.245661330831949
Sc 13.469154909315593 12.573660670545364 13.289549857862513
Sc 8.97791727281135 10.536217299136986 14.015663004161128
Sc 11.062315730620595 14.878934009326315 12.95997292011811
Sc 8.334636349826859 13.477526761507773 13.538829543622759
Sc 10.631501077500813 12.201265514440479 12.349025241679339
Sc 9.823689018157586 8.603322985985251 11.855398081085802
Sc 12.428945943101004 13.563924253765014 10.277541346542067
Sc 14.882149771997536 9.668049541914161 12.906144427051109
Sc 12.845711531680479 7.461479883470236 12.153638237811391
Sc 14.967172313098423 11.73912338695788 10.637388275510641
Sc 9.119043585472005 13.952151589939518 10.40757095015498
Sc 12.53637720476534 10.183556469630727 11.330921698885424
Sc 7.562018899253122 11.14747428849958 11.329226515048932
Sc 14.649503711507446 8.766637935224093 9.944088839972688
Sc 10.082466040307269 10.947770808840287 9.732368348555092
Sc 10.596095685482844 13.109418326092715 7.755096075185783
Sc 11.454836213535783 8.233993145650524 9.205287116335159
Sc 8.173363962870248 8.928982137184548 9.07817538045895
Sc 12.926883193146246 11.024620346155762 8.306805419578003
Sc 7.819164509517763 11.889395343762054 8.240126434361711
Sc 10.066979406358522 10.20280631991523 6.92908763075038
