26
Energy = -129.71808672 eV
Sc 11.530666154586815 7.7388711126224505 9.829388424507263
Sc 9.67964056224965 7.505758826122909 12.455055954002182
Sc 10.115666122415666 9.05403355988728 14.964092843317903
Sc 12.121000303214347 9.092012884180585 12.757198780621977
Sc 12.508336408966732 11.063707712473361 15.145019691039264
Sc 14.307092062618697 9.376177173203047 10.297933129922171
Sc 14.338462501969211 11.364055585960811 12.405953203528501
Sc 11.887845058909436 13.712493203496654 16.608408489877565
Sc 13.127444881408456 9.60682139650692 7.566905148704234
Sc 10.157631559265264 9.411728264583184 7.4951871884093935
Sc 8.786377640513198 8.934350501901294 9.973214958700922
Sc 9.285850616496733 10.540862945258132 12.410216364560897
Sc 16.441103128897826 11.781728297940964 10.37896299177791
Sc 11.497552298213686 10.672984908505944 10.038837382461278
Sc 9.663356275228688 12.098458194071522 15.014246155630639
Sc 11.69662245108616 12.67389551278128 12.589703503764694
Sc 13.919970612304416 12.25907655319806 8.980564130893674
Sc 14.358214603642276 14.139192059430275 11.273554564218106
Sc 13.755107112355656 13.84988285692729 14.321637333643102
Sc 12.741409716432875 16.41755694882861 15.148819222498982
Sc 9.011977317282039 11.974373089128875 9.263999787510123
Sc 11.40591322725401 12.083598867244524 7.185876838914079
Sc 9.170735641213433 13.786961444479749 11.892400791036962
Sc 10.399497782087703 14.872376456907888 14.471545280503694
Sc 11.444871386612425 13.923628934500712 9.727736588541932
Sc 11.87604838048539 15.733581375391335 12.230862556104112
