25
Energy = -124.99590034 eV
Sc 10.657575918990087 10.174558049481375 14.667617886551024
Sc 12.339833527671535 12.890340416651114 13.792033209567993
Sc 9.47549419146192 12.629815263035589 13.064243099546916
Sc 7.663050581169883 10.305052538218806 13.72491764518808
Sc 8.864939214070104 7.6854129436158845 13.810984368851525
Sc 11.794449087201844 7.511477888311376 13.412857698081883
Sc 11.038162533024444 15.217311194032964 12.256823743731712
Sc 13.104384687577584 10.105289224863101 12.724892244243652
Sc 15.15713427916401 12.272125505958961 12.623998059095365
Sc 13.944851799724432 15.019101228779018 12.253049810056602
Sc 10.109276795429265 9.87888151243202 11.687126290553115
Sc 7.185132037214218 11.849723489500674 11.292689880231393
Sc 15.311013185774168 13.692153696186871 10.035577677019994
Sc 12.332645178309 12.495536742400251 10.776250622083042
Sc 7.44082701539729 8.63893892152394 11.058419393752775
Sc 14.579685235942515 10.589917124637482 10.017865224509945
Sc 9.854545686109407 6.576345072652153 11.292423803479805
Sc 12.49370084305997 15.175590990470148 9.425724486885422
Sc 12.321738907451316 8.206044455574583 10.425385150559332
Sc 9.520584996562679 13.681292918834018 10.223809427415066
Sc 13.679945524431057 12.699622004042055 7.875653724167652
Sc 8.903938123448599 10.998986119009558 9.059120447494234
Sc 9.677700582794929 8.147287975816344 8.841975227295517
Sc 10.7967800399571 13.087945555416223 7.637226190993103
Sc 11.819143728439197 10.399652682430663 8.493634405859485
