26
Energy = -131.42874422 eV
Sc 13.33175170147698 10.953977406578542 7.791598133496034
Sc 16.43711691320369 10.294232218881794 12.15767526337948
Sc 15.118027029978693 12.152091409701004 9.954922128278996
Sc 15.001410103579776 13.275107929445555 12.950709699529346
Sc 13.62280766222969 14.69120176898558 10.707053290190604
Sc 13.005689975407305 15.614209114041047 13.489632763116324
Sc 12.100756571089546 13.951058350518467 7.964695930790203
Sc 15.178851087070246 10.849871384653255 14.85945160321556
Sc 10.820740024160369 15.347328143393622 11.356985238205958
Sc 13.289505263707367 13.310420816345497 15.52704210760642
Sc 11.912575026973853 12.255365379530542 10.100765671996914
Sc 13.600080675205495 10.792560399893816 12.139600360494377
Sc 10.212159801305278 15.047674442221227 14.662678060315605
Sc 11.574073794263509 12.87974610071864 13.096023650860976
Sc 10.396996582204554 11.41185257343993 7.7333595299358
Sc 14.700893212505994 9.042032338340048 10.052264232500338
Sc 7.8113199213263025 13.350206300493321 15.443518925633926
Sc 10.5219963418569 12.577138176432745 16.30586156972663
Sc 14.324907637487986 8.327382824715615 13.26123271974654
Sc 9.310532828257822 13.62083324221332 9.411433211617666
Sc 11.746322181226056 9.300842634768017 9.613260850161668
Sc 9.314667833999572 11.01629802539162 14.122640783946528
Sc 8.579823620184516 13.555254006608447 12.501663708611636
Sc 9.438604951901604 10.98992814010075 11.008770916937141
Sc 12.288395772673859 10.350197799584457 15.036385248744894
Sc 11.28058173065394 9.020759813601657 12.519678570115541
