28
Energy = -141.67304619 eV
Sc 9.741891751876349 14.55875893604951 13.066824442469745
Sc 10.250118184244236 12.93001484611596 15.73120827232188
Sc 11.220988483613462 11.864053799173979 13.258764711102026
Sc 13.31630549837663 12.644889610551626 15.428572469475284
Sc 12.840874364068789 14.624508333320001 13.223171483919081
Sc 8.541456675029586 10.373845374836682 16.080304640492557
Sc 8.196264003123234 11.942033719441906 13.543614905521459
Sc 9.260117784483652 12.696313022854007 10.73777890837081
Sc 11.657615958357102 14.738344525183074 10.419513273129715
Sc 13.309585403687471 12.20363287203074 11.1844413643102
Sc 14.856453960437529 14.302462704866905 10.20325490749759
Sc 11.53577616793381 10.101288482901358 15.566335155311828
Sc 10.863712439676554 10.221967040829878 10.815628177598747
Sc 9.45456482242295 9.110742379630734 13.464423673050485
Sc 7.985963181389105 9.685165906806727 10.888592729307533
Sc 9.776306546713391 14.444827063554333 8.16748413597892
Sc 14.28471693038062 10.507502142399062 13.465850079433519
Sc 12.957304394222977 14.503138179687626 7.721650448663229
Sc 15.453686377461088 13.253375207294711 13.224767238772026
Sc 10.374338888864092 7.426524586364015 10.713101387851403
Sc 8.94848591644797 10.851693003256832 8.266263761959488
Sc 11.524111232739786 12.2155598117526 8.5960439540862
Sc 12.23725174844242 8.478622556735061 12.991479898494076
Sc 14.42932396486564 11.662112444057698 8.42661652507393
Sc 16.103334098970382 11.467081043209928 10.887161020508751
Sc 8.637699244180583 7.89608806067972 8.388087964453359
Sc 11.528337080982434 9.119059385179014 8.212982363776124
Sc 13.801921996705282 9.275106752453183 10.50936168733232
