26
Energy = -130.91683688 eV
Sc 14.321571212835714 11.10636230713699 10.296263669633
Sc 14.398274247196442 8.119041914224107 11.48114144174675
Sc 14.448704609629615 10.371885637104576 13.420313520616835
Sc 13.517354654892603 7.907816747412485 8.61111424411027
Sc 14.50293045778338 13.151742355322034 14.137557465353535
Sc 13.856485899279846 14.20909026353162 11.481766641428509
Sc 12.230343206532478 13.154543574442139 9.169071589915378
Sc 11.832192889630438 9.390702729709336 10.506149463671983
Sc 12.212691619288812 10.590045463206337 7.833114312206296
Sc 11.876263068863064 6.5325519267257075 10.806304904193256
Sc 12.035257257825466 8.618440336401886 13.3744398066252
Sc 12.086616145612556 11.973292237768415 12.34504654311168
Sc 12.077475896638383 11.601594370341575 15.189202212883751
Sc 10.41467557887778 8.049130287568465 8.37921852641572
Sc 11.97388715992519 14.558762252647432 13.987425336678509
Sc 10.688464720491423 14.788595801095951 11.18483815667163
Sc 9.287573784855729 10.911078725197395 7.406242986334091
Sc 9.344183817814951 13.860510715920933 8.399463693875106
Sc 9.352939968834471 8.210505355207555 11.673669314297298
Sc 9.648122550001132 11.589128307037198 10.402418668558308
Sc 9.662360896661985 10.373875923893317 13.664840456348658
Sc 7.820133052383009 9.257989403840051 9.419216610690468
Sc 9.305025162744053 13.23198639926547 13.487534616130496
Sc 7.730850514496161 14.026293094362542 11.05698190780485
Sc 6.963083758453077 12.062319132761788 9.00368423822272
Sc 7.187284399829948 11.008146927154183 11.94545798621853
