20
Energy = -98.31555283 eV
Sc 12.069850567451425 13.173802979580094 8.450612669913562
Sc 10.316193274604702 10.7110378447579 9.30916155015983
Sc 13.293612813487753 10.401443684648342 9.22664397912314
Sc 13.46872634848527 15.705728118252964 9.47189642381026
Sc 14.627601915728635 13.014207206755412 10.01911353156072
Sc 12.03573324671333 12.15525601011729 11.24788907925001
Sc 14.5470596980522 10.733579829385201 12.205466497627969
Sc 8.977126559554614 12.692655648256512 11.309078419225145
Sc 10.73457506309009 15.035956224665583 10.512569974467585
Sc 11.687877948466346 9.119110872881755 11.851457825094425
Sc 8.807216211893865 9.867845631855781 11.86860040046059
Sc 10.25336702816818 14.203585852937382 13.521634439832987
Sc 13.06327344735192 14.786146306375494 12.285086581899717
Sc 15.715580052282744 13.422177619799957 12.841157923651785
Sc 13.09854076424958 9.624408779663133 14.612072998637867
Sc 7.942790671528603 11.644169076335547 14.094838777258541
Sc 9.663030359118242 8.854132831195237 14.449444691030417
Sc 13.360525433532038 12.656187538867934 14.403003320494035
Sc 10.726832395362997 11.338638180474524 13.719251613840632
Sc 15.82915316007471 11.07859672239066 14.81968626185829
