20
Energy = -99.32777782 eV
Sc 13.191376544135753 12.642567762744061 8.88068727959622
Sc 11.785273791586881 6.688470607385822 10.294941123848618
Sc 10.454586644402283 11.387903058496475 7.977027623767708
Sc 13.813829433028115 8.316058707882922 11.919739961227839
Sc 9.678560079247813 15.05578609741481 11.553762014133948
Sc 11.144255813491169 9.407055866693787 11.268779296786969
Sc 10.652412249475748 12.382799964142228 10.670351366280093
Sc 11.272772689856856 7.259648536663555 13.3321426047929
Sc 8.945123037287003 7.454342777235653 11.362018683713552
Sc 9.33607763591428 9.993341261524744 13.444155656769354
Sc 11.017249129785991 12.706122743800021 13.51843138144923
Sc 12.400939688322099 9.945335385329267 14.102411616638989
Sc 8.063224343300858 12.649379026561173 12.376736661622047
Sc 8.286837733096496 10.351505121415352 10.327987635933074
Sc 8.185770150059577 13.369629718760338 9.405865573830301
Sc 9.946081159549447 8.379289741100049 8.617258810515782
Sc 12.658067121522482 14.463083000223582 11.295011294436776
Sc 13.47540027356522 11.449323881693886 11.679418718726103
Sc 12.880759287064006 9.53345191038731 8.981802773305265
Sc 10.91314797442573 14.594209157909644 8.716027055007045
