23
Energy = -114.89720167 eV
Sc 13.546496760059684 8.873515790157946 7.5327797395119775
Sc 12.005126451053174 11.225373596290535 6.852756206695056
Sc 14.126454132365112 11.558376838774764 9.202051590103087
Sc 11.597031252958459 9.976259462802425 9.739295614517365
Sc 12.28893307016594 6.897476883621111 9.35297350552242
Sc 14.45859743117878 8.689319652355959 10.422274064021508
Sc 10.334684591635574 8.577041355983445 7.47671726591789
Sc 13.514373364303044 10.931130003605443 12.207702507109046
Sc 13.33117918414825 13.713236356548292 11.443533855440203
Sc 11.408236559128373 13.194511990642544 9.237156165753055
Sc 12.031849053877295 8.15133380033396 12.220165612406628
Sc 11.833905399291432 10.31071835971485 14.544694038414836
Sc 9.631796841239725 7.530852487767724 10.414329882534838
Sc 11.810879081500655 13.478766242801981 14.234823652565426
Sc 9.342152055595417 9.217221682841103 13.108016076520197
Sc 9.317787338639281 11.56494504082871 7.866580589337422
Sc 10.791738489451424 15.07440350353439 11.670111103327447
Sc 10.48702350813453 11.936888169362607 12.101294963158109
Sc 9.30008591145629 11.682802363779894 15.059849783247676
Sc 8.731569388958395 14.136944548487586 13.47735572724926
Sc 8.442682465069467 10.21777180237423 10.272951468421565
Sc 8.440761422873987 13.35006469757994 10.3833724783865
Sc 7.375034246851146 11.557676276937872 12.742757037189916
