26
Energy = -129.21222625 eV
Sc 15.453681611700718 9.459676589360646 13.998303618531699
Sc 15.72134704028216 10.616779216721119 11.089740999759103
Sc 14.951250302459522 13.33013979474984 12.159171641117595
Sc 13.242661124345213 10.837760048197225 12.9870639417027
Sc 12.934000541436024 7.926960517368608 13.15912812159217
Sc 14.378669863442274 12.827788480989112 14.997361702078745
Sc 15.394935541897267 15.7984836931725 13.534902944856977
Sc 11.351943423985928 12.537937069574316 14.547520884372734
Sc 15.216167499517654 7.876524740435958 11.189826295635074
Sc 12.389824352749827 9.84006491236833 15.48080500951079
Sc 14.965926773502886 9.502679571638417 8.422878672752143
Sc 14.191017614334998 12.495172447120343 9.251431970905442
Sc 12.804145137457677 9.69082024041447 10.33284244575856
Sc 12.624865518223386 15.030125303157643 13.593719594798696
Sc 12.106756568475234 12.950665898702606 11.39454994012478
Sc 10.440809232043653 9.90755961438189 13.005271043953458
Sc 13.522906673608356 15.551282128922157 10.805880520484097
Sc 8.796898465311255 11.529151922955743 15.308833486076198
Sc 9.005603351636589 14.597222964750454 14.324949285093817
Sc 12.18910496647478 11.018388132996634 7.698888408789021
Sc 10.076816770877608 11.247505025865065 9.827499016605504
Sc 10.31349628238679 15.292941072872447 11.503577492049688
Sc 11.32472803680861 13.824318833643863 8.749921760803744
Sc 9.151420002547322 12.565451003785386 12.393836823199203
Sc 6.5439311681397685 12.859399665362272 13.792777547353655
Sc 7.333404143984211 14.85233414307398 11.815877530942343
