22
Energy = -107.59144639 eV
Sc 15.821732027290361 14.42395627111899 10.438106430181977
Sc 12.874339249906145 14.53389106854644 11.34036368691289
Sc 8.297508096252233 10.994059716780155 13.79230844226127
Sc 15.726561940487928 11.357137411087175 10.553879206351686
Sc 12.16385399414088 12.429589572103168 13.62479621445976
Sc 13.312884167191827 11.274017695929615 15.926433956425452
Sc 15.300740624436502 8.278160004901487 10.85563179104146
Sc 10.523814198338998 13.41794304118008 9.712346959682392
Sc 10.249010515147733 10.504520244536542 11.82182580168359
Sc 8.043107748847458 11.760033621740956 10.539412790841588
Sc 9.57905655243949 13.477040443086457 12.524961098523843
Sc 7.832313865519502 14.790013292453006 10.43995121236247
Sc 10.718780721195635 10.435957918596 8.923483062664321
Sc 11.327596798090982 9.631967232826316 14.403685244372893
Sc 10.26925147229915 12.168859348643975 15.705505282176889
Sc 13.72391244506247 13.0574285573178 8.691513119317689
Sc 15.04695690443623 12.951327572264576 13.040127224994235
Sc 12.337899814953966 8.528923641263143 11.120278203688935
Sc 14.148155581912937 10.018097545756511 13.135162489184307
Sc 12.81836082756614 11.608118599723221 10.902672481486222
Sc 13.805415779543408 9.868903698032307 8.787928205300641
Sc 10.229439475854502 16.176787963907238 11.008626043793884
