25
Energy = -124.82303562 eV
Sc 8.722303805309787 9.327935800132742 12.904626335450857
Sc 8.371982845091866 9.861066505499702 9.957601732252268
Sc 8.956003829898798 12.25275422588665 11.995572315490554
Sc 9.982238822784618 7.4859371568287285 10.876930218654344
Sc 11.63593819773894 8.373743495334741 13.492058398215105
Sc 10.559023945063688 11.244442647272923 14.511002310541015
Sc 9.76082283981885 12.1903923353194 8.93592081876763
Sc 11.184152768556867 10.283959599583634 11.191886220717752
Sc 10.650103162637278 14.510318966282972 13.991484645998364
Sc 11.222890144335311 9.324418007611431 8.474017251653418
Sc 12.91754148547065 7.704921514167547 10.686618418579329
Sc 11.671946998932876 16.848315679379024 12.237079353738789
Sc 14.453783309800853 17.624361785642623 12.543666730510626
Sc 12.720424003147155 16.804092695999966 15.033185669603073
Sc 12.662816154383476 12.314007787611722 12.81170244739957
Sc 10.951496042262978 14.203235717640965 10.970737680267876
Sc 13.55708433787693 15.445030387437752 10.221052926968307
Sc 12.856579814056992 13.361713072193522 15.676521245852628
Sc 12.665726920910815 12.417151166862634 9.33350787639474
Sc 13.364532677327455 10.322672376213367 15.268791921004926
Sc 14.310948509536292 9.79877327547449 12.478294501241274
Sc 13.742733901551155 14.89670246282715 13.145037343757194
Sc 14.22109074509709 10.02853657339075 9.498690344940007
Sc 15.314506679086515 12.34539784700617 14.207735644805934
Sc 15.094183564979147 12.699891913398757 11.058283041137587
