27
Energy = -135.80537403 eV
Sc 15.392102832691277 12.29143595077609 13.418414048861285
Sc 15.092104333170429 9.396132738923614 14.280159194123913
Sc 13.890270999040338 15.032724260314204 13.021847753057811
Sc 12.246419850695444 8.57666827459254 13.267862399369486
Sc 12.692235355731018 12.560066131398399 12.367484644565595
Sc 14.202185399866403 10.201280407483923 11.542788276088478
Sc 14.271873420513957 13.314360341719633 10.258347561877027
Sc 12.627389570437657 11.14609585485012 14.933004518739715
Sc 11.609781016778628 15.088249465734723 11.09334922148705
Sc 13.184001356833953 10.589961554852097 8.616457376452377
Sc 12.728389472369077 7.594413932713773 10.324004473331502
Sc 10.332465938874279 11.239270111196975 13.041143121564346
Sc 9.568146556706976 9.1007075146681 14.707406333920629
Sc 9.73279893128932 7.524535354728039 11.874786665336709
Sc 11.154941939433847 9.769409394225255 10.755583156301027
Sc 7.868944725211411 9.960845058546273 12.299844285212743
Sc 8.194311643016805 11.964388530143857 14.648519786152713
Sc 10.892153389127483 14.029460669632018 14.013807245329303
Sc 12.246905184112457 14.162871800760623 7.877581958958026
Sc 10.611047547373236 8.855598187277192 8.036461222544373
Sc 10.798201035163443 11.620355341020016 7.037638393676406
Sc 11.15130707736297 12.542544121943555 9.845896288281057
Sc 8.055099101138994 8.339465534385027 9.435029001486562
Sc 8.655095197959977 11.097032392151919 9.619738622452692
Sc 8.823555828854268 13.380429081176267 11.717012773193707
Sc 8.09004393914796 10.334810140100751 6.955158443608076
Sc 9.09928586225851 13.745993747666748 8.198444172863715
