20
Energy = -97.43150625 eV
Sc 12.653358845950558 12.295809209361803 8.529767697248092
Sc 9.687783808794629 12.232249682054226 7.793604984477174
Sc 10.944006211649382 14.730885242151079 8.983405491229194
Sc 15.532956146800617 12.140132450067226 9.54142140183554
Sc 10.413981746142671 10.444442135864477 10.182964907638432
Sc 13.76590150456172 14.587597866158625 10.442040513686893
Sc 8.81890359276897 13.204385305347431 10.472921114498021
Sc 13.464957620972736 10.046016850847248 10.413716701338263
Sc 11.68982773464649 12.929512248893882 11.184758132911792
Sc 12.18082093114655 7.781188230809443 12.128595921427063
Sc 11.820086901095225 10.504652038353727 12.997465374699724
Sc 9.862357952467038 12.747470095871906 13.49305377506632
Sc 14.53392391466191 12.257047117171753 12.35833271098463
Sc 12.703131513129001 14.237358832737463 13.667608617757736
Sc 10.369096891035582 15.391290591162424 12.120968274443083
Sc 14.535173058032273 9.320392999454379 13.19877381937559
Sc 12.45398274236055 8.630974777360647 15.209154088319657
Sc 10.328037737434336 10.815815396288981 15.751718976066247
Sc 13.153404757935066 11.684406296385038 15.296571335419578
Sc 10.891674304605663 13.821740549848926 16.036524077767382
