22
Energy = -110.10019963 eV
Sc 10.166569799682378 11.428116731209998 15.20470586879532
Sc 15.124442499752561 12.37122558988119 11.858081177352963
Sc 9.919324085393615 11.284171402804501 9.896924144018316
Sc 12.199241492876988 9.11711149760713 10.99992666740791
Sc 10.5376348025265 14.31863121309723 15.325815085679675
Sc 12.424907415820662 9.162104472105677 14.803509891767652
Sc 13.321209688430075 14.176388501976033 13.912549395375393
Sc 14.852578265405283 9.323630237026261 12.677042423785792
Sc 14.86574990195168 10.08898985534149 9.694860738142829
Sc 15.024798553124201 11.165926387715652 14.934330943808778
Sc 10.829803628175195 13.043448638170716 12.506570646678114
Sc 12.438065544714762 10.566221789389367 7.867801005366796
Sc 10.227827168752068 15.812093741384505 12.800677644698704
Sc 12.701705543279223 11.250705453376401 13.295006878397876
Sc 9.850340882498479 10.12416244273294 12.731799663075272
Sc 8.284859714217275 13.24743886539811 13.224864148746175
Sc 12.685289667675798 11.898953568011683 10.304491966009182
Sc 14.460653911496902 12.863335789063688 8.42753307617318
Sc 9.47614864728931 14.396311811549275 10.353424491991928
Sc 12.679416585234438 12.407041158532548 16.264108027485104
Sc 11.433902890431115 13.407297005515469 8.178772058166079
Sc 12.64409183890363 14.778725415243734 10.799257618461388
