22
Energy = -108.45864877 eV
Sc 16.853173141243477 14.236416034260245 12.161881684684834
Sc 11.144581444774712 11.528868521716173 15.98997993159193
Sc 12.448724853237676 12.05291687335895 11.000037357630422
Sc 9.255037812950421 12.758752365784659 13.23870170659201
Sc 12.365089863385075 8.5779938941055 15.056781207452866
Sc 12.78491831191972 16.120296495563384 12.736161407426007
Sc 12.30690239672652 16.086926395796795 15.672134662918738
Sc 15.415452491615161 17.105961966571712 11.973211780471814
Sc 10.782481570442592 14.526128965104895 11.156193007808081
Sc 13.734057704544764 18.417460857997384 14.205797033833123
Sc 14.008936619282386 9.672014186705583 12.261654777049456
Sc 9.855425465979375 15.802555783604742 13.655138745230301
Sc 16.65797184077169 13.059713402621435 15.13738184251519
Sc 14.079840329422058 10.858099550333108 14.983946980509748
Sc 16.684768299744423 10.995560734454777 12.982067046506057
Sc 15.183225549858916 15.757337283008965 14.612020772958882
Sc 15.50866141838791 11.96392973378775 10.435725770242453
Sc 13.801668609254882 13.498743428782078 16.20757609675799
Sc 14.094672198010002 14.631797550093008 10.487264336152295
Sc 11.401668753279044 10.57885396481735 13.3098190039652
Sc 11.754120949166955 13.599235667885026 13.933171062265554
Sc 14.489244836252299 13.048037404126601 13.049201749157042
