23
Energy = -113.41731137 eV
Sc 14.570038486080003 13.350690788908427 13.916031936078177
Sc 12.299904982186808 12.025088179863193 15.433009507333855
Sc 11.698770699520002 14.099339896917558 13.314922311365526
Sc 15.551759301739084 11.102004686813993 12.090583426293216
Sc 14.06067242675826 13.471210134501115 10.934523190804901
Sc 12.680891357315955 11.465121681383302 12.546018530969258
Sc 8.648767347788072 13.97902447211547 12.459300810113914
Sc 9.748949634760415 11.556847001004483 13.871175490990732
Sc 11.416858365782796 8.994344623085098 14.141808383282942
Sc 10.63409896657741 12.950183828624922 10.219907784948287
Sc 13.478389402707446 8.409651761992832 11.874857812664466
Sc 7.901455565822516 13.993572419431477 9.515203817420108
Sc 13.748601705788685 10.580719268164351 9.683563479217078
Sc 10.786626830341442 9.810129171262862 11.192660880097346
Sc 12.890751331493039 13.005134368726317 7.979895459171483
Sc 8.587375989534216 8.745177322142938 12.900854401822093
Sc 10.721350111058058 6.89051155393468 11.822443970488102
Sc 10.021115898687759 13.528404598804725 7.318940775348877
Sc 8.06193116125436 11.360174085080526 11.207177045810896
Sc 12.00763511760719 7.834295275403747 9.288250771226695
Sc 11.059449521836603 10.635687956588425 8.126978210303486
Sc 8.323169806948583 11.327111191328063 8.313125333601592
Sc 8.895697928897574 8.45388658892597 9.668946536684173
