28
Energy = -141.39239412 eV
Sc 7.667941610392983 12.431645533368636 12.701141236390088
Sc 9.981747829134564 10.119504289499314 12.067841392738604
Sc 10.891824597922945 9.791489237193192 15.151114885860563
Sc 7.534769432036943 15.401482855670526 11.711795089746891
Sc 11.618852351818377 7.411014461880633 13.14353908759612
Sc 8.014937348783185 10.632703934025633 10.006481337690325
Sc 13.439845590084637 11.65120303123846 15.443251657826549
Sc 12.874123236733352 14.838208218838234 14.26629800707463
Sc 9.60384007328666 7.588601377380892 10.670345323573901
Sc 10.992236035180353 12.60962385091778 13.727560771244008
Sc 10.172587545018885 15.538972660636814 12.971367645334626
Sc 7.165587729509488 13.542752940493525 9.668132684830518
Sc 13.685411086829399 8.50120684011879 15.318462049091053
Sc 12.896910755099276 10.091914739194294 12.883894977797677
Sc 9.690465671688779 13.133152962079448 11.071785064944214
Sc 14.66522470932506 7.695119813475738 12.511987170257035
Sc 9.776159329310602 12.440667791428167 8.203433354370258
Sc 12.258201722951522 11.703583350173457 10.301167684878465
Sc 15.742244737989287 10.236892935043523 13.798832103355158
Sc 12.62638715210957 8.254222044573382 10.235940011357588
Sc 10.527570127935071 9.66592567011429 8.807867880831866
Sc 14.401124160593955 12.793585379985798 12.63591605402483
Sc 12.493554700614043 14.776734568954494 11.151603032696878
Sc 9.782797742451832 15.472547974049691 9.55325221138858
Sc 15.073990504063033 10.200133685300917 10.609993087250642
Sc 12.341457411871483 13.91795345734407 8.187337566453317
Sc 13.340770726897722 10.911688003713042 7.891445651025999
Sc 14.767834776245305 13.091845164865578 9.54584033010463
