27
Energy = -136.39400797 eV
Sc 13.566430148385773 10.656040121072689 7.1976068219520934
Sc 10.799236232709474 11.864475748546838 7.782215656892182
Sc 11.408590079434054 9.043553290907974 8.965017161241088
Sc 13.456388631740577 13.593792203229317 7.9379022825022885
Sc 14.758403909212571 9.066982599519598 9.413945006000528
Sc 8.21574067059183 10.478097791576612 9.201214344565292
Sc 15.643653620502853 11.949987596016424 9.11417667400442
Sc 12.887409816926729 8.39546580545395 11.676501373296905
Sc 8.536247056033133 13.632131201760414 8.715827642539693
Sc 12.82072449900937 11.399345246335784 10.022934167981122
Sc 9.900293171826668 8.957274492731068 11.714150219366228
Sc 11.340145978492899 14.470301181405794 9.892283559072835
Sc 7.339161631274261 10.255022257363871 12.306638800424105
Sc 6.797649870723331 12.780581215275816 10.953931991340989
Sc 9.801174662328922 12.053561727612943 11.028803114403845
Sc 11.418648913641109 8.084421454081333 14.338935844473086
Sc 14.08457004360303 13.763192920162902 11.256468401154997
Sc 15.138412081766347 10.921996944129264 11.972641164387221
Sc 14.261567668828002 9.314009461686835 14.3786551803243
Sc 8.788530009997535 14.985558056741162 11.501114140322159
Sc 11.966319059090754 10.934687815601144 13.134121657236918
Sc 9.43154572661985 10.301429143497597 14.66621875632167
Sc 11.438567538901067 14.042603643940021 12.899982624317019
Sc 8.409767985899101 12.868725105850263 13.583058131786236
Sc 13.930232195671696 12.502899515799745 14.561104909641804
Sc 12.140379767170304 10.366052892906389 16.17334373834703
Sc 10.86501066008046 12.91663951065554 15.538278942207997
