23
Energy = -113.88515957 eV
Sc 11.391536735264065 10.665414697534922 14.817050563622793
Sc 10.665617802947615 12.111625143747442 11.035265693943906
Sc 10.532495142988093 13.507705895571652 13.71475400100497
Sc 10.106806656902442 8.160389656618545 10.76648141738514
Sc 11.424104045895081 10.148670782611068 8.944539748413277
Sc 13.626504128017135 14.950095787484937 12.34844848542154
Sc 15.83184998096341 12.771446646425055 13.275675199841517
Sc 13.516204929454117 12.93901801643231 15.437679189933089
Sc 10.182163675658403 13.37382977502183 8.577389532176545
Sc 15.735644221170084 13.914317633063503 10.433096700922874
Sc 13.103200822963144 12.967342436642184 9.802827697123828
Sc 12.133128428613931 9.547965362369053 12.079404120012484
Sc 10.960094229105957 15.025921493644644 11.00394692098058
Sc 7.40018350694551 8.180486296588432 11.360058019343652
Sc 10.13514940666043 7.870280379113171 13.720821832653185
Sc 8.494272302152744 10.612105903303968 9.805858012846253
Sc 14.432482693422482 10.179028839303198 14.229583582663063
Sc 13.450188234970508 15.806350452362443 9.411653325160616
Sc 8.5167035759734 8.149929317200415 8.419610952140786
Sc 13.056825984855163 12.18387255134803 12.828293105141904
Sc 9.084487622094219 10.506144024256407 12.862512324822719
Sc 14.954110815095124 10.82075701853504 11.061558578441543
Sc 8.317121788777248 13.535727538269597 11.232844731288967
