23
Energy = -114.03825649 eV
Sc 11.847475506212774 7.751794475350147 9.737346975140394
Sc 8.821520512799092 7.132555909261358 10.529302453965736
Sc 10.837077211784377 6.901571948271845 12.674531848100484
Sc 9.504440142321883 9.454476675831163 8.439512259969272
Sc 12.450407720163229 9.699516092219882 7.317743332963645
Sc 14.428113349280853 9.508267748694028 9.337303733467634
Sc 10.236229096099773 9.635691201927706 11.698970344862753
Sc 13.277834517302788 8.949913323840715 12.21373608768036
Sc 7.19164516747529 9.52443093981006 10.392448126989118
Sc 8.219564644315907 8.611782894622356 13.358281430555532
Sc 10.80370934897412 12.04328468900887 7.077979426241971
Sc 11.74545224046104 11.34955059585112 9.996327560786687
Sc 13.769444583910069 12.507373971053086 8.26648798992969
Sc 8.45990572093606 12.209457008247199 8.970619051775097
Sc 11.178380902291583 9.103948039653208 14.606453528517807
Sc 14.712967255603816 11.593237963340295 11.233943186877239
Sc 8.112207673600123 11.838562638807458 11.859931399218272
Sc 10.7072539701358 14.25799857259099 9.190480956384777
Sc 12.284868647089704 11.779940654526744 13.248991395408057
Sc 9.491788520774426 11.449453390896108 14.371600180045366
Sc 13.109858193841974 13.97246815432997 11.067482256662041
Sc 7.919566889119144 14.627441807261345 10.623056940695033
Sc 10.30961148302019 13.757451208080317 12.17274758979295
