29
Energy = -147.07886642 eV
Sc 15.530681087509409 12.258883444640304 14.480108057260951
Sc 14.470559937155455 14.688554050500448 12.955099744591372
Sc 15.429887710354214 12.206333446839809 11.275270928238772
Sc 14.993305370058339 14.799982258717854 9.54916572573986
Sc 15.11538527075519 9.65034827320497 13.206542825703147
Sc 13.091272561367315 13.584024102182097 15.478190128011414
Sc 13.10945112758536 10.41338311802808 15.610213173250573
Sc 11.188831381715659 14.516384057240103 13.371155719743767
Sc 13.911606565436946 12.072255748384801 8.416208660215036
Sc 12.799353000043608 11.72480864466792 13.015488699272414
Sc 13.481735834529285 9.79824909268092 10.586162692679252
Sc 11.889284472880998 14.46218824492631 8.091804761123722
Sc 12.776440653247773 13.73898222121193 10.775714806196241
Sc 12.258931374625975 8.517273113234834 13.173548068606593
Sc 11.015084322992653 11.56838265761285 9.655915271760486
Sc 10.419058202487111 12.080782567837336 15.197896121726231
Sc 10.705293126659067 8.381199777625792 10.24853490594375
Sc 9.170220417877722 7.587194351154072 12.978601461460643
Sc 12.236330378817474 9.396682731241693 7.785613738045916
Sc 10.030353458941153 10.450429609866607 12.388427375625875
Sc 10.126490794902068 9.172889878522653 15.250830561276569
Sc 9.709732637720714 14.387369468263476 10.584820092620017
Sc 8.559189153634023 13.035603498597036 13.047443253481738
Sc 11.316776683877059 11.887869506717493 6.542041863286658
Sc 7.76632881244988 8.966715125247825 10.806513766928784
Sc 9.071862278408323 13.230988511493045 7.904974888972754
Sc 7.548073436602125 10.13499702163997 13.72180763685943
Sc 9.0936875148004 10.060871009798259 8.048484160939987
Sc 7.861566727053618 11.856980649193165 10.38019751983913
