22
Energy = -109.49834636 eV
Sc 7.878227465900866 13.926835387457048 11.664901861011572
Sc 9.284315694798178 14.79886935566182 14.336594176098723
Sc 10.46701830791247 15.495243947655155 11.600788630292136
Sc 7.9179400680686705 11.98582086664476 14.068989036970988
Sc 8.524438251359799 10.788698056523996 11.172962387990216
Sc 10.180836062314182 13.13595288701691 9.591198243892153
Sc 10.401619160801255 12.688919467329024 12.661063037069956
Sc 12.518916671658099 14.254795581467127 13.912714116576415
Sc 10.18194375846968 9.724154746817117 13.768725334500985
Sc 12.967215207657794 13.788055867275279 10.789240957186879
Sc 10.557012913625224 12.312135091850342 15.601903314337303
Sc 10.37606425790047 10.125708846979206 8.734454968545649
Sc 12.987594836057248 11.10966038693894 14.132330221529692
Sc 12.026790915148418 10.78412012520495 11.189944996533638
Sc 10.233320481888013 8.186905952865493 11.040692845851622
Sc 14.906741501898413 12.730846411600021 12.631319010018222
Sc 13.123659436708294 11.568639560189673 8.542279083245944
Sc 12.787564082066707 8.308195432189617 12.625770297770098
Sc 12.950559809135434 8.499462617532465 9.488101930742873
Sc 14.938422505011534 10.119878895954892 11.16616534085347
Sc 15.66178667595754 12.555104298247532 9.646184413008687
Sc 15.54395603817344 9.859998494500765 8.281580034571022
