21
Energy = -104.00692821 eV
Sc 11.22096513560257 14.04913480064528 14.341461127484695
Sc 10.494480894391595 13.908025995019761 11.190279268537163
Sc 13.204586307160632 14.01367673546373 9.464700924967726
Sc 8.665284797656847 12.613526078056225 13.545431775824074
Sc 13.374867489466109 13.8564068428449 12.423244738267856
Sc 10.556897289854948 11.570194596760116 15.850305058692811
Sc 11.050503253980661 13.418825767766913 7.439124191305464
Sc 13.524084231316756 11.768519356074362 14.784523682519948
Sc 11.404929550122729 11.35914329547631 12.821136338479715
Sc 14.161306146633656 11.559979882621152 10.722292848401798
Sc 11.92246280410177 9.03809268338434 14.860460047926074
Sc 9.079194728642374 9.56540994741378 14.112110162189316
Sc 8.584615860068965 11.868158033381883 8.545228899511173
Sc 13.803395393440313 9.345468474491975 12.610583748592742
Sc 11.232320846287482 11.479057530323157 9.683290894832222
Sc 13.51015056236838 11.630295523821562 7.672020977483844
Sc 8.659713663568706 10.50237037510784 11.3238961603376
Sc 10.983586888345208 8.475096902000816 11.876278707960735
Sc 10.800392783333018 10.481607287149805 6.857551192705492
Sc 12.739956354113989 9.109302076317972 9.458961985289234
Sc 9.557112396293997 8.937188568866365 9.017176878753135
