24
Energy = -119.46186228 eV
Sc 14.586104932747649 11.916081252313255 9.793990215581573
Sc 13.089188832494676 11.227560034499376 15.552032150699759
Sc 9.297680307225983 11.648927947949758 8.539392551633757
Sc 10.693519145179875 12.982681633365756 15.765132732485101
Sc 11.285501034181335 12.189936350983281 10.99826176069947
Sc 12.294557733534903 15.441861198104512 15.109640772125763
Sc 8.414152247433423 11.829949373156163 11.322703552211951
Sc 13.454555114939284 10.382872915718718 12.228203239709195
Sc 16.171593001265613 9.997321937029481 11.226978847205071
Sc 12.738635688759622 13.33608656519312 13.255511771019723
Sc 13.206143269879144 14.477195264065708 10.343672898855583
Sc 10.764552507519676 9.608542029700436 10.297463385529776
Sc 14.385295697578936 15.914566756257441 12.901291342444157
Sc 10.46282265441434 10.85739982214232 13.462361681250044
Sc 11.531123331606015 16.09056156086991 12.079155435996132
Sc 15.441074657075202 11.614085963841005 17.328013645508594
Sc 13.785565193861856 9.228669447104117 9.389742929109664
Sc 9.953929427232229 14.43663361008195 9.91420942923706
Sc 15.031943569345719 13.759787068009835 15.266992398230878
Sc 12.128857385910772 11.717348158239627 8.28363221855262
Sc 15.773450674657898 10.90284836800475 14.389995010449042
Sc 15.566741944404665 12.974217271762614 12.265835082032138
Sc 13.078477882834795 13.4978249513084 17.4924484522861
Sc 9.699776894273686 13.935774279642366 13.074796371839586
