20
Energy = -98.04808152 eV
Sc 14.613860910506197 12.843004555374431 10.970513402933042
Sc 10.951714512117553 15.148611907104717 13.903478874459598
Sc 14.846413148433038 12.527770366557915 16.02391288653772
Sc 10.454665262734828 9.950733466169131 9.891760743226818
Sc 13.091648406608435 13.16883251886948 13.721882517783463
Sc 15.957165679178532 13.93654282747658 13.534911103218828
Sc 12.523009445656403 10.543832084312674 15.205725174243376
Sc 12.154689197668638 11.236325417747464 11.902791929996777
Sc 10.11053109041655 12.168412658273875 14.324432353527431
Sc 10.280376491883406 9.409780804484912 13.035543471988598
Sc 12.452505329261475 12.31736338102636 9.025285007674459
Sc 13.871210737901105 15.485680577996956 15.330164430793259
Sc 13.641406806518363 9.763932689499153 9.841059290754616
Sc 11.899555516086709 13.38292312570318 16.430580636607033
Sc 9.625570307864264 12.450606191245177 8.608171160042009
Sc 11.621974960566543 10.24068602723075 7.327229170801468
Sc 9.111428832229336 12.001000914358201 11.59524448691996
Sc 13.69404461710095 15.656328690702392 12.244503137925454
Sc 11.282623219433612 14.087591018352729 11.010383336428346
Sc 15.025769914821963 10.890205164502323 13.282591271126199
