24
Energy = -120.13389724 eV
Sc 11.39007078871621 12.810267353020837 8.417148361147133
Sc 11.884415624008867 9.144162550195048 6.623838112640215
Sc 11.125872862364472 14.932452292233075 10.87036445087645
Sc 13.612141366228949 13.024516852791221 10.552386148837652
Sc 9.19937601319728 12.563748627729002 10.431285742107267
Sc 8.670901164492172 14.596365671813263 12.745995686137578
Sc 13.65618624587013 15.211053006307841 12.727219744138239
Sc 9.599698519408792 10.479524163437667 8.096431871253404
Sc 13.41837365110393 10.670817440747141 8.451951517279534
Sc 11.090727604489388 15.96020136809095 13.961030409728984
Sc 10.967315719297236 8.175645675757416 9.294148222414801
Sc 11.575811902018529 10.702941397810982 10.894696101611965
Sc 8.627060109563375 9.551199382417472 10.832547413933812
Sc 11.617310567108365 12.952365183537498 13.07109101385184
Sc 14.731578116423657 12.504588694371224 13.311561395659737
Sc 14.577679219395945 10.056905179847986 11.153524700909303
Sc 13.817939141545232 7.8760388307030915 8.808231017415595
Sc 9.72440545313835 13.796744008567854 15.43471208174511
Sc 8.934110719061009 11.576538716116112 13.333453696969789
Sc 12.732223073504015 7.769114266609507 11.683386229108935
Sc 10.460920128865714 9.057591067437286 13.15292822815054
Sc 12.887823769421255 13.838497545763436 15.541451333752109
Sc 13.128274194171524 10.083008822495936 13.759443745508673
Sc 11.046170028755247 11.147452268206827 15.528509199663393
