26
Energy = -130.19269345 eV
Sc 8.169614641529026 11.042141871985702 13.905244035919333
Sc 9.285545873648344 9.084392611512783 11.685727496835455
Sc 11.125225869896651 10.21176146060939 13.92377322926279
Sc 7.303263576195996 11.775220815540647 11.155221564520772
Sc 7.330262713598391 13.898537426333455 13.73175259522849
Sc 10.337124810792472 11.987992669734593 11.342775805014451
Sc 11.961780279999957 7.788741610170654 12.26601514841401
Sc 9.131765228110421 10.058286783334323 8.880538371561476
Sc 8.468215493230959 14.414866583851696 11.249328359784057
Sc 10.169131385293563 13.166652571688171 14.158176739324874
Sc 10.017379059680165 15.867874057912015 13.054313148794696
Sc 8.650859569818577 13.150867700615512 8.700354682158912
Sc 10.247848346240001 7.139005296811242 9.643353883562556
Sc 11.004478947337443 14.994863969039566 9.992667088050569
Sc 13.44326776616287 12.18933939053617 14.652437242792285
Sc 13.902641826940057 9.055696139081196 14.180989475942162
Sc 12.46285024321753 14.14961865986506 12.462255516869323
Sc 11.859737452969883 9.478375523841917 9.895764866201505
Sc 13.4682996129406 11.140139357914517 11.854303260251564
Sc 11.54135391950857 12.25644131591548 8.638136683874372
Sc 16.108766314584017 10.767734668821891 13.467890593823052
Sc 15.43907858278111 13.54272266411203 12.631641659138003
Sc 13.921490788486118 13.46882799919675 9.926921579425942
Sc 14.989799828543747 8.698445510517448 11.20785160504342
Sc 14.300329339631443 10.690842872899355 8.705661505317327
Sc 16.385119410541023 11.487621656968392 10.597726415252694
