21
Energy = -104.16612232 eV
Sc 11.697176572245018 9.432803845088806 7.106620752763936
Sc 10.264576827917857 12.133562932529916 8.50851599021384
Sc 13.485028152030946 11.767660210276357 8.149298952136563
Sc 7.260435307298683 11.708910977996538 8.332456002807518
Sc 9.081871125072473 9.307063827571943 8.929915942801447
Sc 12.233417357923216 13.534522818720475 10.453212609270455
Sc 11.515121522443653 7.286855148098695 9.344574972358298
Sc 14.207407752367123 8.880034291746915 8.831293224825687
Sc 13.331920184063545 13.750182217683028 13.255007903107483
Sc 14.27286636253004 11.387645968615361 11.101236309450412
Sc 11.911274013270743 10.04010981412854 9.833590090022204
Sc 8.437714632669092 13.371936997206417 10.667792354032922
Sc 10.477210933806958 11.477845434036139 11.829097291737776
Sc 7.603769477665791 10.583574069681768 11.145761474957267
Sc 9.69473510824343 8.404550936573516 11.736291338529545
Sc 10.386450264000448 14.279251670607358 12.89634339008776
Sc 12.654427733764134 8.44701586277611 12.112522445285835
Sc 11.02865897122255 12.528248605832154 15.134162873159278
Sc 12.778161438033196 10.954764714671228 13.566743601546113
Sc 8.361927309629124 12.104902180666159 13.696815154089883
Sc 10.332855274200814 9.63556379589072 14.385753647214129
