27
Energy = -136.38944101 eV
Sc 14.846246168697647 10.213240207605024 13.740094498174296
Sc 13.275372959977231 7.687684388234301 13.314877986293713
Sc 12.17777286523453 9.935598438995145 15.223630970706578
Sc 9.168953228929892 10.47421782118718 15.276287320244876
Sc 14.611402167352672 9.128838528930947 10.761049180730614
Sc 13.227893789174582 12.878402510263111 14.255746227343966
Sc 10.101171382806873 8.473220328987288 13.119574203827666
Sc 10.878552508091628 12.732477856750522 16.206108181117983
Sc 14.59219581005307 12.466305250734553 11.569313532309504
Sc 12.290055977186226 10.198925630670512 12.180118712203145
Sc 11.935903340463945 7.585715621895445 10.671940584712024
Sc 14.028001550239363 15.31568478927832 12.54892760980466
Sc 8.19098383848762 13.282211335771308 14.825365646663759
Sc 11.012040321651005 15.089126454066184 14.231359440760867
Sc 10.426871242536674 12.312608652176776 13.176230870644709
Sc 12.163012341421073 11.894376106828739 9.634314726386037
Sc 12.650600201684925 9.402986922691714 8.23965117558363
Sc 9.823077401363438 9.64090650213914 10.15943124639826
Sc 11.659527114483003 14.360028919383097 11.29957645043065
Sc 15.026680028099847 11.496057430225632 8.714316546988426
Sc 7.946320928620519 10.98438986061147 12.510873650859768
Sc 8.724721157616676 14.589860042084227 12.18681894303338
Sc 13.888009351287364 14.342562209464447 9.17721369894136
Sc 10.15565662624636 11.312607731592008 7.517805397101546
Sc 12.892785480341555 12.313972759704207 6.788091127176456
Sc 9.081419816672573 12.532280096236793 10.092793414683458
Sc 10.884824369621201 14.25863701242685 8.235853005331894
