25
Energy = -125.95579562 eV
Sc 14.371364098350584 11.091414441169134 14.284941976456373
Sc 11.446321213516601 11.621661269075567 15.262700031726741
Sc 15.092291243804564 12.891301736297077 11.960900045200644
Sc 13.34958311822102 13.931850732303095 14.474091067638597
Sc 9.959941022641583 13.705966896569462 13.555578218944717
Sc 8.893782333553432 10.619869167228615 13.592588717914852
Sc 11.663806890958904 9.488787035106732 13.03291123172732
Sc 12.48753667243125 12.208854577138396 12.540335409059232
Sc 9.486075044278323 7.722063729718366 12.315130789709134
Sc 10.057276843097048 11.971388331024276 11.074338022469117
Sc 12.161069442362594 14.739040355424738 11.261472528704239
Sc 7.336111088830008 12.666907592255434 11.93630926103323
Sc 13.99711482745904 9.894479370553979 11.249093629083623
Sc 9.14949909462225 14.76721404215336 10.716255223381172
Sc 12.989738880831666 12.053293524337777 9.485446162376906
Sc 12.152051184658935 6.939640926802469 10.514897148049632
Sc 10.969762519654966 13.966553035900064 8.492124629850434
Sc 10.900407546964392 9.37201119260167 9.979302738943364
Sc 7.846958130018682 9.7753579799444 10.78933401167555
Sc 13.39013164092495 9.071965046922138 8.349529363235153
Sc 9.1056138785451 6.849860284674616 9.578510902714575
Sc 8.344371073023211 12.25766686530385 8.779715704626412
Sc 10.924810719299476 10.967683537961788 7.434175808638178
Sc 11.013928283173215 7.601488680182738 7.5623875178987054
Sc 8.486148306439892 9.32002082261018 7.853136485670731
