24
Energy = -121.00151378 eV
Sc 11.58188501293798 13.211820836286462 8.860820975083254
Sc 12.810603456911666 10.218141851211776 8.44022302357738
Sc 10.445920607489954 8.266414187380226 7.924202045260949
Sc 8.59025336027775 13.114137671218014 8.069374410786084
Sc 12.956407064985962 7.431758853864562 9.689882540357356
Sc 10.941371328018302 12.385367662366223 11.91318638673582
Sc 13.860551460993934 12.144726051677925 10.634608619527453
Sc 10.036751406801221 10.729758480896702 9.590317793928278
Sc 14.962459166521635 9.128548485236571 11.339240469971267
Sc 7.7221702643934655 10.026373990637003 8.409371392845589
Sc 10.172181389756878 10.936392554173734 6.710048736873723
Sc 12.516368875371901 14.868421501868664 11.343486080036747
Sc 9.508275912170989 14.655045105383651 10.730875206970213
Sc 10.20916587758732 7.5645856782129455 10.88391419521533
Sc 7.597156837551898 12.327279898021596 10.662313736649743
Sc 12.194021623133272 9.737046181808537 11.432439317558021
Sc 13.486648851413108 13.023533851501803 13.51736014770674
Sc 8.151980998271856 9.649732232509272 11.627714671361652
Sc 12.828153607804213 7.310554986204608 12.717276068358016
Sc 10.655174938947596 14.57447201408079 13.812467880782762
Sc 8.520330932163152 12.094396714323187 13.523788819141568
Sc 13.511890348998548 9.984050840631353 14.009823145961969
Sc 10.34933554088603 9.211245148004586 13.67087637194926
Sc 11.188713712309937 11.8302940369124 14.94741202781488
