20
Energy = -98.432835 eV
Sc 13.086053830136361 12.16734650555371 9.86921797694928
Sc 10.524320317921166 13.92015277959626 10.149547805776225
Sc 15.548280698668485 10.697452308845714 11.862009830440961
Sc 10.219796283780008 16.547342174252154 11.552993102849959
Sc 13.055953106762914 15.13112518135991 11.043379940227354
Sc 13.10465814439599 12.28771293794076 12.70258975700323
Sc 8.356546028117673 13.931433178953954 12.124865641700637
Sc 10.31081851783963 11.411418251222358 11.705642449118379
Sc 15.725468541214905 13.442897901422121 10.801311338264249
Sc 14.07514566394997 9.000717954699557 13.974149377305796
Sc 11.007870437214974 14.35552715296783 13.157587090216893
Sc 17.542704712014636 12.697246186373091 13.005022103155754
Sc 15.001171063615473 14.501670940818366 13.433577033549167
Sc 12.73120611593399 9.51628908849995 11.48190714689671
Sc 15.330265317126248 11.799024190407055 14.8481569392053
Sc 12.84556191563964 13.98742064896963 15.47721140984262
Sc 9.852946000954166 12.115911632489764 14.594737038963535
Sc 12.723173534515302 16.630809897064292 13.645716088930099
Sc 10.870655220628153 9.197754624213486 13.762366852462208
Sc 12.458544420372615 11.031886335152183 15.179150947943663
