28
Energy = -142.10486537 eV
Sc 6.89365094303582 11.443416503198648 11.390411169147113
Sc 7.700653718247371 10.195078756379718 8.793452353563142
Sc 7.615190677750423 8.54049552400979 11.3800862128788
Sc 8.72727083816039 13.084028738001702 9.540567369827707
Sc 9.001568483426158 13.31009631219078 12.65170716761618
Sc 8.594995814569378 10.398565889253856 13.734924806806086
Sc 9.702964873866932 8.029621491083256 9.29890378962962
Sc 9.983953671294632 10.709351763400807 11.021084969810623
Sc 10.733354647940251 10.648426077995191 8.051306065617284
Sc 10.58656959079346 12.66575818919666 15.29342628742849
Sc 10.59724890556551 7.967648365390479 12.245052489402774
Sc 10.553235009082442 15.573162958244462 14.148977790231488
Sc 10.720321102200751 15.393971555364024 11.03249841317709
Sc 11.509140936678943 10.212594103803486 13.880153182188216
Sc 12.538024420018633 9.010341240920164 10.01881038662053
Sc 13.136181180250718 14.542520112247484 15.379055931153314
Sc 12.03500754811376 13.390671611077373 12.797953879681717
Sc 11.64847878976098 13.05144771954136 9.443858561786879
Sc 13.854744622188159 11.56155856115191 14.852968968665362
Sc 13.688206807315519 11.360207606151091 11.558949349637714
Sc 13.217652707052611 16.18192141299635 12.813686301808454
Sc 13.856611753140376 8.68950923383693 12.86078924736916
Sc 13.98974143612222 11.415808716461898 8.599319749439562
Sc 13.998579988122886 14.429252019328688 10.363397817626717
Sc 15.274787922382519 13.774796823564248 13.148811171560297
Sc 15.61218845499776 9.433594445884284 10.38697074542507
Sc 16.25353655365793 10.745601439698397 13.054482316003492
Sc 16.336092159410164 12.384239254363834 10.489102980891694
