25
Energy = -125.4596823 eV
Sc 13.07718396040549 11.53016984871495 7.974173702054676
Sc 10.006613940823394 11.10745199172942 8.196520471931835
Sc 14.500429167699464 13.940117460553743 8.85293840411909
Sc 15.56008487951742 11.243519819960257 10.098877613510865
Sc 8.921972736994164 9.177298458186403 10.538510022319484
Sc 11.386026451287885 13.795312805754046 9.067170160070587
Sc 11.867450512943106 9.53040220374599 9.932469855670396
Sc 12.682960163938489 15.204680151099808 11.541209372051298
Sc 15.593479043570625 14.16739972428318 11.727820055698244
Sc 10.143127481643914 11.783521107493746 11.025159221849622
Sc 13.23513411498488 12.292690723710093 10.88722737480578
Sc 13.73584993824889 9.605793390973126 12.250779536865755
Sc 9.68934877903222 14.579160546324918 11.73721423216278
Sc 15.131092215041292 11.878132854331879 13.492579267485036
Sc 11.881540049123851 12.696583647434666 13.433526143156547
Sc 8.172408541965217 10.9736416207307 13.049987725713041
Sc 10.832892335212453 9.556754085855385 12.955246189823818
Sc 14.096942514557341 14.68666309279782 14.380254745598805
Sc 9.233663290407037 13.351333759719237 14.406415180602279
Sc 17.005518721096173 13.941932138798894 14.525591989664038
Sc 13.069177429979707 10.52622661159178 15.218449354101887
Sc 11.124438868118462 15.585612809594853 14.315126663782506
Sc 10.061284134064724 10.83388218240122 15.6178689263765
Sc 15.005504986859243 12.657981065019637 16.349797027091906
Sc 11.867858053139752 13.23572020984945 16.307069074148426
