29
Energy = -148.09279927 eV
Sc 8.202408049366307 10.361600341534189 11.630923045522884
Sc 7.734303022439096 13.281327963074315 12.029742854720068
Sc 7.495084468532467 12.084846489343054 9.050139257925961
Sc 9.047573693764182 14.422763875478463 9.691805858285433
Sc 10.508543882014205 9.229720871303726 13.420949212361522
Sc 8.520099197617467 11.751864821353529 14.59859184916434
Sc 9.765693014944086 15.519034647647384 12.480185633678138
Sc 10.405231961208841 8.480741681190615 10.436050024562716
Sc 9.016203989188618 9.792311535856019 7.978094820111347
Sc 10.346095367369808 11.54846988931926 9.885720228060768
Sc 11.532300710922568 11.395754046588326 15.420178387777977
Sc 10.466827742976845 12.600228058498255 7.473873246266732
Sc 13.080491883287051 7.4893694185518065 11.824818424288491
Sc 11.820165010830364 14.405402408355782 10.692321523286429
Sc 10.494828321773545 12.309352296447285 12.663685514660056
Sc 15.50549298461153 9.102053757997702 12.423061619493545
Sc 12.711154909235066 10.251784622765403 11.484267163090548
Sc 13.416508751545132 9.449601469678727 14.351768896773677
Sc 13.436988081218708 12.638233242173387 13.062916478063459
Sc 13.673094964678077 13.527476550447842 15.838678867979121
Sc 10.636484931850548 14.102657592597943 14.998111257744
Sc 14.774330319151465 14.668584942028732 11.02342016911765
Sc 13.464985085320686 12.234843639671281 9.337691153744737
Sc 11.983531420935666 9.785527047544786 8.136001966669498
Sc 12.880769689878626 15.510374858916807 13.441264666852101
Sc 14.628076837647471 9.250218552131736 9.581476772769726
Sc 15.70569576686451 11.355979930378037 14.62465535550069
Sc 15.812396201264715 14.25109552753239 13.742002302967883
Sc 15.867869858691693 11.8634658405764 11.491491549940449
