21
Energy = -103.91630402 eV
Sc 8.427446040502 10.338335980758178 5.905079366739521
Sc 9.916540506452307 12.764301593318613 7.098994236593331
Sc 11.101579280678957 9.40270104611636 7.1094117394699765
Sc 8.669283488992434 7.585947640809757 7.849759645073811
Sc 9.257746867099888 10.873967177576016 8.980741409203926
Sc 6.9738371225264775 12.538473820151212 7.558096429866515
Sc 11.412063558967622 6.4957087447903685 8.611909460022055
Sc 12.554169306376652 11.690429631101646 8.67482100550482
Sc 12.83181942667625 8.926066568140383 9.39105567536184
Sc 6.728554452718053 9.754078847507818 8.188107260623697
Sc 6.093856602574142 11.420243959761665 10.387744218014614
Sc 9.180302510658077 5.791393895220273 10.50526520603892
Sc 7.076347157830331 8.157261475740317 10.66700007091494
Sc 10.114141954448385 8.644211257028882 10.459130435759981
Sc 13.649316147120697 10.134689783938809 11.736166606545813
Sc 8.450704166725004 13.312789710667879 10.03390740549305
Sc 11.18011741858237 11.72944749804052 11.170696681574078
Sc 12.09307906416386 6.97819790164647 11.722157404638555
Sc 8.404237427394568 10.672148019953969 12.094625851378646
Sc 9.047007534524354 7.465813241661783 12.962430653378409
Sc 11.139817382394146 9.625759623475648 13.194866655209617
