26
Energy = -130.97223876 eV
Sc 11.048720070407569 14.314911296933152 9.124484923243463
Sc 11.241015799494962 17.29358107636589 11.361193449794118
Sc 9.06476505654359 15.365302455568267 11.045465729520492
Sc 13.585383742278077 16.22344562855721 9.771380365251197
Sc 8.976899985440223 12.315620384516844 10.251953069639425
Sc 11.417755588021707 11.341452996655072 8.35782172980345
Sc 12.319841108998606 14.572937681132371 11.88511801768858
Sc 11.16129180897938 15.87734471528977 14.162171130006385
Sc 10.541690980342105 9.053137133691857 10.546265064802444
Sc 13.793765409528278 16.935231215219694 12.874538266220036
Sc 13.894450644545753 13.067087374183116 9.412126505326418
Sc 9.508438182592895 13.49048497158082 13.033210863356151
Sc 11.627607904721138 11.874733752049828 11.186380210487432
Sc 15.424192552836926 14.732418433254596 11.637534756786303
Sc 13.630367845397796 9.786719440024235 10.098169933795376
Sc 9.36348490373242 10.454424246251886 13.099943135094804
Sc 11.599862723226522 12.3966813946581 14.636212704870811
Sc 12.369299352766848 9.705550950278829 13.00045735644428
Sc 12.90735829597069 7.125100908760136 11.657821133116459
Sc 14.644779936372768 11.889025923673598 12.401079259594097
Sc 10.409029928166813 7.516315621442781 13.402346588209376
Sc 14.010366433702055 14.198236813613203 14.405337614053183
Sc 15.197630145172507 8.840788132818904 12.784620028814647
Sc 11.054282333614415 9.527649028089634 15.654325882456769
Sc 13.244120967118246 7.529701060898472 14.774975833432276
Sc 14.068619971076942 10.615290706958511 15.260200714108338
