23
Energy = -114.19271661 eV
Sc 7.238214702951251 11.831057856025307 11.117113638768343
Sc 11.651329094701847 12.723652001979278 8.185247454029167
Sc 9.419198118339512 10.788372871628889 8.979440486740918
Sc 7.836471647042898 8.893548000111522 10.967174092660626
Sc 9.594712021457667 13.697673238197122 10.384310329225935
Sc 13.58051900543385 8.071112899701923 8.626684860307796
Sc 7.464109298590029 10.302751529877181 13.693743203434005
Sc 11.986302082820341 9.934498606411433 7.196871818429363
Sc 12.193811193108004 15.63429422880351 9.939729673690296
Sc 10.007597424319897 10.918632856258812 12.022412068815429
Sc 11.076513683056886 15.043283727480736 12.64645333002332
Sc 14.002850690142665 14.815733984274724 12.469159270048165
Sc 8.896121848012115 13.092590253599402 13.583528956584312
Sc 14.49727343292278 11.119853648704076 8.858368813355746
Sc 12.326758195470646 10.226131686504296 10.172038188362714
Sc 10.760891190634322 7.954791598565375 10.369379786292216
Sc 9.589645411568657 8.094563858208724 13.27166977404234
Sc 10.137167782977533 10.474185145932859 15.030354318602582
Sc 12.423887595101636 13.013758899661864 10.955805108333232
Sc 12.14784561919194 12.503102118062253 13.871924785622266
Sc 12.48984070616493 9.326952345982596 13.096631306048652
Sc 14.931841636104167 8.786013730922855 10.999477605419354
Sc 14.550465854463422 11.438084449879458 12.18898188837894
