21
Energy = -103.87790494 eV
Sc 15.394329517415033 11.996378089216059 11.806976234436169
Sc 14.528758992655737 9.999794916996493 13.717681262687538
Sc 14.703980847436997 9.222512244021662 10.769046647705027
Sc 13.6051119472419 11.442382927534428 9.115038495086772
Sc 12.377416344427134 11.279227022021647 11.869855644994935
Sc 13.447353419201647 14.011813542531709 11.05418352818498
Sc 12.206179147589378 8.287703957026924 12.106298922648326
Sc 11.54762956714097 13.391872027807668 8.831950909571885
Sc 12.000021628572853 8.964371664076742 9.231490502848596
Sc 12.939106687460336 13.027987204051978 13.992043212191932
Sc 9.78749419272324 11.207084643656891 10.546294765997631
Sc 11.80147656964307 10.209264076112948 14.665869358944384
Sc 10.472701983860143 14.102066901088614 11.56535669978859
Sc 9.145315130897842 8.373300463271592 10.093546898982172
Sc 7.314092752346013 10.7765061223935 8.978635005583714
Sc 8.66064118269904 13.447708764067954 8.70424921390585
Sc 9.61210049088942 9.020551633443839 13.006122067995507
Sc 10.242158729390932 10.912383306165582 7.668280305308887
Sc 7.531863810541743 12.95009702371117 11.388067271106427
Sc 9.589152281085106 11.973516330679006 13.613560909399379
Sc 7.175342829795455 10.061676615161428 11.8852940572299
