29
Energy = -145.95586495 eV
Sc 12.630524852922367 8.666192375035285 13.99832042373341
Sc 15.065575161325523 8.48206690656924 15.775464126391812
Sc 9.984622515564231 9.01864485789103 11.838433329323637
Sc 13.571770152156358 11.083879305721215 15.462043750485378
Sc 10.95365660858496 11.427325927957295 13.751343042176108
Sc 7.589923994359761 9.346000236048342 9.994181098184159
Sc 8.47139151484191 11.720038084126907 11.7358866600016
Sc 12.602132503808075 7.432922986043412 11.09747899015717
Sc 11.991357399220918 13.947054161171849 15.33424138127641
Sc 9.544984055679844 14.339799455501247 13.688958022389475
Sc 15.009216981204386 7.127663635004251 13.121635450389299
Sc 10.108748884902548 7.718519358501249 9.148437931470804
Sc 10.623117368742278 16.631805498329484 15.340361056639257
Sc 12.733213268844334 10.4474774200753 11.336022736038636
Sc 10.143546877006067 10.764381548045815 9.265910331967362
Sc 7.504862671027482 12.27999415880657 8.969066208546552
Sc 15.315329645159137 10.100724892422717 13.22940365887963
Sc 15.126093851013417 8.778267312580757 10.47719474320509
Sc 13.78459497564151 12.941630594133049 12.961577728313149
Sc 8.566932793471107 14.724080796065515 10.72532059119573
Sc 11.163152400609565 13.227002660497797 11.177881461259606
Sc 12.812246714527538 9.174170646159356 8.659912027592732
Sc 12.25306701237941 15.741942341355491 12.94316282605251
Sc 10.106694820604226 13.769059277696545 8.382220761728579
Sc 15.297384489383125 11.876658675035126 10.402678571933729
Sc 12.895679632836346 12.3183329735725 8.682954370717953
Sc 13.914038693735094 14.555417640814547 10.37645940575488
Sc 9.611518204954333 17.088522993871198 12.563594304344997
Sc 11.171533675257539 15.981404767650991 10.087640927085298
