22
Energy = -109.00006643 eV
Sc 10.194368923000074 10.629358280061266 11.351542166857161
Sc 10.516522602618673 8.480686762036143 13.233908962814871
Sc 14.66565190731608 12.416449942008764 10.49951971033011
Sc 10.931570318129667 10.873863656404119 15.107022077747942
Sc 8.367642235848754 10.952693297919753 13.577358990880688
Sc 12.485442737481218 11.665105044457555 12.563482830377303
Sc 10.206334677312121 13.36819204031864 13.685262202540416
Sc 10.523917380024656 13.68094479449385 10.769804676146826
Sc 15.31703691471353 15.359636202998848 10.384933397351576
Sc 13.573319856195106 12.674790823171845 14.929099683010728
Sc 12.049795562018483 11.217495857505112 9.1410491099306
Sc 15.743722895919646 13.84763935895952 12.932271697504966
Sc 15.369526007097251 10.898329481240447 13.117838265835179
Sc 13.035896528580242 14.600349023138088 12.164129314037396
Sc 7.852408371334327 12.205066902518576 10.643364312844247
Sc 9.023713775998733 10.171478066264553 8.636274199224198
Sc 12.803689755682111 14.22803868148825 9.029176912699205
Sc 10.621191725247263 8.054809771864884 10.113473029425158
Sc 13.333503715268222 9.406474396109553 14.548556645622547
Sc 9.720832183287303 13.010922138691951 8.152803356412784
Sc 7.915746643170503 8.959952195353289 11.234518947080472
Sc 13.223367658423602 9.176466669492715 11.439368751204038
