29
Energy = -147.85195028 eV
Sc 6.851851426297031 10.853773034103689 11.22183492700137
Sc 9.80561707261648 9.72076271417194 12.70189317136766
Sc 7.715753643817882 11.59384985713933 8.34721596196387
Sc 7.197430969067589 13.776880078965482 10.439687166010636
Sc 10.85191374748528 11.781477617243283 15.048440938273908
Sc 8.919331040632224 9.207714310792303 9.68104864576327
Sc 8.304771185918847 12.81844529092326 13.251961701338093
Sc 11.756430504780207 8.869188828929351 15.08762335264764
Sc 11.753127307251445 8.44792440866491 9.855651219889658
Sc 9.387492250019903 12.001239452339476 10.74634788006988
Sc 10.661744318765836 10.528307824685626 7.469942343980749
Sc 11.9772913547722 7.347941428388509 12.556679476419871
Sc 12.90994148705939 10.343601002505148 12.594047987397046
Sc 10.266426793077038 13.569271557341855 8.372025947749044
Sc 12.011935771004362 11.41675180005651 9.816579687035148
Sc 10.086914502882692 15.083771108376016 14.317679796119766
Sc 9.964467095681815 15.176969808310101 11.189472886212581
Sc 13.69268079920122 9.686911633715187 7.986981104186016
Sc 11.527095301117662 13.19940105605105 12.61605944251809
Sc 13.130769043222333 12.572397163401718 7.451850765753007
Sc 14.515317919132649 8.186072612012506 14.095748117796145
Sc 14.5625631386208 8.501044936021074 10.8912270717462
Sc 12.887687882596529 14.29597642672391 10.113225807023678
Sc 13.939272931182746 11.134817492730003 15.26014187663969
Sc 12.818263454652095 14.097159838037713 15.257317883384415
Sc 15.945398023208565 10.484388347868627 12.867235239694764
Sc 12.544078980108102 15.904619779262179 12.836195898795541
Sc 14.921487162600236 11.59606709194167 10.147691298032925
Sc 14.512584361107459 13.195466577009281 12.831423271403407
