22
Energy = -109.75832653 eV
Sc 11.330648142716836 11.276722607500387 14.328834490765471
Sc 9.842224592989915 14.34079322820872 13.340319724746749
Sc 13.469154748440328 12.181725861410126 12.305982488262737
Sc 8.337207210665387 11.660737604592114 14.049125438900454
Sc 12.229626624727006 14.363514583402464 10.909555399082407
Sc 9.57823358018996 8.817582718739802 14.161867714988182
Sc 9.36980751049521 14.797309320844239 10.232889492172406
Sc 12.59100479010483 8.075947001122213 13.596374901807913
Sc 7.376916036047562 13.106199035938488 11.654280872479491
Sc 10.076305530101946 12.264289384264917 11.712131874499057
Sc 11.268181417873178 9.527030539563867 11.817774706036223
Sc 11.45760479303349 13.84212346518954 8.092061311577211
Sc 14.286676448078389 9.68679196534011 11.1222590167595
Sc 11.94896352690729 11.385537586696499 9.71798160410812
Sc 8.302029642626202 9.847024208374958 11.418030586100034
Sc 10.082442514978096 6.964217333012965 11.912037628834947
Sc 12.716973293482608 7.22393649349938 10.540430841043703
Sc 14.340432919245712 12.430378997233916 9.132427990069907
Sc 9.077419383071941 11.869593448486233 8.874773001901744
Sc 13.482162171356203 9.269799079078053 8.288614608296042
Sc 10.399990032856508 8.88212819142388 8.987621184238982
Sc 11.530376297332108 11.080510391562369 6.906008490624522
