26
Energy = -129.06335983 eV
Sc 17.163130532328097 11.474914124739099 14.154578121468113
Sc 16.43700922824312 11.694750436703092 11.201525854657882
Sc 15.157476532162075 12.357951999861548 16.13726881460421
Sc 14.050058069808196 13.220603734846353 10.937793704236725
Sc 15.402482089569727 13.837141007404687 13.551044912507882
Sc 14.248570193031735 11.174690429960366 13.392904857140104
Sc 14.604175312644129 12.160311404463513 8.213703171769733
Sc 13.656975327779048 10.273800858969132 10.263657875144988
Sc 12.390895206402648 15.480735257533427 9.546450706913607
Sc 12.374769051633091 15.16626770858671 12.506873746115401
Sc 11.892256548488907 10.034393430399467 7.659411215649757
Sc 11.395593757758697 12.275903964307677 12.231705650924985
Sc 12.54925307247939 10.362395342325877 15.886891157638905
Sc 12.50572384099399 13.267262434148842 14.90383485526954
Sc 11.84534357844703 12.450492715530482 9.106890609673197
Sc 10.550983412261209 9.86677571125257 10.404358355849272
Sc 11.815699145733026 9.237798930109832 13.201824624747331
Sc 10.208991956077014 8.469645556219307 15.556471917668183
Sc 10.36252190992027 16.95146326368337 11.509612472722328
Sc 9.646551923208655 14.463388623764576 13.496759395185306
Sc 9.934449435346469 11.276176344725467 14.666091142851084
Sc 9.859025514495528 14.275469919454649 10.512202609037942
Sc 8.428747992542064 11.765147544357003 11.657529570816308
Sc 7.679756481436376 9.323885659619668 9.973496240595942
Sc 8.828845871904491 9.05434484999404 12.880379107059039
Sc 9.08786038659381 11.62205821323591 8.629965446635342
