21
Energy = -104.38040895 eV
Sc 13.26971454811712 12.676922031393676 10.544578587909188
Sc 11.705840300978705 9.846095621616783 11.024612510164799
Sc 14.325676738850763 10.719041096410875 12.54370211971632
Sc 11.503964142237244 15.135949225187542 11.676882151208293
Sc 11.134439476460363 14.127487754582065 8.85677063536213
Sc 11.853077430904143 11.124400420343127 8.258541622668544
Sc 12.331331329506272 12.954242407575578 13.593016729384745
Sc 14.128359038018784 9.301254034626988 9.645193548780318
Sc 13.339303233157333 7.901285165681335 12.465653168391409
Sc 12.525356710744337 8.280313964705652 7.23001593623571
Sc 8.684785952129873 14.767766586263708 10.539349900958028
Sc 10.334110968426938 12.356269988849691 11.405510310335316
Sc 8.88317542284587 11.90025209143758 8.877407036584009
Sc 9.262042754995413 14.00049604861449 13.553626229381646
Sc 11.808626229444629 10.072512442049016 13.971601847968161
Sc 9.89155693039927 8.909984370536307 8.425872561896787
Sc 11.857289291755261 7.130388504562271 9.929307428342337
Sc 10.251776217319845 7.850380481190045 12.691794321074822
Sc 7.343449024330647 12.355146099561296 11.710362638240882
Sc 8.558453480906994 9.671039769454417 10.958819030302603
Sc 8.967804417466274 10.795937070064982 13.703843087495624
