39
Energy = -200.24237572 eV
Sc 14.764634837437693 14.953409096233461 17.464965541880524
Sc 13.643446400890602 14.665829849341211 20.20606169449107
Sc 15.3377365849613 12.526915781081282 19.09152749993235
Sc 16.516369628556834 12.714626042572384 16.17403832337964
Sc 15.955860285098792 15.198468036319346 14.303987914781336
Sc 17.20022771246237 12.766441039372495 12.830015765849756
Sc 12.88513228012771 16.2233093478624 15.033945888177323
Sc 11.897955760916176 15.89326523338969 17.97247347280487
Sc 17.096923466642686 15.561077306101888 11.299095656082232
Sc 10.80383651561281 14.132569862158956 15.595938119590244
Sc 14.231507391966373 10.721407690505856 16.78759633695338
Sc 12.57241876312501 12.93209950104607 18.043999381838113
Sc 14.29541647174096 16.75834092896762 12.351296539107565
Sc 15.748473831217781 10.50991076704799 11.176995991458035
Sc 15.618373786471054 10.562410275214821 14.19880528932923
Sc 17.160278539111566 15.674005786821184 8.102796667489793
Sc 13.773355252826427 13.158533494327417 15.000227404083173
Sc 11.932559922724792 18.51585096266935 13.422468213120304
Sc 10.019119605853419 17.062136699014324 15.687554622882613
Sc 11.362150779801427 11.07979084030366 15.430526440950292
Sc 12.991563349461416 8.739639039002396 14.58719928454253
Sc 14.669961379997748 13.684563673602742 11.686881427485394
Sc 9.897673534916631 16.617407681349455 12.923360984487969
Sc 14.598239272408145 15.94310260456118 9.571142481679942
Sc 14.920101657219945 7.959532017868865 12.595226148617728
Sc 16.61777477648832 13.127859943306154 9.505979916508098
Sc 12.939377221160175 11.200079916830587 12.657050708575454
Sc 11.922734560744301 14.42648496363575 12.647475660629391
Sc 11.738020611104469 16.931098276118686 10.69982516271163
Sc 14.653514183180082 14.020604344081661 7.463002186328272
Sc 8.255321382801924 14.681153122635896 14.117529713306409
Sc 9.82814798232163 12.25672229034689 13.12330193182131
Sc 13.796707141255947 11.69103457544873 9.291467657119037
Sc 10.643709126309615 9.254100363452439 12.68512892281121
Sc 12.23808341743962 6.650578039296141 12.515054065269325
Sc 12.142701450498976 14.151833613529439 9.540368169879105
Sc 12.956930510960628 8.919865994874206 10.624556743780019
Sc 10.953288270605949 11.55235090212749 10.460445379105959
Sc 9.31767028536365 14.429127733366638 11.052465305244194
