37
Energy = -191.43797951 eV
Sc 9.306050914295682 13.176145162721001 15.590815664535015
Sc 13.451388220503665 9.676914389020018 16.449568232551822
Sc 12.091205901988237 11.447708988363752 10.97981184943789
Sc 10.273722808002796 13.069216402542786 9.156720001607512
Sc 16.48611801028714 10.561624003800897 9.874881227607426
Sc 10.555596958515432 10.575493187171427 16.889267278046248
Sc 15.012999981246793 15.972140944353663 9.984901787863146
Sc 12.171322595180005 14.847625237025484 10.706543705592486
Sc 8.189893038497475 15.486081508768834 13.853604751600077
Sc 12.081446722955903 10.98816076310227 14.135274221318614
Sc 13.45509604883424 13.740835557903402 13.397725481457911
Sc 10.208018361080693 16.668372556835916 11.911025780025316
Sc 11.030546108733347 8.853096628748519 12.177063444998108
Sc 18.22606474510479 10.580348602019367 12.395139724364002
Sc 14.872352851591026 12.180499420598949 15.779186240579035
Sc 13.378240256060439 16.795378474647887 12.690372870490043
Sc 9.003449871392824 11.175144275106113 11.223296122601438
Sc 12.84673910706664 14.820998032141997 8.010775709834636
Sc 13.764292057376979 8.390898490985546 13.623821121518578
Sc 12.448297727138533 17.50019167131001 9.539934614756183
Sc 11.09888155513623 8.224169532500264 15.212101304921639
Sc 15.075496694085347 11.022635577012409 12.53054998607585
Sc 14.561496822211327 13.079621506153277 10.362768501227453
Sc 16.431613819254803 8.314702561426085 11.968403459063634
Sc 11.261259655823565 15.60592802413501 14.721852481109527
Sc 16.993540285142043 12.930785448022668 13.992690272699948
Sc 10.22054966287298 13.48876749901819 12.719694020822892
Sc 13.821235069274616 9.014453305417026 10.606824356995
Sc 15.901155144568124 15.285319263512994 12.67729223332863
Sc 14.598172744005279 15.255239597317084 15.484525491374026
Sc 8.136460982853224 14.494029713369613 10.829724184209528
Sc 7.270854433149502 12.756809938979098 13.215028465803245
Sc 17.37260441428469 13.309290813626111 11.003323105502714
Sc 12.246256180193996 13.141577057479292 16.391531142426114
Sc 10.051824116204811 15.960508143349912 8.7999618116548
Sc 9.116715650312996 10.396827760001024 14.134208467625653
Sc 16.36489102805597 9.72763991729531 14.812687743342936
