34
Energy = -172.27352949 eV
Sc 15.379946728421398 7.54972902204418 15.13391461466642
Sc 15.004598534437049 10.511940204819116 14.706780600444713
Sc 13.412273733284682 9.16449433777507 16.73235725778965
Sc 15.169868488373414 8.71850605949939 12.317181920043916
Sc 12.718380971300906 8.416660250174205 14.00737279332754
Sc 14.778431380812693 11.735463152623552 11.606280971070218
Sc 14.639271735755818 13.67082907582006 14.439129612322233
Sc 12.882896587748736 12.255058244974585 16.449419804283387
Sc 14.967655225050633 10.001912521134518 9.143463742678032
Sc 12.293981666264155 11.446713683696977 13.53724338005507
Sc 13.567876084770608 15.385720337530968 16.582237557660875
Sc 10.586803553659662 10.143922464567467 15.74649857897322
Sc 12.549809143442921 9.696049688955933 10.922394630007439
Sc 15.840831469950501 13.129395366908463 9.137603025268486
Sc 15.596438002448858 14.809079058947042 11.671914533520916
Sc 9.822159544000712 9.261788650526736 12.96083482227573
Sc 12.616553592828186 14.041414623214763 11.712011190635247
Sc 9.587958322764406 9.315650798867846 9.829814108591489
Sc 10.41069760316144 12.027680398271489 11.032110588139703
Sc 11.568844810076111 14.318439132301046 14.616280294307444
Sc 13.650219683143492 16.35043453486502 13.516614453983511
Sc 14.765901837636028 17.518329262745876 10.887044275419886
Sc 9.265725056633501 12.208801557205991 13.915910294428395
Sc 7.553296705296431 9.884027924314418 14.737312624499083
Sc 13.692444345507985 15.35150099580373 9.185041060639362
Sc 7.297623407062401 10.687811857199778 8.599306896904196
Sc 12.93324846411567 12.23183102590133 9.126643273819951
Sc 11.973002945329817 9.593150970507505 7.951662691849505
Sc 9.641880763793594 14.798021186143476 12.193930044604603
Sc 11.805686783344543 16.86786708876601 11.101738004743147
Sc 7.613426650633533 10.83630045955866 11.666147895076643
Sc 9.931098793612756 11.911990610789626 8.029012473340167
Sc 10.577117510036388 14.75374062010489 9.29462981679377
Sc 7.954922646039133 13.348029608868373 9.912744315356674
