34
Energy = -173.84629159 eV
Sc 16.558248032184846 16.055440585762756 14.490069472709354
Sc 15.22456602367513 13.582543734118168 15.40806357902153
Sc 16.89213024182882 13.365146788594263 12.81089354009695
Sc 15.669758555023588 10.654259401001918 14.45794337735066
Sc 15.89612850835323 10.55186658991208 11.302415176240174
Sc 13.415271600620182 15.935704173973376 15.03336126142073
Sc 14.604435445283691 8.187744021272087 12.646061061902627
Sc 15.604643723667445 7.905299346039595 9.835060336463648
Sc 13.612826355305018 11.30054563517453 16.821920801981953
Sc 14.69186692577827 15.382243842428112 12.32811075221461
Sc 12.65642765097735 9.838507593661694 14.438486912324423
Sc 14.045925961881332 12.54281844680493 12.798355964493195
Sc 14.78156043898335 13.199066562377093 9.97326278465476
Sc 12.688028756341328 10.307813810210646 11.534400950152708
Sc 11.823212369475755 14.055431251022286 17.471203917789925
Sc 13.905599866841136 10.351543371531239 8.913693494915726
Sc 10.54919859382309 10.893643055768102 16.393238803205065
Sc 10.289428500929855 15.774253190019541 14.99685358148953
Sc 12.637191349077177 7.778028321210023 10.213426363362869
Sc 10.219466525524751 8.998466477076832 12.209246248254264
Sc 10.534690176919025 11.748320056466548 13.246053178778205
Sc 10.837488679567182 10.057769781758733 9.161708058563184
Sc 11.649442759042268 12.774487399183993 10.255330411963294
Sc 12.561147607886602 13.044684417715644 7.489757146758141
Sc 12.624181636595182 15.407699542050045 9.594518106068566
Sc 11.619559199150844 14.771832384932177 12.502826537353455
Sc 12.14101412487841 13.131746654599011 14.999975503683041
Sc 8.038080981149825 10.973294487612813 14.15157084683726
Sc 9.145421468522057 13.299347524173594 15.872956095785273
Sc 10.623744117763923 15.376272692756755 7.304918915584861
Sc 8.771279888108971 11.71817739987142 10.9221157449204
Sc 9.545154512895882 12.761740766194286 8.028838625081166
Sc 8.52306057988914 13.95481372064634 13.09334477315639
Sc 9.575960589477768 14.894621857099782 10.206173067900703
