31
Energy = -158.41951715 eV
Sc 8.53679531573395 12.585561705725995 8.110144657404208
Sc 8.629049395347952 11.295787227947741 10.861871739427825
Sc 10.41306902945879 10.159856530898317 8.583317453215294
Sc 8.110871992119431 14.324010943635603 10.60286298767275
Sc 11.410950705964403 13.179341505661371 7.020378037948715
Sc 9.511004725617463 15.423053634345361 8.171994808712606
Sc 11.763069330437238 10.563983084791992 11.284647807106865
Sc 9.959715322606705 13.581071030945711 12.926271168000856
Sc 10.982018591089066 13.292025599395348 9.883390291601168
Sc 9.433242816018707 10.734484439322673 13.869171176573465
Sc 13.003953165368042 8.41712873803278 9.955671867709187
Sc 9.744885199930073 8.486836511843988 11.506666951488143
Sc 13.203741720397234 11.097460799880308 8.484596093865582
Sc 10.634056764768156 16.083533057495814 11.080161686842443
Sc 12.403568973665172 15.804816396408667 8.554834659633368
Sc 12.192552305598511 7.354644108146542 12.670277417282373
Sc 10.239361881533188 7.903079425757666 14.681319186104412
Sc 12.985766650746827 13.031936347948392 12.606976213276294
Sc 10.929341097307333 9.944700875153444 16.67411407427729
Sc 11.46266269059599 12.829233882783798 15.501351167987705
Sc 14.16096151054332 13.673863534507683 9.633073192537621
Sc 11.959971162815078 15.619248720215998 14.009295199245528
Sc 12.357470113510974 10.202937426320128 14.145679421013089
Sc 13.608555267250702 15.922579317231168 11.503931124936399
Sc 14.90033290519637 11.048814617461858 10.94918854020931
Sc 14.662658804343094 8.712526017877945 12.721612957798845
Sc 13.309880233626446 8.013111702553472 15.573190294009576
Sc 13.739055982990642 11.070813028415262 16.6053560422917
Sc 15.725735596991973 13.955610779713258 12.383520108222108
Sc 14.29885832427243 13.920207345195307 15.11230812810021
Sc 15.296909005750894 11.370358772828318 13.996305072320501
