34
Energy = -174.08841399 eV
Sc 12.443214029457124 16.304524941647074 16.078358726385908
Sc 10.149769033802754 14.624995175213284 15.098940378712621
Sc 8.369132398369088 12.267412671409778 13.706597957732443
Sc 12.593417245217791 13.619050875777097 17.22772978292078
Sc 10.914635016618382 11.673740490763926 15.520710647271406
Sc 8.974618395747823 9.50434055341109 14.487521720148981
Sc 6.829336847121275 9.891557039292422 12.499486062502704
Sc 14.97864644638872 16.1341125461347 14.634089716361638
Sc 13.797979829167428 10.824269585656742 15.764555937210709
Sc 14.78424179042538 15.74183045645267 17.687089226782895
Sc 11.97148458710991 16.54519774309417 13.120920925998323
Sc 10.217136911053005 14.180172414322369 11.968934527709607
Sc 11.938163094533875 8.86975234506505 14.316365390540202
Sc 8.658594252709491 11.60484562244566 10.7614600852554
Sc 15.322959766712499 13.3726677581981 15.885918371091197
Sc 10.979441668478742 11.195451043599615 12.551865159620608
Sc 12.863853870565125 13.832772444599359 14.068670860286268
Sc 16.60415418099984 10.819757359902383 14.587024319490615
Sc 9.511158249045835 8.748184673561505 11.617057058189577
Sc 14.083906789462509 11.303154753098264 12.741725694897339
Sc 12.814996890844274 13.12859382047697 10.55851745446729
Sc 12.642346608621308 8.756860010002463 11.433710582930487
Sc 11.276033515810212 10.594502002386252 9.46237108255159
Sc 14.952795615510468 8.60593768510497 13.473358505442977
Sc 11.862034626340703 15.952329141485595 9.909633902019994
Sc 10.458217878778369 13.50211093309357 8.805631717034213
Sc 14.439589034202656 15.392143163011477 11.68803271308638
Sc 16.273192386704103 13.433669245486533 13.067586004817938
Sc 14.290378892208608 10.496135294175966 9.645963300124425
Sc 14.38475172222015 15.213730329857054 8.606766823551123
Sc 16.6429119939472 10.391301603776629 11.639145986665676
Sc 15.846996750830472 12.99129794968611 10.064294576471367
Sc 13.188581463297878 12.625741585625 7.622817020068482
Sc 11.982561822637836 15.32857239357004 6.898441592330442
