36
Energy = -184.15293384 eV
Sc 18.196139574508287 12.144540129550416 9.310404174099762
Sc 16.52971407043629 10.659683998953293 11.399436299731503
Sc 15.107590053869798 8.890169211258224 13.670645111785825
Sc 13.907046728323357 7.1813072479294595 15.903540097852806
Sc 15.251463193291679 11.563600726795777 8.709614132942153
Sc 13.73476489788565 9.479335869317033 10.93851821744453
Sc 12.162148007850814 7.921312580592155 13.499163848131827
Sc 12.11710979182794 11.435928688404859 9.20008283648347
Sc 10.686056113082168 9.74729772005849 11.31491344284983
Sc 9.035313298660903 11.14812246273842 9.14832913153837
Sc 17.16170569623339 13.584369291497513 11.818041149713656
Sc 14.24293228120107 10.210547455134497 16.26832408191765
Sc 15.709895553318614 12.007415165877855 14.136910822584923
Sc 16.22016263182703 14.323748266427605 9.15118109793135
Sc 13.19272064726245 14.222667627901766 9.04685433152767
Sc 11.593098907387825 8.98839416125763 16.21632065412599
Sc 14.273131000918402 12.611145143205492 11.359006059483846
Sc 12.838891882702258 10.826223358896634 13.62241842875681
Sc 15.696081700628758 15.140547740007431 14.226169109950995
Sc 10.99272278195801 12.782171602308106 11.76298679245873
Sc 14.654920966674185 15.631707021909545 11.464342815953835
Sc 9.91577513353569 10.389784776315016 14.131354495817758
Sc 14.250953016910303 13.44105979109488 16.50767500274672
Sc 10.0020969024926 13.89781053741389 9.119084113495575
Sc 12.784696786515362 14.29707939640034 13.960530470370136
Sc 11.614157863697702 12.083854267572208 16.11030074427524
Sc 8.14336504078737 11.772125380425958 11.863205481378715
Sc 11.603421531088983 15.784592162354409 11.196758751724605
Sc 7.037818823077346 13.344447705245111 9.510646389141732
Sc 9.496018223205404 13.432784811445442 14.387754345925687
Sc 13.892887706038643 16.431404619788278 16.260435138935478
Sc 13.204704529256613 17.398307806868615 13.585478747570004
Sc 8.658191246684611 14.798351142975626 11.698165082059854
Sc 11.305529282563318 15.125726874728773 16.63767577072684
Sc 10.421100417424558 16.26419392271027 13.945388581791171
Sc 11.534212724705853 18.13245052424635 16.063328440910638
