31
Energy = -157.61972633 eV
Sc 14.47718172980545 10.354962297608193 7.890104006480847
Sc 11.551454205809103 10.506051849196659 7.600682486348247
Sc 13.20881634884945 13.339808297777797 7.366561388079679
Sc 12.696785835378915 9.000961047134949 10.048351617399973
Sc 15.835446607594353 12.753120570382881 9.020008951878014
Sc 11.415324526396171 15.255973075550113 8.985996476917506
Sc 15.65320352849584 10.221169196898883 10.714667466629344
Sc 12.957545654847289 12.033576168532866 9.896812936374266
Sc 9.992420380898746 12.681407571832965 9.038413541693078
Sc 9.752126826738216 9.821876539205315 10.206926540182003
Sc 14.330141928030734 15.237993045509423 9.724722026699164
Sc 13.472995627054923 10.648513845027065 12.55550705601318
Sc 12.292521897496988 14.3603358494995 11.67888742992019
Sc 15.17642449644023 13.22358690522298 12.0614158800653
Sc 15.888666768512662 11.03459434460052 14.186983282086597
Sc 7.717502846190639 12.062456792002658 11.011762656190854
Sc 10.61407091481512 11.884499936790782 12.225430119112593
Sc 15.828586505419047 14.00647559440552 15.01700872494373
Sc 13.890951847430646 15.796761889699034 13.691655439602629
Sc 9.341719780835556 14.64228892710262 11.309518274336876
Sc 11.07826291563037 8.89284040083934 12.956419844592062
Sc 12.912660149295517 12.765599368816467 14.607093939729205
Sc 8.296868763277153 10.032627093280402 13.040977460233444
Sc 10.87793182303776 15.10538619277095 14.187817249280688
Sc 8.466822885879658 13.12280150162611 13.887581937335264
Sc 14.943297572976691 11.96843371442578 16.90678289910013
Sc 13.20831196818604 9.762601341450157 15.457986460772865
Sc 13.158988418277922 14.738773070970975 16.71540111307405
Sc 10.304695779828778 10.930836868511758 15.245714348996186
Sc 10.101822443119962 13.681170876447016 16.6055717702225
Sc 12.124048520294384 11.83750342559651 17.532946957797748
