37
Energy = -190.57316107 eV
Sc 13.671670456432206 9.159661773836469 8.713593896385154
Sc 10.604557728121437 9.395880018453925 9.224045818960024
Sc 15.310182218752711 11.790520491973986 7.880590848333378
Sc 12.109107767023987 6.8978439906030315 10.221061727086036
Sc 11.819625612896068 11.947795730040045 7.95005660512531
Sc 15.062683461204257 7.2433482600733035 10.888756596789799
Sc 16.14297373282368 10.099052580431332 10.549246871637381
Sc 10.659617581185454 11.031951600836665 11.44910786136392
Sc 13.695606750102757 14.21459388010459 8.181367966043856
Sc 13.136011054979724 9.33093486214373 11.79748044511689
Sc 15.853408176247532 13.862765332020748 10.270486391884083
Sc 10.762139024533512 15.22699325790178 8.468601584060117
Sc 9.155044019232264 12.596880898597815 9.414081994242617
Sc 13.074509187359785 6.673201768579748 13.114136775034558
Sc 10.390313064169778 8.138632222737943 12.423949554097685
Sc 15.307130595063184 8.85869877211776 13.661769045853035
Sc 13.758884189162059 11.859908002130767 10.289251599908583
Sc 15.398173805614553 11.84228700035542 12.942205261566954
Sc 11.580946726191232 13.778412449311157 10.575624800919124
Sc 13.39537302099546 16.292260165765818 10.207247665736187
Sc 12.255938539299855 9.168035427742206 14.79589679875727
Sc 13.74107189553594 14.323487755720265 12.38664653175012
Sc 12.2813316512224 12.002602587269129 13.719027879317927
Sc 14.281452703786258 11.315075589363826 15.8544644505115
Sc 9.572672002692238 10.729113545390598 14.305553071728745
Sc 14.849115034231875 14.213653201443455 15.122314064636837
Sc 9.519931151918009 13.487850480595128 12.874682571811343
Sc 10.979375412065194 16.29133313184407 12.124064579352366
Sc 13.851297100437861 17.015686635371612 13.428170070286154
Sc 11.729152391569649 14.798411942682682 14.86626653855211
Sc 11.36516106181438 11.70349969947585 16.58865311627333
Sc 13.098468488246802 13.888502614187905 17.54528670962828
Sc 9.115982719981346 13.477507052871301 15.937408124453874
Sc 13.520179564648178 16.661909940499825 16.464107775364866
Sc 8.922252089119201 16.10455881250199 14.624366869766346
Sc 11.236623353440413 17.865186038162317 14.906098405627732
Sc 10.583465452267925 15.943324446101883 17.304425389947454
