37
Energy = -191.43970373 eV
Sc 12.312710935418055 16.78381510002061 11.77979229587211
Sc 9.83602301678532 16.163818340135265 9.874142489762477
Sc 14.832255888357306 15.325051363485102 13.246342354940168
Sc 11.495988154432816 13.97266976445117 8.418863708551722
Sc 17.31169263199364 14.067496624093105 14.783980672011506
Sc 11.947396764682146 14.983740520980136 14.364297131288104
Sc 13.969365123630523 14.375291897890316 10.46318588176169
Sc 16.371340880528066 13.148056004132105 11.906572990371313
Sc 14.594806813578218 13.560768287352932 15.863524229784456
Sc 8.438306975539442 13.81616859812989 8.270896884083058
Sc 13.170570656141734 11.695234166016178 7.0668777027779175
Sc 15.69716139173985 12.131521188384307 8.919080753414722
Sc 11.061050535299689 14.14026146202046 11.676040176447573
Sc 9.519499882126818 16.28414551735252 12.887001837175587
Sc 16.192325778434707 11.330135710590753 14.486149940130403
Sc 13.65957434826011 12.565204562997227 13.01230581907263
Sc 16.920587828353877 12.312830556387986 17.169862449584038
Sc 9.976791650306644 11.78091639670979 6.916306632177549
Sc 13.031625479270005 11.437315237561082 9.969561516374444
Sc 8.053064799867139 14.065593566183502 11.236260241083057
Sc 15.3330813363109 10.276136587788274 11.393220874572316
Sc 7.757012045261085 10.731996682791337 8.989223109278214
Sc 9.282344872642934 13.296819177013013 13.998425453254246
Sc 14.520509674189924 9.411275016147941 8.441099720109994
Sc 11.755998154571559 11.883323980163723 15.44070903321521
Sc 10.026015953288566 11.885196342701768 9.94319950708451
Sc 14.298580418306583 10.693316278354141 16.75394530383121
Sc 11.043838432561902 10.932783051723824 12.600147315389831
Sc 11.364871746205118 9.508387871568132 8.33148073560645
Sc 13.450961127289395 9.534948405193076 13.989301484476105
Sc 12.685177565886361 8.582237481202329 11.024858468991374
Sc 8.001224887514056 11.090437195921986 12.200217832051036
Sc 9.12736778179494 10.157855101676487 14.959125579997337
Sc 9.620586126552185 8.864773101342463 10.820049068505835
Sc 11.587255310096092 8.969889153735833 16.319804031716824
Sc 10.729101132238291 7.965817479780585 13.56916927062272
Sc 7.7908725133065575 8.215445806640925 13.140640133566798
