35
Energy = -180.87069465 eV
Sc 16.4577699892973 11.543975942761387 15.712481874998966
Sc 16.8722423896976 13.876846830923888 13.527416643666713
Sc 14.76936462374778 12.024564796533426 13.378509965582044
Sc 17.257666810262858 10.607573770003372 12.989314058348354
Sc 15.00790949423089 14.779373783258182 11.27000030125654
Sc 14.88927074567706 9.412472729847279 11.118057006398297
Sc 16.28699010410443 12.19252209144926 10.585296115840682
Sc 14.56133901121308 14.130353494685052 15.609243956522658
Sc 14.453977197557693 11.05220206487624 8.276223337496681
Sc 13.446121475049301 14.118442131092154 8.77358917323964
Sc 13.393924956174992 11.45107693212316 16.37437814689234
Sc 14.263863420135065 16.4469132558552 13.6592502758315
Sc 11.621784673722775 12.026106321695313 7.920255730022236
Sc 14.589304191988955 9.288840443010589 14.37806462334597
Sc 12.593549555502436 14.037110302495245 12.96932128141214
Sc 13.230252865750176 11.821838687479126 10.767198180210489
Sc 11.937509215921272 9.368875360192197 9.295855034246959
Sc 12.85421376411294 16.475750561389905 16.377043745073976
Sc 12.178823241124716 8.335194939827783 12.408510694473904
Sc 12.388187291716074 16.231356554165583 10.920794286822359
Sc 10.859909042166093 13.495259550964658 10.488781678526577
Sc 11.903486514817356 11.173703604428217 13.877072644143961
Sc 11.421776834596505 13.839910920300026 15.732292780085542
Sc 11.684501942571513 8.889417941072054 15.639579485811963
Sc 10.454452889290183 10.677586130406288 11.541020572716945
Sc 10.112152637268908 14.874752300863255 8.345492917264396
Sc 11.105198034213773 16.382533655748066 13.869413765460916
Sc 9.018484821027952 11.083374255214029 9.10250978841651
Sc 9.080195295999113 8.38034908129093 10.731395395765265
Sc 9.482517213241564 13.474207317412057 13.16241562025527
Sc 9.363963150970182 15.97659205517662 11.192425019860389
Sc 9.447774330480486 8.895546439867376 13.697201876797372
Sc 9.468771815281816 11.223721344191592 15.428107195110043
Sc 7.938117068850505 13.599311550194484 10.343366345752623
Sc 7.720356725556979 10.903382852638805 12.094213163751686
