30
Energy = -152.76708332 eV
Sc 12.047267492073553 13.222303332623273 8.742283083849278
Sc 13.816130436946587 10.739694227389824 8.549665704038343
Sc 10.782242252883265 12.872627608742247 11.611762027102806
Sc 7.915055201786505 12.20034642724713 11.17903782285027
Sc 14.403774483294463 14.678161793252324 9.76414009413308
Sc 10.359340376627728 10.757583410287236 9.462889186924391
Sc 16.301249012838415 12.381357053938972 9.878785124719503
Sc 9.156709666307133 14.030743288921597 9.391462741748933
Sc 9.36435639870134 9.672693072797317 12.221487754682213
Sc 13.620751390270337 11.751753219838193 11.182351374824066
Sc 10.144745323319917 7.5441915057397 10.351358758597172
Sc 16.262718231384717 14.786039474354514 12.112604849425878
Sc 12.49711547901921 9.074691609863672 10.950893156418866
Sc 15.62172737942677 9.623281247802982 10.647161626329941
Sc 11.557671045883271 15.688422000346737 10.480925377398592
Sc 13.391793802044676 14.329143862478471 12.575079740217149
Sc 9.062338721210535 14.988026520019233 12.394046059035233
Sc 14.282560184718232 9.476854762653248 13.517868829085396
Sc 16.009907857970084 11.936226845209855 12.86262516263359
Sc 14.276501373511667 17.024348124248817 11.91123880280859
Sc 11.477517191534089 7.785456246856213 13.455084843945631
Sc 11.627268034367344 10.877086481049005 13.778753786113263
Sc 11.685771583216745 16.786600910191616 13.339898337941909
Sc 8.822542442714173 12.232524908709555 14.186586257464901
Sc 13.839845949134771 12.324224463275836 15.101170421966886
Sc 14.304828950219074 15.648913228891812 14.729304360586895
Sc 9.596908749438093 9.361364857620234 15.33271381809668
Sc 11.23157368576536 14.143882237473466 14.689020381361948
Sc 12.64490385762308 9.388633382004612 16.099856483039275
Sc 10.987266520786271 11.765206971188803 16.592327107676162
