38
Energy = -196.45537903 eV
Sc 16.855440985771075 13.3854128914747 14.546374792404524
Sc 15.57273292877148 15.388420716978311 12.384647792906014
Sc 17.392447498006504 13.000856616281881 11.677050290369056
Sc 16.6144114920603 10.472568689010224 13.564049517195478
Sc 14.334283664635114 14.969102830246822 15.254291635817257
Sc 14.882723991436514 13.74576597707938 9.75414012185909
Sc 13.333695496301484 17.273259917544497 13.257775097376731
Sc 14.457645553533627 11.495935952734463 15.569460214532743
Sc 12.682842034563183 15.864913546100247 10.448427129000628
Sc 14.667138967743359 12.57291020232974 12.767519130574522
Sc 15.8213300063963 10.7869322083353 10.344709090580984
Sc 11.56594814333286 16.3007571143119 15.391118726672033
Sc 14.488389452952143 8.152637332750123 14.796711858146756
Sc 12.004718103747175 13.642048741729452 8.326715083303531
Sc 15.657390671515568 8.136684757801486 11.892516498276642
Sc 10.41770966463745 16.742844810281255 12.393647493192791
Sc 13.23878880259315 9.714287868341934 12.868442337409194
Sc 12.304960732474644 14.517371930676546 13.099453717393565
Sc 11.82655796583333 13.146042198357492 15.984606482816115
Sc 12.651633284960937 11.703451446582033 10.504600051518295
Sc 10.109836590088404 13.57258409060452 10.961888494108724
Sc 13.971787949501776 11.337527611446662 7.873421760284749
Sc 11.656697372662007 9.991391877201767 15.68562918228889
Sc 9.050081006228224 11.602276047830646 15.771223407121163
Sc 9.355863005827585 14.443728665455955 14.504459731788039
Sc 10.800764598178144 11.707288645230765 13.367393742530886
Sc 9.235667263183164 12.773085020603286 8.084790552894503
Sc 9.40958688973358 15.712436410148879 9.349226510277704
Sc 13.244886773018518 6.670313230905305 12.133550517191164
Sc 7.794658422116966 15.26035976557254 11.998812275754181
Sc 11.144032536200674 10.399942815540113 8.422405085589066
Sc 11.400067140643705 7.544646531647675 14.161396155030706
Sc 7.724944185063149 12.319062124273978 12.95781648624013
Sc 13.572854354966962 8.765757942518151 9.703444024354626
Sc 7.141227918176727 13.398275936906124 9.965550141744552
Sc 9.045643875474585 9.452724907778762 13.63696160147015
Sc 8.887086867985412 10.809538956736132 10.5208242926757
Sc 10.888773851857662 8.624966644693453 11.27209310515362
