35
Energy = -179.39973573 eV
Sc 12.639756005431238 15.712509535277293 14.349667517229117
Sc 14.250796646325263 14.715755583427152 11.975355951962467
Sc 10.20206031433546 13.908041965170922 15.086206832533044
Sc 12.841291259338654 14.07579957395905 16.761041659420663
Sc 15.306999097450392 14.014782223319875 14.767650539426477
Sc 11.102795479249028 14.355694064582392 12.037825447092139
Sc 16.690008835772804 12.904106795531238 11.412495480969143
Sc 12.383810529960332 14.907533825415104 9.366973019099062
Sc 15.560425438240921 14.67056104723322 9.163653345327909
Sc 8.138986807637599 11.2682521343731 15.391582107176033
Sc 12.741595572860422 12.613866021603785 13.905447537156183
Sc 9.190593599049427 14.942400616870481 9.954023680031186
Sc 13.947304428030334 12.29256891134168 10.100487237860168
Sc 14.308242153340103 11.538680354320167 16.364198843326573
Sc 8.379528624365907 13.325373146105827 12.669715544515773
Sc 11.22731422780577 11.387086187812374 16.490907588224033
Sc 15.40739387865459 11.179069182632094 13.53906609138232
Sc 13.731907075533012 13.325345585427439 7.211448945148496
Sc 10.13622143638717 10.812129358324503 13.25910432516788
Sc 12.883354032136594 9.364801398048225 14.675821459750251
Sc 6.64312774020059 11.007094645359029 12.591458941836473
Sc 7.834627082119523 12.332809586156776 9.946674363191951
Sc 10.80089086319654 11.878863336125344 10.219269035268491
Sc 16.323685622912343 11.799077987531325 8.386514088202699
Sc 10.410181160674712 13.356465934068652 7.660820152188818
Sc 16.165429738659025 9.980888568372325 10.86686837085939
Sc 10.074511775607297 8.721639370086818 15.592260377408028
Sc 7.893219729865089 8.601591162095032 13.668647998025794
Sc 13.035255153696966 9.915636910155627 11.716090577014903
Sc 12.08069452931389 10.939562416521655 7.511367753278755
Sc 14.229686163858407 9.504911574187188 8.793787980128139
Sc 8.55872796065937 9.49582696977928 10.838752411940572
Sc 9.158526778333739 10.522337353846188 7.896146904705048
Sc 10.75170446797006 7.945944252732397 12.586924367747459
Sc 11.199205506490431 8.886213760523832 9.488038799503096
