37
Energy = -191.21168803 eV
Sc 8.691694910477182 11.60906530597937 11.010089469225731
Sc 9.035634275479294 12.582099806188046 13.986079072487962
Sc 10.319350970971609 10.106196190989808 8.95444181778936
Sc 10.75564966359131 10.313607026820328 12.867194855309018
Sc 8.79613012502614 13.41522748889465 17.048686841223887
Sc 9.54577819002363 12.935937669060005 8.494766796959823
Sc 10.44730440251178 10.72296007063148 16.237138221363832
Sc 9.70570257481885 15.55054042334772 14.521045400116645
Sc 9.546711973854492 14.503328473241387 11.280083480608518
Sc 13.19594391380005 8.552512602119581 13.685699968810175
Sc 12.756820815037768 9.21118152396665 10.712943205240789
Sc 13.061058291342095 11.320275466605683 14.790158849275633
Sc 11.733213611263627 13.727639588480503 13.129501874225204
Sc 11.334205316860547 12.80698425834284 18.71663886935497
Sc 11.659700477951791 12.227704694779064 10.491669668731054
Sc 12.272375233512395 12.17606787275653 7.59484596115234
Sc 11.379051982652642 13.481707332884207 15.934529909410536
Sc 10.991289147176314 15.718024779896128 17.61233120713258
Sc 14.648006850537179 13.819587113148074 14.208404798147493
Sc 13.588329216656312 11.165737984251944 17.51745606015457
Sc 11.915357524875098 14.907845405743616 9.122511083960354
Sc 12.024833301401785 16.48136905720909 11.94069454917196
Sc 12.700092455828555 16.126564366756032 14.972181356427805
Sc 15.533864914249522 9.678300388913225 15.085423588757823
Sc 14.198789822802745 14.259571919883834 11.214560726855376
Sc 14.301798815784341 11.252800973198827 12.34864645252013
Sc 13.847536988208391 14.287143638648704 17.301019366774206
Sc 14.562146260031662 11.125180657260836 9.330088914613697
Sc 15.84971558524002 9.145847898840948 11.697087487138726
Sc 16.20169987164676 12.353286983676096 16.138480550295636
Sc 14.269602959338426 16.858291449469068 9.721805412553795
Sc 15.096306973084191 16.66231987014373 12.779770893902834
Sc 14.944364484372237 14.003835495302468 8.436492118147894
Sc 17.129587207007894 11.462065359920953 13.466627273438892
Sc 16.83460321287034 12.503064788175294 10.744996540700752
Sc 17.32387187432477 14.396273838643474 13.302007563983793
Sc 16.818062033669005 15.569260298377293 10.507430378363008
