38
Energy = -195.55050896 eV
Sc 18.70525485865817 12.474702651712951 10.805219225083224
Sc 13.073685171495304 8.365713286888447 15.358824863350359
Sc 14.39532854788459 9.599525930710152 12.648474709080558
Sc 19.07996454314583 15.439357841835754 10.80839047377386
Sc 15.746721481148091 9.559195442938869 15.524069332956651
Sc 15.853563602088986 11.166689086344958 10.373380120775796
Sc 17.083965345785725 11.09919397800056 13.120446067842314
Sc 16.39087052342448 14.224692823655257 10.241261352114485
Sc 17.644206221789847 14.08998428364076 13.08282931848106
Sc 11.48355101750233 8.34052925303972 12.500155356838162
Sc 12.793948885956103 9.742971602903603 9.97259516886396
Sc 10.476866171634077 9.970924291238612 14.87608288027552
Sc 13.703522589347834 10.656555383203512 17.47924330317133
Sc 13.274229385384276 12.80587023370666 9.92583880129447
Sc 13.318035030214306 11.254392426268138 14.869290939549128
Sc 16.555885434584614 16.628381020067902 12.103123540222422
Sc 14.694260765765291 12.928962301011525 12.621459778617488
Sc 15.97262637428438 12.60377087599975 15.599553740711558
Sc 9.8466134725185 8.84517929430277 9.879857321746218
Sc 11.417250802960663 11.324783320731783 12.142344107242703
Sc 15.032523691741611 15.388064923053207 14.480042376594069
Sc 13.846247246755528 15.709120088081619 11.256150535031669
Sc 7.514611464295735 10.73898921730169 9.66715347291779
Sc 11.046084505577518 12.262523492003837 16.77496108124797
Sc 8.710212666936883 10.008399333668313 12.329043183791413
Sc 10.355177587758341 11.695649505423335 9.343807531464314
Sc 11.927909065650958 13.63189919980683 13.984808862031068
Sc 13.410537215903497 13.944850859464347 16.7033739485056
Sc 12.23150832302094 16.30691101096226 13.704090689874233
Sc 9.14723087714029 12.689248732780335 14.422077441576647
Sc 11.070502014421633 14.55941164031854 11.003524037472689
Sc 13.256201117104167 17.25363364473795 16.245385849525864
Sc 10.663685737246475 15.35250969957247 16.13222631737334
Sc 8.634507283078412 12.976004877424153 11.523545363000453
Sc 11.2543438510273 17.78788343708242 11.624994271296984
Sc 9.412843180011185 15.686316337493173 13.284704949376623
Sc 13.896270223839549 18.417006103987944 13.388481438781712
Sc 10.977984569656227 18.54981313821867 14.616528875422578
