32
Energy = -163.98782722 eV
Sc 11.029520996639901 9.123849241521418 16.487348055809782
Sc 10.450081489846685 8.34112931699976 13.424374826056443
Sc 14.303372683648513 10.639847806352286 12.71714567557466
Sc 13.240210946159921 8.463622766101023 14.643841604876425
Sc 12.826621401034556 7.799717863206334 11.501369364470253
Sc 13.405701981993486 11.215985169726956 16.261604247090787
Sc 10.97003542112719 8.786134367183786 9.034479597498375
Sc 11.619163458816697 10.963041570127128 14.255765216065438
Sc 15.565832356124506 12.55791575833991 10.570948663290734
Sc 10.254462446209088 11.947998452659174 16.70151379590529
Sc 8.590725239613406 10.871160787525161 14.12967405839027
Sc 15.098436532881797 13.470063954270206 14.22654435181279
Sc 13.991025508293715 9.962020752979207 9.414658014219574
Sc 11.723272678974238 10.455393366119578 11.202092569277
Sc 13.039070795812059 13.59624416410379 12.325495876217099
Sc 9.932757476054528 6.781061614588705 11.030707208865222
Sc 11.990393369267824 13.933307905024156 15.138725754719186
Sc 8.79354325974199 9.732828969558351 11.200437833252494
Sc 15.55873038274337 15.334534787711293 11.703765309562488
Sc 12.747741278921174 12.813539026592425 9.513635648420394
Sc 10.236996631607289 12.583036271132483 12.17501505940225
Sc 13.603237038789414 16.138779417715703 13.721801210600448
Sc 12.093086425143284 11.012712597170005 7.182963933851981
Sc 8.952099560637146 13.784809639257716 14.551776945197192
Sc 9.738719858420813 11.723154622185007 9.096331427954198
Sc 14.668146291571986 12.391998686725533 7.31793602852234
Sc 7.706721277284376 13.05734018328767 11.636910393202044
Sc 14.8728833190112 14.915538523134295 8.755008286453807
Sc 12.782284148630552 16.035316637182202 10.569488124908782
Sc 10.613200415171978 15.632699368489924 12.756708397400216
Sc 12.119891007776264 14.190758926828112 7.271449893189251
Sc 10.21242288133719 14.556406442424619 9.927766037090414
