39
Energy = -201.78921712 eV
Sc 10.735926031890466 16.0551539569109 15.596403003028714
Sc 9.640274739644536 12.99397801365634 16.389569361305703
Sc 9.965439420127819 16.97759498590156 12.873709458675794
Sc 8.32904682378188 14.619147151397685 14.049100973503732
Sc 13.08580728074406 16.860284214739472 13.372941439468608
Sc 12.568476509433683 13.715552656816339 16.407146106237573
Sc 7.018914078088939 11.92304928486836 14.988982792937403
Sc 11.751846178646112 16.11471255554286 10.571675705484454
Sc 9.738388490790562 11.65522785114188 13.607192926936397
Sc 14.395088109074415 14.097403742209362 14.111674623604193
Sc 9.293530438550038 14.301964093686378 10.990281612764047
Sc 8.815088314997794 9.953056046010907 16.118119506979777
Sc 11.362074539281348 14.403077008757352 13.266664164344402
Sc 7.141341077357128 12.385769014897438 12.110538201047433
Sc 14.83650258192321 17.029731131010703 10.604852226493552
Sc 16.24345062570945 15.985968695675831 13.0942792366634
Sc 14.982262695745789 11.767012574661212 16.178771062661365
Sc 12.902542726091838 11.403982018685248 14.18989930178897
Sc 11.743132345911649 10.780813945661729 16.926196057765413
Sc 13.89424622859816 8.936245992819549 15.829469245070579
Sc 11.925456464839813 12.061156457403197 11.377833912348265
Sc 7.935254512609601 9.542363558612152 13.030143868307594
Sc 9.22600783092843 11.264310099755653 10.289169723536673
Sc 11.078447559438384 8.889083566884842 14.559335580404404
Sc 14.127545836172635 14.321437939269728 11.027366286450318
Sc 17.208582403956193 13.024800122427553 14.228109760640107
Sc 13.645059969505873 8.920615687025515 12.656836470236932
Sc 13.598133783629438 15.69874687342233 8.157421611777867
Sc 16.343371400186385 14.92609824969932 8.839980204936047
Sc 16.301922759819234 9.901852900399447 14.124394040783422
Sc 11.395556659955428 13.521266534781205 8.886100943766918
Sc 15.272234257273206 11.734396939349924 12.011746697859518
Sc 10.858225673796122 9.20510878405733 11.588192062139287
Sc 17.416013451414255 13.974730179154419 11.377585804999782
Sc 13.588969273167837 10.199199220900386 9.801289933454514
Sc 14.26954403819545 12.81023753882443 8.490711829683121
Sc 18.268774369148364 11.12093982285454 12.04280096265499
Sc 16.279970788897348 9.097304787218647 11.035614029367997
Sc 16.849537178727452 11.723627179010975 9.392243414698807
