39
Energy = -203.1238358 eV
Sc 13.371854343491057 16.44574005421601 9.81859022558816
Sc 18.1473895846517 14.764750044426597 11.524867089024953
Sc 16.058207944679186 15.011248105320156 9.454608257965749
Sc 15.443219582407947 16.563781330213462 12.149636192296889
Sc 17.06893433730461 12.106225629908936 10.155265178179153
Sc 11.6322975624902 14.426834189949327 8.292402754975559
Sc 12.528992527753786 17.852124844396478 12.424579636484443
Sc 10.44583863477467 15.99254277740849 10.796840187639397
Sc 18.22482060428813 12.325510647900611 13.093351604833682
Sc 16.72170283321868 14.803969613276864 14.553292832723228
Sc 12.885792425134253 15.003428789111178 12.310910463951618
Sc 15.593690227530061 13.42547428056928 12.1522705701735
Sc 13.812121784676501 13.11357245741188 9.75886297049857
Sc 14.330370126004935 9.966524447297532 9.838365247113037
Sc 8.856308891785158 13.64335519513771 9.177491607023871
Sc 13.751986225487764 16.215126505054812 14.920723352262833
Sc 15.921844644871737 10.320947429633835 12.585348329880967
Sc 11.375923890506174 11.279247628294181 8.748743455588228
Sc 10.55851775755312 15.900895700759714 14.10612420838425
Sc 15.110560179413561 14.366222365458007 17.177662508082044
Sc 12.983607908633534 11.09251351219723 12.11373029485822
Sc 10.947100125906225 13.003476349118785 10.934650454942576
Sc 13.703597303535773 8.207529401827985 12.267598481045166
Sc 16.382115807239337 11.783551187294139 15.5700599687
Sc 11.908709747397936 14.171852819662114 16.66457879655563
Sc 11.20615736170208 13.022032980054373 13.974674252260554
Sc 14.037928567495847 13.155652761808929 14.741409533986529
Sc 8.565421319326752 14.042311047986969 12.43896865235848
Sc 13.76355486760173 9.93291124967145 14.876338268563837
Sc 11.19061219216782 8.868142108476466 10.784992218240529
Sc 13.870504683560894 11.76491420335876 17.427001835804866
Sc 10.094730978840165 10.672418170062429 13.059078817549015
Sc 8.756905065874218 10.77993618529534 10.364872822122402
Sc 11.124025443466468 8.23657942756088 14.149242838371016
Sc 11.159445097388444 10.98312773932992 16.158469020820476
Sc 8.746761316433115 12.917928992571545 15.418065200240722
Sc 8.40340010953483 8.466413238788299 12.503100521570873
Sc 7.238920082716101 11.329388226883482 13.08077383081581
Sc 8.503181228652153 9.68816731667642 15.307818051138623
