30
Energy = -152.4455642 eV
Sc 14.227478094877581 14.235718783057264 8.857436148997605
Sc 12.5047792499215 12.041893780713869 10.487857215009903
Sc 11.572144634566987 15.159917795421734 10.082695744300313
Sc 16.593095305957984 15.182111348067695 10.569573203106222
Sc 14.00261618977891 16.942214051972627 10.475298092013965
Sc 15.774274572214926 12.072171638999919 10.511759390048525
Sc 14.246760624714044 9.451241940430426 11.604272322360885
Sc 14.14358563959075 14.195199132728844 11.753566542301312
Sc 10.342385173712527 13.454953686299497 12.28492990028105
Sc 12.736611894120191 18.723064591318327 12.972652921189697
Sc 11.447284212686188 10.628876495544471 12.973922076080246
Sc 17.04095384111438 10.42898143509082 12.80710491264582
Sc 14.348990092229897 11.511431823095645 13.58433226733183
Sc 9.878978820681874 17.17445706292539 12.182071494613911
Sc 12.178711181629145 16.04282866173164 12.992208580013243
Sc 12.610021646315897 7.833502421470699 13.483825358223598
Sc 15.380023740529484 16.53671414901456 13.219797085856717
Sc 13.480473775706526 16.96777397032577 15.533767547463192
Sc 15.222568363869197 8.784686514866555 14.513523256622035
Sc 9.735749078977554 15.077536453049571 14.651372507576943
Sc 10.47001264761754 12.18614045776205 15.60354134886586
Sc 10.72745245870572 17.767848119162956 15.058700884891746
Sc 16.819620420977774 13.519620550304694 13.249810673453366
Sc 12.578229737348453 13.63915151101703 14.432249647731034
Sc 13.504993417049235 12.226187860918227 16.870890609646214
Sc 12.459667224326799 9.765940015741384 15.645101437021752
Sc 16.32662836607714 11.482296871071611 15.721339239517981
Sc 11.693720833856137 15.035266190279952 16.881942736699884
Sc 15.221063246854023 14.523640227347755 15.664901908917148
Sc 14.79262306529487 9.470130011570888 17.39105249852021
