39
Energy = -201.57611873 eV
Sc 15.302866727948016 12.023725897318633 15.81092378057401
Sc 15.42885549787597 13.542986807601705 13.191851082279783
Sc 12.244533602994055 12.227783099965167 17.061193045142705
Sc 13.662803124294317 14.694964034795525 15.522389684865535
Sc 17.27789556697263 11.094658564602152 13.02780580060429
Sc 11.177052549613459 15.176028056777213 17.563267770376324
Sc 12.667133333851444 9.359317862335141 15.561446109201771
Sc 9.140884964866062 12.93240892892163 17.200492546432304
Sc 15.414108816685943 9.366084635262593 14.625556433527336
Sc 13.080187574844777 13.29090249315372 11.079342981049706
Sc 15.906144492093324 12.679786439323065 10.219669163968401
Sc 10.047188854860524 10.9090390337881 15.024145008272145
Sc 12.944004287186768 11.85904095048683 13.94462196946255
Sc 13.400614265242215 16.049552549372038 12.761114428522015
Sc 17.106808712421493 9.928894569665504 10.030958668923686
Sc 8.560263622034215 15.626930673560715 15.980315870138133
Sc 10.842443813673418 13.860871555035255 15.032875153445202
Sc 16.70726459574179 8.09718249599387 12.311234437749443
Sc 11.061959773614097 16.837322928484173 14.731269813869465
Sc 11.509618189577187 9.381346740002503 12.733756024824254
Sc 14.682824276227533 10.338413771515258 11.899461008770144
Sc 13.725151091557983 7.505017089855042 12.930939587799424
Sc 8.156420617808969 13.361902167003706 13.931385753486406
Sc 10.988952186862868 17.842526783912565 11.799715202740767
Sc 10.638655935809329 14.899570700614799 12.110662690099346
Sc 8.30148823847261 16.364723787834357 12.884317478393772
Sc 12.445133938007027 16.044933298917726 9.832388546826705
Sc 14.569922338225952 8.07159838341574 9.866984921970777
Sc 10.232679489925603 11.866653801148084 11.896104175030178
Sc 13.632749651110906 13.538944728219226 8.11706153124053
Sc 14.73088702124354 10.698525454381835 8.109434561006516
Sc 12.447757761997282 10.54822995157774 9.920009068894107
Sc 11.643308521472251 7.594761950302727 10.407673091694587
Sc 7.997845151379113 13.812173494632187 10.847322699819024
Sc 9.285094346561655 16.32422594236425 9.811703819631184
Sc 10.60983176484694 13.447207757134574 9.177928412186468
Sc 12.191804490816917 8.554015732941776 7.714157306837748
Sc 11.76801220231511 11.398702140211194 7.145620893716685
Sc 9.775198842248393 10.103262438020614 9.215321930795627
