38
Energy = -196.64312985 eV
Sc 13.93330926618758 12.995349705947147 7.456654135022871
Sc 15.611644017173168 15.131299129660286 9.019124023327633
Sc 11.559500872193855 11.516662173754654 8.712737586854884
Sc 13.166839776537596 16.10156207154694 7.734399473863632
Sc 15.634112986485194 12.20184284373154 10.012146578669698
Sc 10.869346291447883 14.148003213638047 7.558058002487204
Sc 10.889867767986859 8.914831763173485 9.920315452311595
Sc 13.996059774334306 9.747074771237177 8.826565787106851
Sc 8.564596170141485 11.259860866116679 9.192692827168903
Sc 12.942602169897038 13.994932738925478 10.088417749479857
Sc 15.88213987800301 11.779597210730243 13.168106965663071
Sc 15.408162606413264 14.695608465424954 12.053352032471432
Sc 10.71004965624313 16.500000522482466 9.52023621381334
Sc 15.898651557707707 9.300348426299985 11.079654291787222
Sc 13.632616698481147 16.86702139876806 10.753182482920625
Sc 13.385596742284276 10.794030417555831 11.44902740892723
Sc 13.271043860590131 7.7989955772744 11.619384632895944
Sc 7.973774283017502 9.334353719922973 11.447803033715234
Sc 9.527927355818736 13.843862669692507 10.289741951467352
Sc 10.276060057559894 11.256268384997858 11.67402260947505
Sc 14.842404445178845 9.02658950632494 14.073084578430384
Sc 10.315136861116349 7.853443714919113 12.75091043351725
Sc 11.989454198678855 10.018439373191809 14.096636487307245
Sc 7.520747723510802 12.31013347585716 12.012754372828994
Sc 15.370234781973757 14.242929579620945 15.19148016630319
Sc 13.16508236365452 13.157979684321024 13.425749852150904
Sc 11.25925443530232 15.40703962052835 12.249951747534043
Sc 8.76449102613487 10.293866461067477 14.266181359857143
Sc 8.391464342940392 15.4934479812504 12.533230408405789
Sc 12.646394203490605 6.931597388908923 14.539118239272648
Sc 14.129392902923339 11.532905162566474 15.847832390012293
Sc 13.427522525924049 16.176163470599693 14.052192240892172
Sc 10.017138499991734 13.206350000460898 14.077001787673462
Sc 13.018709336859722 8.899332134335477 16.77722571813858
Sc 10.271513836906182 8.22729191358502 15.917021070340928
Sc 10.952484099498253 11.326143872408169 16.52782871069484
Sc 10.339806336833918 15.994646284844574 14.988750798103085
Sc 12.447627800571647 14.13456684311472 16.129026925578035
