37
Energy = -190.5512956 eV
Sc 12.55477962870521 7.264129312880064 14.07433065943411
Sc 14.790719329918007 9.344896876049694 13.408589230310906
Sc 12.189808980178613 10.310623964161548 15.06294114412753
Sc 13.65882674390746 7.470884748376839 11.064346111084278
Sc 9.675565636061355 8.729254704138409 14.239443121464626
Sc 10.63443055740823 6.671317820648658 11.902601255563294
Sc 14.701062858370188 11.89304873303878 15.59640164533238
Sc 16.755431917826662 11.745079753558436 13.270645247733583
Sc 11.8102071089402 9.359861738227675 12.103441978855054
Sc 13.315387922773697 10.296815618470939 9.607946530598353
Sc 13.844144427405713 11.986716424556606 12.401467907460543
Sc 9.580904041960077 11.972970723715406 15.749954619048651
Sc 11.155875048780807 8.218300724670966 9.294466918907329
Sc 8.72806418820646 9.22622423923906 11.330539127516882
Sc 12.091473469908129 12.435087223126375 17.351732431473913
Sc 15.263702782554663 14.446151136373803 13.932709913304546
Sc 13.860045062842365 14.672672908987035 16.784081172557716
Sc 16.0052611180368 10.331859509661633 10.734098870787658
Sc 10.298297734525871 11.836939372355364 12.583943850536645
Sc 10.294897277117077 11.148520092087942 9.49273799891895
Sc 7.565106897480241 10.973122080979694 13.631137611778188
Sc 12.165905156775358 11.560843277535183 7.127233574819164
Sc 10.655182011770467 15.116441351000995 16.433496158179615
Sc 12.116091465961558 13.673690687777816 14.424862247012465
Sc 15.92362729839454 13.465544309521968 10.926461846171547
Sc 15.025399264165165 12.472137615537134 8.174343878783063
Sc 13.023439601724636 16.616455043004358 14.84550594956476
Sc 12.58675745308605 13.317093736284795 9.646138879249419
Sc 7.845415156260451 12.343587437734586 10.941896216110546
Sc 8.481720272401997 13.925938449456764 13.722395269794347
Sc 10.062316727625511 13.845413048902696 8.005358259289839
Sc 13.096154488332129 15.328745404095331 11.883516646198682
Sc 10.027093618564974 14.439584035283328 11.038432014466547
Sc 10.524671480958359 16.225125616468848 13.381464502051447
Sc 12.912088323417654 14.545060789215603 6.879522435742262
Sc 14.65284002629258 15.534416131724916 9.080990438748046
Sc 11.651816234169077 16.24109733698744 9.227495425395364
