30
Energy = -152.3211146 eV
Sc 8.741181880911984 11.123579247438158 8.701173789827454
Sc 10.551683114012352 13.316431939507444 8.612461206877997
Sc 13.499616294247256 13.847571784099278 9.101779845505572
Sc 14.36774469042437 10.941092354438677 9.009054703222771
Sc 7.886092639492534 13.73289868526192 10.237011515064271
Sc 11.587366047184146 11.015524631232841 10.320863163447028
Sc 15.853753079102685 13.115088958894239 10.974062531380502
Sc 16.65767566269098 9.924443486228363 10.663219166481946
Sc 11.423065712370283 15.723889239957959 10.240486371265881
Sc 13.014774587936385 13.552173981809423 11.888185791150345
Sc 10.243066138982005 13.362159145555557 11.830016673031945
Sc 8.568465788879074 11.12603121704902 11.628604139868639
Sc 14.382924699113905 16.002269550917717 11.161869329010562
Sc 14.248852829090259 10.751737985050443 11.99125513252499
Sc 11.073037732584613 10.53815761727976 13.342463962146654
Sc 13.87503190543116 8.369794400045869 10.905703575577704
Sc 16.03403686158272 8.644884110659078 13.257947493772402
Sc 9.086848895528703 16.02322095732829 12.224591415944824
Sc 11.934413699325333 15.79651380080632 13.413975176458981
Sc 7.770304635765876 13.643828265216037 13.409231864344497
Sc 15.060082384120095 14.535506831388949 13.862455731540505
Sc 16.55528615986931 11.665780283683867 13.759310700749564
Sc 10.503433684057592 13.0315447329341 14.834697990042281
Sc 13.511735705419014 12.038464640877649 14.466439897719711
Sc 12.46874308921861 11.153454821534517 16.74188825558627
Sc 13.283948264437141 8.81371653876372 14.199840462090561
Sc 9.476458271890062 15.645562273401255 15.21370040582787
Sc 12.66554125455372 14.487974308146656 16.12525584748643
Sc 15.133674454862492 12.840259002484906 16.72136157549059
Sc 15.32669235212544 10.021977723217924 15.946624801770916
