36
Energy = -184.67337444 eV
Sc 13.19128551209449 18.66908388643047 10.446894418873445
Sc 15.516559441159158 17.919828391352176 11.845377208292907
Sc 15.64280985429936 14.758033223559186 11.46233791585239
Sc 12.995770078627697 16.08037692102996 12.059172372065392
Sc 15.197795642881765 16.096341094854566 14.208939357464244
Sc 12.843688364656956 12.870056460528932 11.515997204582817
Sc 13.017828895147279 18.47082532865185 13.596405388435745
Sc 15.191437339852836 12.519574779334855 13.533129417160687
Sc 12.834263066618265 14.147229519018124 14.598341561359675
Sc 13.230760153725116 15.296075183752409 9.263237557156298
Sc 17.46077392210784 12.40022715339276 11.390330128164974
Sc 17.609738240495084 13.987168798329975 13.99802458445035
Sc 10.69006423365364 17.89965425540103 11.564298947490762
Sc 15.00012516492302 12.738056298102558 9.316060520402035
Sc 15.41237288197851 14.163332927372096 16.37950039098431
Sc 13.091062569830939 16.358039487843268 16.39632093590907
Sc 13.041228712508726 13.143734505823833 7.038286612381348
Sc 17.481486063804088 10.814353507708532 13.815272385786612
Sc 10.785006592663692 16.304145810590963 14.31062470064366
Sc 12.548171933374272 10.945179476177877 9.145198355870846
Sc 15.457070522305312 11.123514515828717 16.224805047944493
Sc 10.26664466836742 14.696921212185005 11.712122741467612
Sc 15.193707307368916 10.423940763623284 11.269831112619997
Sc 10.89534948336341 13.425757484027049 9.015231538569495
Sc 13.053222016480996 12.580493248502442 17.377181862526097
Sc 14.7879534180965 9.141158131987968 14.064648151381522
Sc 12.559579435226718 11.084671765643865 14.619040573754306
Sc 10.744992068032786 14.447732593472367 16.788670092068063
Sc 12.357791420289603 9.616061145931624 11.987732714837557
Sc 12.927320313011299 9.32435781988573 16.973079804229503
Sc 9.995137225872305 12.955058673157763 14.17047042694716
Sc 10.121919056160595 11.55751821262483 11.329173473158571
Sc 12.02691281117237 7.8642577237691285 14.546088313208012
Sc 10.43300117239314 11.250397382962532 16.700829599630552
Sc 9.841140640563326 9.819107360098329 14.080914891232387
Sc 10.08494391640454 8.201605277938343 16.701438329714062
