33
Energy = -168.70638871 eV
Sc 17.056306972397238 12.195129168069945 14.307119804085213
Sc 16.017632750575945 9.930207774223796 12.504870982186644
Sc 14.780367791428795 12.679271432880885 12.485453041300175
Sc 15.577868278044267 9.693567349681432 15.576054998967717
Sc 17.303865668772254 12.613497894301629 11.202927937907248
Sc 15.717511231908144 13.761324217720265 8.949388284695855
Sc 16.270946146409916 15.639344489705945 11.493642133738645
Sc 14.2777088948268 12.526910517257715 15.627077640529789
Sc 15.50505077704591 14.888476752269778 14.363234596191653
Sc 13.333771528105325 7.681131552489367 14.49700663939256
Sc 13.190613751052478 10.273837145834019 13.959920275529518
Sc 13.460657674251605 8.721588247772708 11.308236143322997
Sc 13.436065600377287 17.58651756513744 10.350410138878983
Sc 13.738004020980181 14.75512503006299 10.569937640760529
Sc 13.906107960999478 16.82655558286497 13.06946012139849
Sc 14.719383085569376 11.068001383920643 9.868879649077618
Sc 12.865289532095156 9.868813943854837 16.78774106579319
Sc 12.209171072453874 14.284569197591747 12.888324072958335
Sc 11.239384320585122 12.312482099667028 14.99084519115785
Sc 12.307278164552992 15.414963126568061 15.41638423432918
Sc 10.9896125014743 10.086618363189979 9.764154502322512
Sc 10.939032705932382 8.652038972621973 12.520294617615429
Sc 9.409382922492336 14.368232249177916 13.82000266798584
Sc 11.025868214837303 15.715842991541688 9.95958643604673
Sc 11.01378263835585 17.053937246025573 12.649884672996613
Sc 8.1945147578973 12.13772266377925 15.53629513989882
Sc 12.062467962030004 11.546247360708469 11.739929682700826
Sc 12.354927423806867 12.815963634268941 8.93722480882223
Sc 10.224626052704892 9.521613747707518 15.252166701458233
Sc 9.69166210945293 13.21182145098123 10.852776549374893
Sc 8.328863093301674 15.824754430006832 11.525565199321013
Sc 9.205877092914456 11.17444186470083 12.93801000644438
Sc 6.989157119796834 13.235437207063423 12.618919755714646
