36
Energy = -185.65320205 eV
Sc 17.235826804782835 12.147178676402062 11.743917204783095
Sc 16.057650892472342 14.768135179841796 12.53003080052533
Sc 15.476760936978877 10.61520988063729 10.21392904589846
Sc 16.248403973897915 9.17151229657978 12.644365726617355
Sc 15.567577594664654 13.538160295574803 9.426998504549363
Sc 15.730115430819662 11.88352380003205 14.296410008122232
Sc 13.541185325375334 14.204592232973338 14.648211143459447
Sc 14.94710588624483 9.007260133702161 15.376352677283135
Sc 14.210302451536327 16.888250146978486 13.546430594574272
Sc 14.189034000771713 16.156878094947633 10.56164020604961
Sc 13.996402860503688 12.84205792504954 11.721261331131231
Sc 13.803805817414958 7.212094624528283 13.221110735042947
Sc 12.368267453368874 13.931179151518204 9.193543046655524
Sc 11.861714876728502 15.17747470343123 12.229249533234126
Sc 13.148931235626506 11.453239656740177 16.021332687439696
Sc 13.57669004544765 8.451818931769425 10.43062895820698
Sc 13.005833035302434 11.058934556187522 8.72058868438396
Sc 11.848405140518402 8.662173396142594 15.161341939429166
Sc 13.447798933131315 10.134760312062504 13.035404059435002
Sc 12.204346540642396 18.363475516805742 12.005510853190815
Sc 10.79842482159743 9.014828399333982 9.072307019212921
Sc 11.247794621249582 16.69629076399663 9.63053020013095
Sc 11.092092763792227 11.286974295479439 11.103467859537547
Sc 10.97977404081861 8.250582470467595 12.097899477997284
Sc 10.32036655936199 10.848349862750744 16.738285986644655
Sc 10.985495290339465 12.251955380919977 13.962101456195567
Sc 9.562429529372167 14.223096759825971 10.581154263406697
Sc 10.858054957300029 13.905106901130976 16.35671860289561
Sc 8.256715205858582 12.432896979565731 15.515140232436735
Sc 11.37015975989598 16.765646714734903 14.642008484308642
Sc 8.513544011553439 9.824467314166222 10.733777239685567
Sc 9.512407249485285 17.14523306650657 12.03261527732258
Sc 9.895772695455875 11.793991869427714 8.564105686304641
Sc 9.17350876829094 9.831971950976397 13.95037472158564
Sc 9.190466252292792 14.755721620720125 13.831840247581038
Sc 8.190579267116927 12.244256927497219 12.438741075891429
