31
Energy = -158.59498013 eV
Sc 14.005349556017663 10.006238147768043 15.27025223503519
Sc 10.992305472566331 9.544781666293096 14.259483544734678
Sc 14.658044678376546 13.27193189564804 14.936772034866554
Sc 12.150814458777141 15.12736035279914 15.180431802793441
Sc 11.826818796779506 12.127761235030006 15.795733937799747
Sc 8.959838994659199 11.872679704029933 14.809053455188923
Sc 8.820486459807704 15.024275841978495 14.361354880548772
Sc 15.910806237133341 11.04827324759191 12.842424023373136
Sc 14.792870800201863 16.34922866351522 14.296452660640197
Sc 13.371112298698828 8.66920902487691 12.427115869738364
Sc 10.422162174872179 8.35234755213782 11.219621800742752
Sc 7.93006079464984 9.46507303634699 13.266636539035229
Sc 11.11773067631365 16.4797223729251 12.68390473872196
Sc 12.969485477702944 11.541913470119177 13.112128821441637
Sc 10.81969599461359 13.597595710082954 13.049282016899273
Sc 8.835690040627487 14.762329881222263 11.26448551645671
Sc 9.812886902505843 11.160465754282322 11.857088445378228
Sc 7.291073860630505 12.464801801587965 12.411855415074658
Sc 16.427707293725227 14.098806889220874 12.469795389074728
Sc 12.321007026910525 10.788687685563241 10.25966664989397
Sc 12.8374434030838 8.444615969938651 8.904347184244113
Sc 17.19438903507001 11.737707082254802 9.982287450890809
Sc 7.593992027633769 9.936887658680035 10.33669737700861
Sc 15.29909160980701 9.552863996454796 10.358471904230939
Sc 13.492309827289095 14.634829906630634 12.489537479461655
Sc 11.546700939068721 13.936091654881489 10.08966056357354
Sc 9.03555866369705 12.474060708645363 9.259054838413086
Sc 14.55741130456858 12.642959823503743 10.48151310779059
Sc 10.049567479923457 9.761408383931421 8.584435821197552
Sc 11.754999928186592 12.064655218737187 7.607851929802362
Sc 14.652597508354324 10.921071497153992 8.006384649728213
