35
Energy = -177.95745625 eV
Sc 14.022001098145248 13.954404682876664 18.097484370920785
Sc 15.735648293562239 12.287365822217623 16.335548113029773
Sc 12.728527680526417 10.991636934261704 17.8599273117928
Sc 15.854370258695171 15.273233224420801 15.969790328300544
Sc 11.132917147995716 13.74332941986483 18.023845341351226
Sc 17.535579121069336 9.793911820504217 15.473998206327076
Sc 14.571745973423662 9.834629223036675 15.364595197969624
Sc 9.833181708415287 11.604753169759546 16.61419240363105
Sc 11.384173621676204 9.856701006649237 14.74900281552005
Sc 12.710549347094744 15.55354966945515 15.880060276056868
Sc 14.515095660799659 13.943170942238964 13.780011068001876
Sc 12.649501647711554 12.50812675873865 15.629089993540585
Sc 14.043836394158502 17.20362281352808 13.996849230457139
Sc 16.27815599505492 8.875308024354668 12.744494966620918
Sc 13.322570921470886 7.8783874340582 13.31591629922099
Sc 10.117879976163227 14.129702819820366 14.858186505240818
Sc 16.705184142942702 11.833721928211766 13.47961983660921
Sc 12.687629076286694 19.062380745335563 12.052142937625023
Sc 14.405726735351518 16.873932785118452 11.002706746201872
Sc 14.246461760823934 13.702216457787793 10.724837657217364
Sc 12.189443577955386 15.194444668382364 12.538052678909276
Sc 10.789532373962206 17.26862196744844 13.771401506428077
Sc 13.922212549308655 10.788367337885465 12.634510313365185
Sc 14.03812710737644 8.488913945627642 10.524377542875863
Sc 8.973350599799168 11.536533584494553 13.577557318003722
Sc 9.36237326591803 14.585932876232564 12.024854638900312
Sc 11.514393462742541 12.40312076270823 12.608869193441977
Sc 11.127306447093972 9.414885988486311 11.759312149763616
Sc 13.214635920238194 18.88624376264411 9.14268424300723
Sc 15.829273314094733 11.018302179578393 10.356016358559382
Sc 11.24275756298548 17.029829367593518 10.442088955975791
Sc 13.284890499017369 15.915484901838381 8.456908206179854
Sc 11.432298563864634 13.889103447928642 9.627371269478198
Sc 12.764870373893572 11.138502858148088 9.81726467662176
Sc 13.981851112876221 12.934479982120239 7.901023665840818
