33
Energy = -169.28085953 eV
Sc 11.758439208762422 16.22187014953733 13.048740404580222
Sc 10.404115677406729 15.643804751289125 10.039635409803429
Sc 8.977446750903498 14.84795454895797 12.657748059799594
Sc 10.314280261918865 15.112792970650732 15.528372959935748
Sc 9.52222610795995 13.827530208432806 7.586842810959595
Sc 13.078608141587313 14.324971818585533 11.155096985256607
Sc 7.750399112975789 13.973228177817472 9.97123612603467
Sc 13.13883795154817 14.634050074500704 15.223245756917837
Sc 12.514412767267782 14.18453784003341 8.167247463105877
Sc 8.569641559390567 12.845412347832424 15.018880248707534
Sc 11.27498201941788 13.069651649338619 13.39040039441113
Sc 15.268027029872549 14.627821667498534 13.28419094655218
Sc 8.205941452508041 11.813263998010124 12.068032042862697
Sc 8.321356512274955 11.160033385857167 8.934658650720431
Sc 10.574585960403283 12.65326259769513 10.190040467514134
Sc 11.46863503306099 11.40635698983315 7.479241367473458
Sc 11.511257377084782 12.239263800148239 16.231174095368086
Sc 15.933642614172522 13.33234740639019 10.60350527946624
Sc 9.96881857199868 10.337714952201905 14.142394583485153
Sc 14.062785315016681 11.751442299126454 12.77058834405383
Sc 17.09410856346313 12.164300089762976 13.166934838617879
Sc 8.876163640114896 8.81554134154551 11.455777076898025
Sc 14.934592708756476 12.223359671298526 15.572299505838556
Sc 13.548001119896485 11.726828750001404 9.685045567780566
Sc 10.428979815168708 9.115257204399573 8.864705365039729
Sc 11.597948424905592 10.033033749238385 11.521179971718617
Sc 12.910989453609226 9.788629865936848 14.898994074379598
Sc 15.952288685809954 10.168893245329958 11.014176296927994
Sc 11.049351482403292 7.630131318092761 13.546806384097096
Sc 15.853605129511942 9.636174337495376 14.127366888920518
Sc 13.428932727565485 8.797568943930914 9.192831565940772
Sc 11.410099071267442 7.072670706207366 10.690459976142144
Sc 13.846780167288044 8.243539469654285 12.288898599969544
