33
Energy = -168.11270968 eV
Sc 14.874333182572581 10.470807580338864 7.967549001028534
Sc 13.300708791935465 9.614425362376231 10.631520737834158
Sc 12.081180805968026 11.418825207251981 8.169868422242107
Sc 15.595027730024077 11.624520680237776 10.76500530178429
Sc 11.278851651718556 8.95896334169345 12.910863141730603
Sc 13.553796732750506 8.178070151619417 14.517680670056722
Sc 10.197015431554469 10.688471108975206 10.745931783624101
Sc 13.7125253149736 12.173673214752109 5.788537068860039
Sc 14.46266295956924 13.390513177193666 8.423227257853638
Sc 13.94006467243826 10.91545899055214 13.314055003858366
Sc 12.065303873724904 10.224381875237977 15.908356032824127
Sc 12.728232751006468 12.638647011523787 10.988384141498818
Sc 10.156626349298444 8.152730323328049 15.414750286246532
Sc 8.525368253497096 9.87225008877875 13.416117902040833
Sc 11.951313459695323 14.198220746513991 7.091920517784459
Sc 16.379355303175096 12.898090804140303 13.714142750925541
Sc 10.210348569364593 13.576621955087464 9.615416833372143
Sc 10.96843566233996 11.880579642727236 13.618653426957723
Sc 9.22860639844971 11.019197150967104 16.111751342531683
Sc 8.514362374406055 12.72978846341086 12.198255376450971
Sc 14.699393075496129 11.996984549794202 16.080142670045472
Sc 12.586560845140458 15.460416245651105 9.89451107744339
Sc 15.200260712787049 14.644993950389125 11.399129106835463
Sc 13.504617400564456 13.888252907773891 13.95902391757716
Sc 16.95197651791583 14.164831316642463 16.46497199761486
Sc 11.658540969915006 13.13424832318912 16.476353643951363
Sc 10.817648818671968 14.852102757276295 12.423690929718546
Sc 9.197005791832222 13.890891607203551 14.902987761858222
Sc 14.173286944302266 14.9959041191773 16.786949914173203
Sc 13.409163726462316 16.713941563276215 12.84538991068753
Sc 15.947272407296637 15.82780475570267 14.242058563348653
Sc 11.697311356463556 15.949144526940122 15.26655473160548
Sc 14.253499293224355 17.700520942838896 15.683493136825655
