34
Energy = -174.5132988 eV
Sc 8.900862112480237 14.050863256669263 8.717447192048931
Sc 9.902077259292515 12.328683837769738 10.949975531909317
Sc 8.730874778114167 15.155330539316536 11.65477192087029
Sc 8.05051539676931 11.119301649652334 8.614762773065852
Sc 8.407936330030884 13.109403633740365 13.832718884382915
Sc 11.584008136318943 14.777629172393386 7.126715493069603
Sc 10.607362400784515 9.662831155700923 9.616472132640775
Sc 12.876480442015213 9.968774377812437 7.656275999692449
Sc 10.829685918095697 12.730687053620752 15.548650668440953
Sc 10.675669459429018 12.023158049264095 7.399323011028913
Sc 6.64989315903742 10.755402317749846 13.766334827664643
Sc 15.799903479599813 11.872728741215099 12.129521721090615
Sc 14.000845365113467 12.813934532132988 7.073562835955548
Sc 14.112144688139956 15.47360067607708 8.554954308123731
Sc 13.317637634960468 8.421200528363753 10.369272230861121
Sc 15.190273033106529 10.584613577111657 9.42643856403303
Sc 7.988906674287964 9.707175383984525 11.33093668053217
Sc 10.658691647572516 7.963507255344721 12.196880394895443
Sc 12.93568696400932 10.726184573533036 12.349219050889468
Sc 15.827768136678584 8.840337133104548 11.926543024878468
Sc 12.707076648186536 12.373029042917148 9.590217201184496
Sc 16.00156204694788 13.388277244320477 9.396354901787761
Sc 11.390155992300555 14.02458028782785 12.924751361942123
Sc 9.98737962515243 10.537049867817984 13.512079245857773
Sc 11.420134227287091 15.148142796235131 10.040674640883545
Sc 15.25216458590157 10.099977453137322 14.532899239605179
Sc 6.984742266643116 12.622566655191351 11.194594116583506
Sc 14.081776695531529 14.246182540805512 11.486868161744098
Sc 13.333512021977056 7.93847900562718 13.619385948835765
Sc 7.986243695532559 8.122744836213762 14.074432776753712
Sc 10.615817832632729 7.86088765854136 15.193381608669148
Sc 13.834650356642097 12.803735668510187 14.447193530533713
Sc 12.39087419817115 10.21721996630039 15.536031829771334
Sc 8.86304505394955 10.34640216530432 15.994464798026408
