38
Energy = -196.25185297 eV
Sc 18.549828773550335 12.27648866896705 10.632497041065145
Sc 17.692255438311197 15.270982900155435 10.208690981786251
Sc 19.366404661954384 14.62416029528976 12.62383700684105
Sc 18.72895911701779 11.906167354136285 13.82958603225644
Sc 15.629642116054345 13.061813813049625 9.44843023591383
Sc 16.081921385459204 10.255714000770334 10.310613631236551
Sc 16.803196071963228 16.511272430224803 12.899340805584046
Sc 16.640103343728146 13.419816127738185 12.382873974269733
Sc 14.627435236703716 15.716147388635495 10.837221525867042
Sc 13.243994076100147 10.76283639071481 9.28555569509507
Sc 15.937376105380975 10.443571108191945 13.148445745327782
Sc 15.95417570952112 11.970102421104983 15.609310992429407
Sc 13.755739470265295 12.02524783948211 11.823339928159497
Sc 12.561436931027552 13.901417880678204 9.367724945038399
Sc 17.531058999623596 14.494375764562484 15.158971146332028
Sc 13.782170457486103 8.921444185233353 11.694407309267806
Sc 13.33982103668473 17.24994734270489 13.131293023332498
Sc 13.807916827810732 9.331488358829139 15.021053578785574
Sc 11.466499881602969 16.848690455974214 10.642777456650725
Sc 12.97998202270825 12.211347907328701 14.908900999729878
Sc 14.595747613140272 14.583139481691092 13.970030726059099
Sc 14.389512957547975 14.179088943143514 16.992907737564675
Sc 9.616029459884237 14.409890158908555 9.970533221272577
Sc 11.788914353711922 14.611576270012167 12.323454548216182
Sc 13.665750889950296 11.200147583013386 17.618369529732274
Sc 10.835149006721247 11.926901490978718 10.952797148135964
Sc 10.32730542091428 17.202867389348807 13.517902591130222
Sc 11.450501520444234 10.082231975592943 13.238211906386434
Sc 11.986032797225526 15.515096062726535 15.36827760538634
Sc 10.994986648004662 10.280640736630103 16.256555813808543
Sc 9.999442428014879 12.768864562511004 14.03500855231332
Sc 11.352133563624356 13.242962890963653 17.37450468108119
Sc 8.497725606928617 15.12536539526728 12.59423407661158
Sc 7.9455811121791795 12.339779101179898 11.71725179007634
Sc 8.995644643757496 15.124270863883316 15.662266994017617
Sc 8.623354511747845 12.164474414136707 16.655039244281657
Sc 8.348768233155955 10.368202741610595 14.17446053181276
Sc 6.9661109720827925 13.082140239520644 14.411249353094183
