36
Energy = -184.46683025 eV
Sc 13.843232869836296 11.409991617854843 12.172311565387616
Sc 13.095451750848168 7.832689795109223 12.526474302062107
Sc 13.412451959174481 12.992420893055215 14.853803711848956
Sc 14.041359065861634 12.07536544350419 9.18021141422695
Sc 14.021755340718432 9.0005002002544 10.103544336486
Sc 16.44985016088228 10.802689422378117 10.331347737471436
Sc 14.614329728766679 13.725930558242542 17.58547523962278
Sc 17.436726878693893 15.507345041315341 12.30939948659612
Sc 11.077690693942778 7.678417806027269 10.377459285719167
Sc 16.490512877073513 13.867000254089538 9.804802290209741
Sc 10.54429301001164 9.278462278387138 12.998584704551568
Sc 10.625847983882668 11.419973798668313 15.53710439706245
Sc 13.91066478453006 15.23811672718955 8.673290157896334
Sc 11.618526015244445 13.99277921869093 16.875431096555246
Sc 15.705521282639612 16.899782733292437 10.325631148084272
Sc 12.061717447626025 13.920018469934174 10.603256017935141
Sc 11.363763006193793 10.603004215495485 10.339608362886821
Sc 14.610996402782035 14.51494573057683 12.027013467266826
Sc 8.783252616600324 12.612810838358445 10.445121060302288
Sc 8.517486569601438 9.62893010274681 10.8143105645207
Sc 6.059596418227833 11.436785772696293 11.073179168934152
Sc 14.843878666949768 17.122708621532105 13.321518066788848
Sc 12.688446519972574 16.934372215754458 11.006656830996231
Sc 15.733098193298861 9.312085861373083 12.92500710387634
Sc 9.579143110601517 15.294262388088205 11.812319889044113
Sc 16.801123602681482 12.43939699829649 12.769288235098857
Sc 10.889814263768592 12.548991442872888 12.772899386739224
Sc 6.958554343577815 13.938483300656758 12.383269414572577
Sc 8.113745600029503 11.397523084979357 13.291525082246045
Sc 16.045528875575577 14.587661174844463 14.918047776954978
Sc 11.992404797202198 15.392866928697469 13.634914774589259
Sc 13.11493056309175 11.269469422529463 17.397861993646917
Sc 9.239426695697732 14.112413396084857 14.620833302665757
Sc 13.144727348609727 9.799384379613969 14.745496370118223
Sc 15.747926795093665 11.39289419277397 15.548447212068728
Sc 13.665907176423383 16.079054626132137 16.050069428957062
