34
Energy = -175.00161712 eV
Sc 9.116679243798616 14.796996544204054 13.65516729689746
Sc 11.565132790919357 12.909704342080039 14.035362557450249
Sc 8.655108271655749 11.531062305237878 14.177888972400714
Sc 11.555302344620808 15.298340990024396 12.010419900155963
Sc 6.9678881580238725 13.009872274045648 12.157974107004858
Sc 12.997283759927097 15.292045848535873 14.759574900888019
Sc 8.88949374134874 15.125912336184642 10.506297753595474
Sc 9.957984996936311 12.755321225088888 11.673950980370174
Sc 11.342704927038874 10.131352085462044 15.11092322593193
Sc 13.998949974358554 12.346075275375131 15.814054962506923
Sc 8.888072215875379 8.439241918218551 14.404844484686821
Sc 7.010874460972313 9.70019000754349 12.069225267263832
Sc 12.014101062311862 15.604214954068624 9.067584363632356
Sc 14.522130897351584 15.68062064939153 12.10788306124344
Sc 14.380870626271733 12.744448040599611 12.809335876306172
Sc 15.935954973313796 14.49661482463211 14.596165547248386
Sc 8.00666069527587 11.574468613545816 9.732590241811392
Sc 8.547566254471661 8.519350217764734 9.415085136756025
Sc 8.922676250804356 6.904284428801948 11.881610961334982
Sc 9.8509415059814 9.730585384691105 11.803776206413998
Sc 14.9550644200228 14.787684873407821 9.380448491956763
Sc 13.280177812676696 12.792396032842852 7.6404032822654955
Sc 12.675529342161123 12.838092257446208 10.322955900342722
Sc 11.69672847763905 7.657938201290021 13.353982302694497
Sc 10.242877277580705 13.348791554219595 8.473267460639118
Sc 14.295640648133745 9.639851025714128 14.532136366944812
Sc 16.66181192799711 11.544729693715636 14.107721500335096
Sc 10.828145554796482 10.488958753861576 8.77276183964694
Sc 11.521581613650953 7.831105797590477 10.249957885524655
Sc 16.978269462931653 13.87483396311971 11.78906699107866
Sc 12.616451270045577 10.389763614285991 12.252357242672929
Sc 13.692718383521859 10.024471361634701 9.2951983067188
Sc 15.652997647418493 12.061334111765996 9.790228909499337
Sc 15.570240576038252 9.827936517015647 11.778136474108098
