37
Energy = -190.62289088 eV
Sc 16.746680051078854 15.486491324531835 15.852841576185766
Sc 17.159511412267673 12.54909313107524 16.35390696112177
Sc 14.338019646833125 13.743234222145455 16.968480070213264
Sc 15.14390723321606 16.839673578578417 13.62809808202454
Sc 13.523216681614194 16.47721130832752 15.976369678745682
Sc 18.5664642774146 13.603859453796147 13.909124353754919
Sc 14.746104079173202 10.700402948022678 16.449866011591865
Sc 16.88612344943323 15.2007247152441 11.915412666554376
Sc 12.126164906720414 17.538290802027152 13.352645075040897
Sc 12.420925804451295 12.138039742738925 15.07985327476603
Sc 15.527062634749717 13.532016180639447 14.103000136400295
Sc 10.612630279923204 17.469910265364174 16.033136906738466
Sc 17.163160902699644 10.947493883516563 13.736767187636342
Sc 11.238355512189178 14.499742077158817 16.534261634318934
Sc 12.730800625649051 9.006361610552757 15.206013216592837
Sc 14.095030474008789 16.114932718333943 10.912731377263986
Sc 12.837964680741564 14.77000479089178 13.579106717013563
Sc 17.34126808609679 12.352057092142143 11.00503322056071
Sc 14.418927299299536 13.014132851613018 11.209275071254517
Sc 9.89764379017471 15.49510460182577 13.896265529804051
Sc 11.286391512651777 11.078015800065177 17.197329407316634
Sc 14.246609892095552 10.776552603905257 13.431565485369685
Sc 15.283436472366315 9.916760283392895 10.888356656272089
Sc 9.381777685932038 12.695838148572772 14.888500740791567
Sc 11.108084947531909 15.177052690335403 11.004976726909845
Sc 15.354451338895869 11.778596267187377 8.541846905552566
Sc 11.459100277382825 12.233858395617192 12.174339566606585
Sc 16.096522814208534 14.531891749430608 9.091336790295554
Sc 10.20163067646191 9.980409260754167 14.076660415465653
Sc 13.024285163047367 13.960897051427333 8.773162096581478
Sc 12.572309617869792 10.930863131721612 9.55784518976996
Sc 12.28115290502748 9.103191687540152 12.03220176524683
Sc 8.60396269050548 13.38084597792049 11.861697528265301
Sc 7.3988341358519465 11.013413785355327 13.024997736434075
Sc 10.004652047215536 12.755297862683946 9.32786509587314
Sc 9.50308328471712 10.286400322520313 11.018838131394256
Sc 7.0858481373046045 11.655389352122429 10.034325567427029
