31
Energy = -158.1020744 eV
Sc 13.923243957749836 11.969953742966503 16.928835762587322
Sc 11.36595117816698 13.405102460257947 17.722235865395255
Sc 11.27360880170266 10.532108314156694 16.802744405389458
Sc 13.187729864224 10.148810814415889 14.354633627831248
Sc 13.55770189053237 15.047751970043617 16.082117060041814
Sc 15.08424864644125 12.590067336519562 14.089711024053635
Sc 9.202674657169954 12.39451132251287 15.454310833819873
Sc 11.996397265765598 12.987567117312002 14.828208787913058
Sc 10.341501088175313 15.354209879279502 15.759059081926962
Sc 13.515766681171447 11.076184589294478 11.452968719740863
Sc 10.104748740681558 9.541340694720487 14.230006285294413
Sc 15.168711922300112 15.565607973615524 13.366454171056775
Sc 15.95604210322432 10.082248685427658 12.139202792091965
Sc 13.21523367963366 13.827407676683325 12.094380406972673
Sc 15.96042968928681 13.416161419479389 11.191343283749289
Sc 15.550319946868074 11.137547091948559 9.209901374816871
Sc 12.13245873326501 16.15997888220662 13.399535363489095
Sc 14.103546190540694 8.698833237645657 9.79159298214803
Sc 11.807044490352476 8.555303446744437 11.958149424020187
Sc 10.636294378101596 11.815360488439502 12.411066891014842
Sc 13.917375858033916 16.079952478570902 10.628624657363844
Sc 9.48994001547298 14.481140889454547 13.042325378275025
Sc 13.515861319434913 13.354754355370158 9.044971819971737
Sc 11.255564801485066 11.321409630815868 9.600607281668099
Sc 10.98453743114204 14.519930273817584 10.344498146348757
Sc 11.174883282350203 8.337011729658013 9.046543227608556
Sc 12.926829821825217 10.52159583707764 7.486610345122309
Sc 9.107589695787595 9.606759021620698 10.907833667760634
Sc 8.63278609756559 12.591811610410565 9.984355889634063
Sc 10.546098874415256 13.243126847401953 7.579033145440941
Sc 9.241756078961293 10.389391264579363 7.795952666126077
