39
Energy = -202.21782369 eV
Sc 11.961766367793688 8.898505418446355 14.689059448085226
Sc 10.231556434236598 8.895424280835401 12.02359334897764
Sc 12.923730226584057 11.003072306579519 12.606157760640416
Sc 13.701408970670679 8.341252412880687 11.803877410411985
Sc 11.95413999959751 10.019474875354975 9.67317940548732
Sc 14.93048670541973 9.529810681383633 14.306554533467617
Sc 14.960523224455196 10.666716155960565 10.079657763745628
Sc 8.837464457047925 10.288913411919983 9.450271183700412
Sc 17.183852989254984 9.95708211866967 12.26710467064948
Sc 13.670723151047264 10.26429559762403 16.923965655954873
Sc 9.091511864992992 10.497136585059303 14.528156817811894
Sc 7.378633688016758 10.608657594298451 11.976721655390003
Sc 10.59086050271622 10.37153497854458 17.341302450854485
Sc 17.052976907088617 11.456361657411302 15.125724646981226
Sc 11.60018385366166 11.915587516615561 15.124755193244788
Sc 13.49982547979265 11.930671771073493 7.607284671367133
Sc 10.076522598928323 11.815593374179883 11.756176747352738
Sc 15.730262469306764 12.432210370989047 12.437322084422421
Sc 17.68007472484499 12.223746157960207 10.179352999762116
Sc 15.405066624546556 13.980568983652114 8.997365834452088
Sc 12.956020659163197 13.155933284777294 10.385150713280172
Sc 16.661977490752683 15.078568095142701 11.503426976425771
Sc 10.503117895506469 12.663751146380024 8.522640633684885
Sc 7.975917633190664 13.300517918609376 10.409115562649825
Sc 16.499520095463218 14.596758221780384 14.550783870791792
Sc 18.581138026469766 12.941082787582138 12.932702658345944
Sc 12.236773252386376 12.826595710475356 17.870977281503606
Sc 14.316566793112555 12.665408660777258 15.343598150515778
Sc 7.898998517968015 13.303457838861995 13.595145779083987
Sc 12.672084089407015 14.826219688510768 7.9036477602875985
Sc 10.758199681979566 14.21543160267871 13.320132764726464
Sc 9.45552458497942 13.19324052248889 16.40924190299733
Sc 13.774478671143273 14.635723982538742 13.012482107158144
Sc 10.660680920884642 15.180174185955151 10.37748524476292
Sc 13.695721076199867 16.17891271356822 10.39303563357191
Sc 12.283623885932823 15.147339015586299 15.683821330880006
Sc 9.313535896322014 16.03732509128461 15.0855027555588
Sc 8.529048234345158 16.03269215507841 12.231538085655092
Sc 11.462596183517189 16.927687802773374 12.974653275467015
