34
Energy = -175.08914192 eV
Sc 15.167757653668925 16.904307659619597 12.935642739249968
Sc 13.4687495762272 17.037980859862955 16.016684747065582
Sc 17.12853894372255 14.54532866480759 13.597615321607163
Sc 12.030940758206592 17.164512608485143 13.273192362944055
Sc 13.301008753814905 16.30214763919645 10.546947926769736
Sc 16.035485965986734 15.453275859178875 16.5909804243589
Sc 14.277321208072994 14.756617606539924 14.539680603265987
Sc 16.43384892649025 15.311010618973294 10.180778155364049
Sc 10.989189671546312 15.384477963092966 15.436896836809254
Sc 16.588112840509325 11.507438716443295 12.858908584648479
Sc 10.80702006769106 14.412347278602969 9.926811502126402
Sc 16.003983948529772 12.464885198811132 15.769495959242825
Sc 13.831840509392965 13.891762623216712 8.800008556063462
Sc 9.217031428178151 15.09526835571299 12.764319401128143
Sc 14.813406156998912 13.977605170872502 11.801945721190132
Sc 12.00241069921676 14.295373847818851 12.75661554684764
Sc 13.212811941392552 13.603090352844989 16.829662153398015
Sc 15.84020205955921 12.010393181220213 9.847825537418075
Sc 10.016233567025429 12.450767055956852 11.946582478491377
Sc 14.52914303497997 9.540595476082558 11.580489730822647
Sc 13.771207666971868 11.902797118521807 13.95736506469824
Sc 7.9174220175966985 12.067228366164395 13.783342300899905
Sc 10.773097228142326 12.36657264513026 15.076757053618753
Sc 12.798983526790234 11.937874289935957 10.834074263083346
Sc 7.643884402387304 12.687872826069343 10.752546855902738
Sc 13.404017452001952 10.647427190044112 8.45072364480664
Sc 10.325542967311737 11.259718611412945 9.259766400194602
Sc 11.720990573755092 8.940952945080914 10.51633251306392
Sc 12.567576580084747 10.0184337543147 16.011391756867873
Sc 15.173370338640725 9.337464712615862 14.552077377319403
Sc 8.826963037361285 9.867094005532861 11.74053939561951
Sc 11.661230222464532 10.220764298665754 13.131591933127122
Sc 9.575997732457711 9.47391986343332 14.83928224354556
Sc 12.62063310327514 7.753282480796506 13.680636960407424
