34
Energy = -173.76910725 eV
Sc 12.461169903468644 17.977988607362548 9.251355402386974
Sc 14.078959945074168 15.602914358483742 8.632695450890578
Sc 14.475975228666199 16.881139295835318 11.249203467794059
Sc 11.16835579936023 15.211303657623356 9.012231590296272
Sc 11.533843202307153 16.572468222303936 11.768709706854963
Sc 15.982680628249929 13.879535939791648 10.245060938631909
Sc 13.384440716332945 12.682317740560055 8.468651103379564
Sc 15.273252832270174 14.63265419808077 13.018884793486174
Sc 10.620310321860368 12.261428806780764 9.85451425917148
Sc 13.006194884105003 13.912406984711684 11.129310083313326
Sc 13.07303972162209 16.033675996675356 14.205458695300718
Sc 9.562896965780668 14.422785618834796 11.846507626009112
Sc 14.802826742253144 11.148326003011539 10.736025070952726
Sc 17.021774488237547 12.121248599518816 12.880033890522432
Sc 17.31731110502375 14.404268707521807 15.050264841597642
Sc 12.408669428508809 9.64181308563863 9.315805108208606
Sc 10.113414064595586 15.93436255216096 14.558773439856218
Sc 14.154093633616771 11.833081715052309 13.618658159867168
Sc 16.281350182074743 11.670536012497202 15.74693785052664
Sc 8.821256443130466 11.523260876437242 12.491328815754757
Sc 11.208014569955195 13.750415661409079 16.600867457350308
Sc 11.719007406454097 10.501017672582824 12.039914738555185
Sc 9.49345578920534 9.340386083769864 10.318647918262457
Sc 8.67579716631145 13.33064285117513 14.901644555048804
Sc 14.307462571277165 13.852680681950167 15.888055736863992
Sc 11.578883199417339 13.321342264629683 13.851635990505624
Sc 15.732249942895539 9.42936963191171 13.869190633563228
Sc 14.24133699710287 8.39774480533638 11.548612906980944
Sc 10.432959875608839 10.821487428583765 15.188807783108691
Sc 13.29269705936205 11.089753217276684 16.24583992363189
Sc 7.485702327196192 10.462640301135815 15.011002951994564
Sc 9.499685843799226 8.651598549209224 13.3604681846397
Sc 12.687245785404041 8.735179545638502 14.188432047094977
Sc 11.484312711309228 7.425700621372127 11.346715966431429
