30
Energy = -152.22010984 eV
Sc 15.450516091222687 10.880791151601223 13.471657362409797
Sc 16.12359365974704 9.890401600403841 10.66156456369264
Sc 14.720792725562607 14.210722309400252 13.719703221094083
Sc 15.094608362939285 12.712052298839508 11.002315355699393
Sc 14.483113981062465 15.644117381551421 10.909341674367322
Sc 15.48623629079083 7.794408808674263 12.767274541115254
Sc 12.809308082460475 11.905669355119352 14.620456513003994
Sc 12.87888975358797 16.793048469246774 13.14996927046949
Sc 13.638527404803883 8.902115530583446 14.820443003171919
Sc 14.19914866813872 7.901005682951853 10.046668802058193
Sc 13.741774242919123 10.724831788395724 8.832625275518954
Sc 12.792723736963865 13.74182593512819 9.125139270964041
Sc 13.012176251636028 10.481052654964936 11.726468976919783
Sc 11.939740128804358 14.838842914726905 15.025004503306906
Sc 12.180513635327445 13.709166500806582 12.09881564874638
Sc 9.876359944302234 15.597606792700732 12.798490633268493
Sc 11.710919098039525 16.420676697410585 10.412431879836536
Sc 11.315791554830612 8.757095608355078 9.752487381959506
Sc 10.69815079779112 11.545835530887201 8.42547768436215
Sc 10.775282717671779 9.781818720440292 13.9404250906992
Sc 12.326364614664726 7.607171049416765 12.450539788621423
Sc 9.743940349028925 14.15156274370967 10.051204396276946
Sc 9.873646998623784 12.755537511116485 14.038737875850192
Sc 9.76752907501706 11.190609926452977 11.292592937485876
Sc 8.510305205684345 9.393925747087792 8.914869926854582
Sc 9.034035076274169 8.271321978217824 11.8277183957179
Sc 7.787235997604823 10.504891113856354 13.645178858959962
Sc 7.6700046194446845 12.189452713142792 9.057976505499342
Sc 7.55091998301942 13.170589449474315 12.019537058078924
Sc 6.592186943787787 10.22384563126199 11.051053913375437
