31
Energy = -157.33005666 eV
Sc 15.295396259177732 8.123562207792949 13.27626495353723
Sc 14.09101178050034 9.994913557074463 15.514975140698969
Sc 17.210219990132675 10.268862625964127 14.393108539152374
Sc 10.621894136139137 10.510846848524134 15.612032277162518
Sc 13.957649686158643 9.165347818806541 10.585961578081331
Sc 12.71729968562238 12.572968509065994 15.992748697570175
Sc 9.935037152101758 13.381211717426975 15.04054883436026
Sc 7.4204974078088615 11.631483462669388 14.660060557381305
Sc 12.274793843320111 9.006027547339635 13.258783555261921
Sc 17.080547252366348 9.789769282357637 11.315521953420053
Sc 14.874276126091893 10.974103683166526 12.785383903501392
Sc 17.320328758993355 12.74157320770525 12.527880399290455
Sc 9.535282758362044 11.222302408560402 12.945364981548183
Sc 15.587820428641757 12.974368729729783 15.102523258121558
Sc 12.194216917590557 12.080298901611801 13.176930968469936
Sc 10.570722074597823 9.510314598514546 10.829765239537313
Sc 14.44284647118966 14.05370492198259 12.410585251749199
Sc 8.093571526109557 13.962030552448592 12.578171313254702
Sc 13.413709334975554 15.319113509000072 14.939519143915605
Sc 10.092049750377331 13.14584121884176 10.717452936036137
Sc 15.409558250041572 12.125394082482266 10.052275010790138
Sc 7.5762517029278325 11.248074969460037 10.92111999435263
Sc 16.201942457932823 15.793197718615158 13.87377205323198
Sc 12.469026141686285 11.685245004013867 10.09002927263489
Sc 11.276161625097107 14.995368804730212 12.775495105491778
Sc 12.81589643068261 14.746679315118868 10.128911475155885
Sc 9.582629723550452 11.22745813989543 8.526240506945173
Sc 7.906119962108077 13.788312538552463 9.02467385838625
Sc 13.565688627724937 16.921035299522387 12.355689095079583
Sc 10.733698212572392 14.02248322057298 7.973507297666418
Sc 10.026330613281687 16.022957280516362 10.15431801106884
