32
Energy = -163.50619369 eV
Sc 17.22303165504382 12.149891245178164 12.599620513756543
Sc 10.307551743409633 9.963161573131757 9.217814994533343
Sc 13.720399410382791 10.031871647841657 8.848927962939246
Sc 15.574320106801961 12.409356815009339 10.042602496350499
Sc 7.730595455803613 14.151276243108446 10.827856526422494
Sc 8.862082444993048 13.001762418754769 15.861960259051171
Sc 15.156752863533349 13.258112434837233 14.846463306202626
Sc 15.74479006316803 9.60831870851674 11.438444673973432
Sc 12.583431723672316 14.184376201459767 12.607658634276957
Sc 14.137257273265632 11.628198440063397 12.700674643658111
Sc 8.447297824282158 10.0327804150718 15.232181700367404
Sc 11.18518051437413 8.695606196290973 14.634946967251237
Sc 11.750189563692329 14.500638276805764 7.482438326852423
Sc 9.994792967069197 12.294474374174374 11.304023168804509
Sc 12.493693256005256 12.488986911264968 9.811135343330355
Sc 11.981399834947444 13.647652189859937 15.6945251151884
Sc 13.431594883541365 10.761303470526789 15.610384513678106
Sc 11.622377596979927 11.493693814450479 6.949429316005951
Sc 7.476975560064837 11.177759521742882 10.199513753356149
Sc 14.080780874863672 8.495139187202376 13.676136200234962
Sc 9.086052309494065 9.405520685566149 12.268161370763803
Sc 12.196944679396875 9.629396877347226 11.622379068742648
Sc 9.284162244688174 12.951524554941447 8.406669643267907
Sc 7.566176834327253 12.122734485637949 13.173971478814162
Sc 10.707982417974902 10.979236580248507 16.924801747630966
Sc 16.276418952802945 10.315409892476868 14.574785309542337
Sc 15.524947870217398 14.585398446620658 12.175917969323388
Sc 10.654550708325845 15.2135869214736 10.280101096194342
Sc 9.644662655410634 14.61912360568958 13.401379855157092
Sc 10.938276290669556 11.54761478186198 13.96580457504946
Sc 13.847652188822613 15.093011734129783 9.679350920220447
Sc 14.208335814328176 12.819192818204964 7.354536170159223
