30
Energy = -153.2221442 eV
Sc 14.952191393540842 11.424309866206274 9.14426881582015
Sc 12.570189175113068 15.959039914198417 8.650249364134766
Sc 12.477826631105106 12.817355516254858 8.261842787674711
Sc 12.499956942296594 9.452193498820174 9.355034321521808
Sc 9.785489970261773 14.29466892655368 9.873784581544571
Sc 15.140364045160789 8.952937951180083 10.766303101903963
Sc 15.20011833112821 14.367354237601235 9.619383453372214
Sc 14.005819544423998 16.67336814563964 11.364118391855405
Sc 10.346565278249486 11.42540522724968 9.74872812916163
Sc 10.960546516701164 16.775561338595693 11.182527638462272
Sc 12.592380565801424 14.196225011316127 10.843725387421753
Sc 9.968036512325803 9.18162610282477 11.357509989200873
Sc 13.349812740515985 11.278220291943352 11.579742049067836
Sc 8.17106085677205 11.869451052757821 11.97682598868596
Sc 16.508427888472564 11.713969724143807 11.756574847439623
Sc 9.03057024401411 14.911827608876164 12.856257786407616
Sc 14.882616562627714 13.989241905227585 12.809075048598316
Sc 15.113822854184805 9.814053049301135 13.591860961941666
Sc 10.391221636522612 10.051051315443555 14.165136543801557
Sc 10.74671456099104 12.576250897768263 12.52739229797267
Sc 12.621295837376161 8.548613837596834 12.641288473510045
Sc 12.090433310671381 15.26570602260966 13.611609852968451
Sc 12.954922267798375 12.196650639271871 14.583236759244086
Sc 15.90940741563712 12.228458749628802 15.097698238881222
Sc 13.10573822138481 9.473511139296779 15.784765339542247
Sc 8.921266752467309 12.678490356472627 14.910699002542632
Sc 10.896793848906128 11.210022776569117 16.83765131828793
Sc 11.261783160111916 14.085465723317377 16.287503295141164
Sc 14.250347507364099 14.742782931764715 15.766992558923167
Sc 13.670700688091166 12.222607501587385 17.424634934986972
