32
Energy = -163.30410812 eV
Sc 12.549940458399785 16.148734870606365 11.783289876211814
Sc 11.978778879867567 15.714152265628746 14.814714615807086
Sc 9.842593848315929 16.922164565778992 13.143637148159916
Sc 13.889556436265979 13.574093337620567 14.055643797462702
Sc 9.706384064020902 16.083915780270026 10.368386198387046
Sc 13.835195310996134 13.27561550484051 11.105867448089894
Sc 11.67513921962445 14.29194089003681 9.10237705165593
Sc 15.77082267397053 11.278981250859605 12.985493993199007
Sc 16.19032945445105 11.638313873309109 9.977593466354932
Sc 10.641790036364197 13.983921185239163 12.502506453561589
Sc 11.608585001078577 12.874690800343668 15.97801608764699
Sc 7.7439782875101635 14.744492957111024 12.396105957053555
Sc 9.168383121270237 14.845361675197116 15.195934411145746
Sc 13.848185714410988 10.540585464072276 15.368121700685395
Sc 13.489845632740382 11.904953878131222 8.305449702842997
Sc 16.560456937960502 8.910296904456496 11.024936901909536
Sc 14.90835174224219 9.173677381566602 8.51869453524548
Sc 11.88164472798977 11.271531632580338 13.435388234078456
Sc 13.692073858929247 10.090266777071895 11.137089784865307
Sc 10.857160424962151 9.839854709726081 15.767375247140572
Sc 8.642099289889522 13.400025518528388 9.409684752828205
Sc 8.929115800567253 11.990853777017945 14.490718013916558
Sc 13.959884402590234 7.188489172567418 10.750950275486622
Sc 10.480141291529407 11.94954656931034 7.455704092511368
Sc 15.059965447375712 8.389756431880661 13.473064625485293
Sc 7.96613508602812 11.784116690990166 11.707914760505885
Sc 8.8324971283784 10.002224332435524 9.29235974295675
Sc 12.17978728279585 8.232815980934143 13.489032359385684
Sc 11.84867455215577 9.329345369246653 8.228094966001299
Sc 10.918379716004525 11.497691751471512 10.433593348819828
Sc 9.4401764730328 9.490410133568385 12.80839218625158
Sc 11.012541195550524 8.205873457310688 10.725769099206719
