36
Energy = -184.1418247 eV
Sc 17.33419721226388 16.702679230367924 14.524755242529517
Sc 18.013309955951343 14.573233847578408 12.58194070220777
Sc 15.395998162965062 15.97784372194579 12.34434234222704
Sc 16.084956479393178 13.76724658423064 10.353564267196893
Sc 14.340148405951812 16.50183289182215 15.109050064570358
Sc 15.996122576077122 14.018867834185132 14.697954509227221
Sc 12.195666783068912 15.83194330967571 12.948038063409895
Sc 13.044642231626584 14.50374703618983 9.941514608254678
Sc 16.539784991835766 11.816230952866464 12.550936264269467
Sc 11.226650962498809 16.388545249297426 15.776256028185799
Sc 13.862342281199073 13.208317819064993 12.5332557167142
Sc 9.139818760586023 15.488422633353013 13.818115973599676
Sc 10.06454699941521 14.926544281708221 10.74833641278525
Sc 14.46972122540154 11.252116225799787 10.356237046334213
Sc 14.305870389283369 11.026957657015956 14.614611079067108
Sc 12.808479901727917 13.818620853490524 15.4829013663685
Sc 9.82443082934878 13.762669306031524 16.15717866750457
Sc 10.757029811959933 12.994110820860003 13.193503522991547
Sc 11.355594601955834 10.997216744785254 15.562478664280864
Sc 14.982268510542438 9.019528505910033 12.335074404959405
Sc 7.8306235708161 13.394757076081117 12.112347690570124
Sc 10.83253347949666 14.172681846258307 7.864953118752016
Sc 11.331054073667367 12.089027799691452 10.251976964387424
Sc 8.455350569794724 11.708478809170186 14.526521501498069
Sc 12.134831613109787 10.111227151963465 12.538283444300275
Sc 12.63367884836252 11.699327529167734 7.716843285909985
Sc 12.793078409551088 8.142970196446736 14.66518801015157
Sc 12.76690620931601 9.00162584406701 9.71214626657084
Sc 8.623640774616142 12.593059843307255 9.102536868397573
Sc 12.919605368584385 6.93021863254298 11.990143263676462
Sc 8.961549053310153 10.649898904768145 11.62862572352686
Sc 9.793404945628419 8.851628368134833 14.08998764084781
Sc 9.862536726457586 11.826833036099238 6.3583162858232
Sc 10.082724681142459 9.928755594997435 8.68836723466412
Sc 10.255106103215384 7.8506676368188195 11.274092431955365
Sc 10.764686888040773 6.004697667629555 13.709754185771265
