39
Energy = -203.71867421 eV
Sc 14.77999050367355 7.558054864698087 10.92574045075324
Sc 16.33102737342845 10.303021694126837 12.432220300880738
Sc 15.408283571994437 10.945817450825693 9.437652168096722
Sc 13.30839076720983 8.94339607158909 8.485402136516651
Sc 16.815506882929057 12.790749011567852 14.500180286734826
Sc 15.333653793549864 10.679408677428489 16.230461098521253
Sc 14.531070217137673 8.577601230320532 13.988304160587788
Sc 14.933610778113813 13.981874074329772 8.625544462362019
Sc 15.817087048690297 13.304862558492664 11.61337556727758
Sc 12.854980304218659 11.759861804758756 7.60598375165515
Sc 11.609836232015844 7.534834222794954 10.188727912265357
Sc 13.414644941759194 9.805004560956261 11.50310446037143
Sc 14.050851986909286 11.786555305919443 13.81285082852045
Sc 14.95342799488004 13.778387898108729 16.639168224286035
Sc 13.131293122540018 12.71657886309594 10.491611549089516
Sc 14.415020313157454 14.979342271948052 14.01899566978739
Sc 11.038646130508047 10.613533132090543 9.968554171288694
Sc 11.846983888784003 14.545973457399702 8.428083924246236
Sc 13.661299831404676 15.565619707334235 11.051541826212965
Sc 10.116104709646134 9.14375195962815 7.9087996261200795
Sc 9.817004700095898 12.402357586518226 7.892535053470966
Sc 10.845181922598297 16.123149029775696 10.575549588876775
Sc 12.683090737478272 12.181951596078354 16.477005568932412
Sc 11.700496310981878 7.680058468068861 13.163619591528322
Sc 11.807793998488066 13.699731160664857 13.180532072764045
Sc 10.956882268321973 10.657980544727556 13.045376100631822
Sc 9.8309965041381 13.313520101420137 10.937289025061283
Sc 11.266324063145582 16.584917992769935 13.423061853867754
Sc 12.178720961672063 9.514389468704064 15.585430647223259
Sc 9.133462343679591 8.71567272332864 11.53527305813987
Sc 11.814647187713597 14.89224826482624 15.893213408214178
Sc 8.015685269756208 11.080643553053983 9.814162732270782
Sc 8.561233284643816 15.16628360803962 8.902508822024133
Sc 8.355662221388682 16.3389816962087 11.794873845892031
Sc 9.950048273421437 11.97096196017664 15.477507495300415
Sc 9.203848414566425 9.026654183099106 14.674636383415512
Sc 8.107973276454151 11.477532644349763 12.919154187084052
Sc 8.986862170308413 14.430938890865407 13.956382022742908
Sc 6.958555353926822 13.829708295922044 11.139606057276884
