37
Energy = -189.14022486 eV
Sc 12.159300704895422 9.930180866453926 16.798483442467703
Sc 9.179661815702493 9.991471341328293 16.939343474474633
Sc 13.788546916313635 12.613608716891376 16.337332250665654
Sc 10.716872880385091 12.62174012808011 16.547134134007546
Sc 14.845310362394615 10.003889677648026 14.762178902133648
Sc 15.351455987894333 15.497133381823796 16.080210946544824
Sc 16.043084371128153 8.856110931784832 12.115159453398718
Sc 12.32037339712415 15.434852778881547 16.081475115942535
Sc 10.48528142000977 8.820180163318799 14.52650649589967
Sc 16.51660177102838 12.913610095907167 14.645823985512436
Sc 13.917105962806476 18.062659504256676 15.711678945483937
Sc 17.949690220145374 10.426884643105035 13.787590497806292
Sc 12.164391115463411 11.243984959554592 14.082257524716386
Sc 17.705738761235637 15.635355311344892 14.249080449253487
Sc 9.033844164675937 11.604931469837288 14.317539255663876
Sc 13.00623639815515 8.915343238111516 12.235398944059568
Sc 19.03106386091707 13.192484208237335 13.015679216357537
Sc 13.914993260398228 14.247549991428237 13.657915823104071
Sc 10.24953998642223 10.3690184400754 11.75402390577713
Sc 14.587328597420367 11.55291162774835 12.10850451443698
Sc 11.055769313436507 13.914350066910263 13.721158822107741
Sc 17.454592252183588 11.444237574711726 11.029809779880692
Sc 16.46664473649043 14.34159642539915 11.781849357262383
Sc 15.202522486713525 16.95824112355702 13.269348537564424
Sc 12.491792451277876 10.647228128764999 9.58387249460323
Sc 8.74765175143659 13.307427478899346 11.625069323141114
Sc 15.34461391433867 9.99007904238884 9.537473749579465
Sc 12.14630544595336 16.821289074326263 13.455843866053161
Sc 11.917019714663647 12.940029715816848 11.15220343608445
Sc 8.86624731130339 15.458904339373479 14.11337667331351
Sc 9.738871155219165 11.934393984816673 9.024760956463082
Sc 14.661446406274067 12.99549616577775 9.457202341743809
Sc 13.549094191431069 15.54839428539732 10.863778935570485
Sc 10.416961390942244 15.721888295493734 11.112738471464372
Sc 7.447743766047885 16.032705569943772 11.424300631025037
Sc 8.560524904927048 14.73957144416992 8.972491048385004
Sc 11.68529864397048 14.153110019695099 8.540203711859219
