32
Energy = -163.54868968 eV
Sc 11.918268612326864 13.350429424971532 6.586311414790536
Sc 11.562978994162055 15.80721216710872 8.33721901139839
Sc 9.127697517219776 14.015362230766204 7.654633291748424
Sc 14.198804137396097 13.817491043989616 8.88460513430779
Sc 10.27050313060055 10.812796176908588 7.877170881439651
Sc 13.358542771450113 11.184648719840306 7.936964599039596
Sc 12.604437761842394 15.200513121934847 11.271128447836368
Sc 9.48301475264172 15.320951584026943 10.524444776015224
Sc 11.231301310161477 13.028076019998485 9.459536294434669
Sc 15.585325816093478 10.866856664813916 10.08598266615844
Sc 8.28455754429958 12.434088865202792 10.154538553060817
Sc 15.403289428700171 13.803919378206649 11.917592128468447
Sc 13.215650393102173 11.614414503491355 11.20237231111571
Sc 10.124637835877202 10.15560383520634 10.977152012318127
Sc 12.734362285733784 9.009388283080407 9.654157789593542
Sc 10.247387446517084 13.044160851960395 12.43756761676677
Sc 11.056180533619045 15.620495256377657 13.876630258061933
Sc 14.147350368991903 15.867194367092308 13.917351239691838
Sc 11.500664029403938 7.529630535157107 11.977426313167767
Sc 11.595218479522442 10.227039480432127 13.534486406496235
Sc 8.583090853895715 11.06386756198393 13.76117086691629
Sc 15.677265082665285 11.270203221828352 13.212414529636858
Sc 14.171166784125585 8.864483373022388 12.451425876073747
Sc 9.432757917138293 8.257893434768226 14.029293904058715
Sc 13.015029987594417 13.022931366073914 14.031665129677346
Sc 10.363806545410714 13.056146474875208 15.586952895501165
Sc 15.375303850691783 13.46604585770433 15.49278949064416
Sc 12.797083616871 15.065263905878822 16.397307601086858
Sc 12.242959117341359 7.658431402615302 14.91297802729559
Sc 10.74693033183265 10.045963894869775 16.258512430290057
Sc 13.970963352161107 10.183205042961854 15.38301214165402
Sc 12.872731186732482 12.280841151862319 17.13135712087304
