31
Energy = -158.40855911 eV
Sc 9.687784599499087 8.329210513667558 13.04994151417206
Sc 12.274150537393195 6.8651979123237385 12.083838021668923
Sc 7.365548229512983 10.281342306037047 13.488381644078515
Sc 12.570467255737249 9.001700007263294 14.269458228744886
Sc 10.458437554857221 7.814575218470776 9.794342230452758
Sc 9.853473536149984 11.891512420336817 12.88991850469302
Sc 7.846295793598364 12.840765707961497 14.903003350948081
Sc 8.528633031938554 10.000193874520557 10.690587391440959
Sc 9.949985082990327 10.469218474537486 15.404267409723671
Sc 11.72117234891061 9.836964846015237 11.500595173103662
Sc 14.771558714983223 8.856802333698228 11.985644728503203
Sc 13.444189586861857 7.90353098975216 9.544491179085286
Sc 15.244797815259366 10.797696052869814 14.194306910303059
Sc 7.469587509373998 12.821551475445075 11.641504890424294
Sc 12.651164695250943 12.12941643164708 14.033590430492948
Sc 12.115194794411634 10.267649126006978 8.598994106128265
Sc 13.974941543765286 11.819890853532558 11.316891981139412
Sc 16.875692570919174 11.133661842369124 11.726019920578564
Sc 10.62048171983787 13.564915178235598 15.618399470800297
Sc 9.444917349651522 15.006286686388815 13.276056975206172
Sc 12.644729504018981 15.253061359397647 13.778393414936602
Sc 15.23398292493669 10.430119015813304 9.064209424621398
Sc 11.64613679204239 13.906047274584333 11.347600490980149
Sc 9.996969897811494 12.415145093476102 9.459794379010983
Sc 15.401661914106075 13.698249747042686 13.011928878062081
Sc 8.959718991985053 15.219863986103055 10.352357889909158
Sc 16.09291124796253 13.356247387913518 9.90870591409162
Sc 13.331618998453422 13.064372936351791 8.611603993138402
Sc 11.280498370273143 16.837438814943035 11.437203134353894
Sc 14.016238132045066 15.427319867778696 10.782544429949528
Sc 11.456754081278424 15.430367807100126 8.80601380040888
