30
Energy = -151.8619883 eV
Sc 13.12254620281993 11.983396353999806 6.897134746092042
Sc 11.304903558767098 15.51362396874681 9.022309254487187
Sc 13.919931921786576 13.984567072094272 9.160574910160301
Sc 12.219470397609038 9.892463632242334 9.247221354057952
Sc 13.210354731174402 17.49394879381783 10.35935224096734
Sc 14.89640611575096 11.1834371639286 9.110041271873888
Sc 10.951900819414938 12.551379685409092 8.639837504219729
Sc 15.620247659660867 12.78556076112376 11.485530244144517
Sc 9.842663721402259 13.899781228940014 11.10776578695743
Sc 10.618832988655237 16.99878906998779 11.649113332500047
Sc 12.563421138875043 11.974693031886416 11.253500976584146
Sc 12.689100146890834 14.902499968842188 11.776651725341624
Sc 9.565709436944298 10.78363191677062 10.623751675975347
Sc 15.491032576018604 15.957742554507046 11.41490061267586
Sc 14.412883626232807 9.661534439612288 11.761210647070667
Sc 11.35341941203175 9.49747556367195 12.579446844708018
Sc 9.582525566615441 12.018878875459869 13.50704767942281
Sc 10.635222310051926 14.938692405385362 14.014127944841547
Sc 13.221651922992793 16.990239828605596 13.542176708687196
Sc 13.319885998275788 9.22741795110869 14.78865935721736
Sc 14.918261679795842 14.406652323527627 13.917125311425812
Sc 12.488312505101945 12.304525527380646 14.33593316787563
Sc 15.435091362155466 11.361694366058188 14.102669903586396
Sc 10.529961411169333 9.9617103768685 15.677039256708293
Sc 12.828674959795837 14.753499251325316 16.105440579534125
Sc 10.275690650576587 12.982526749672635 16.34946270273501
Sc 15.211450825937936 12.922236773772411 16.604141454209483
Sc 15.211928137188083 9.861680422542955 16.876943529302594
Sc 12.549507308288646 8.492441375246912 17.573556567667005
Sc 12.75640472853606 11.460672387980654 17.264726529486488
