32
Energy = -163.54074636 eV
Sc 10.786950262577765 16.20131127625796 9.897141325215022
Sc 9.719913501171124 14.302187326462667 12.276298560344793
Sc 12.872058367878246 15.355261047563745 12.114061440070286
Sc 8.715983088381345 13.429432455124898 15.128008386175237
Sc 11.792683520874427 13.630110754624384 14.595450261886796
Sc 8.81475016538473 13.990446788155804 9.240694016510817
Sc 7.2377865800804635 12.415479814561932 12.6397515368125
Sc 14.898729048172429 13.61422962439517 13.838091329907867
Sc 13.609867202004512 15.463948107472977 9.023422223787179
Sc 11.3133768226823 14.49923349692579 7.374373715470423
Sc 9.241253395594141 11.288103212740783 10.566073339161276
Sc 11.723831446841805 13.340238226345935 10.15156208417626
Sc 13.663280350547291 11.651915322182417 15.71511205501638
Sc 10.57153336526771 11.1434114381905 16.296821230098917
Sc 10.001546042014292 11.204532727096682 13.44421184054224
Sc 7.518562897319562 10.707726508938936 15.240653882774684
Sc 13.012024915697323 11.669906539311585 12.522977122499682
Sc 7.758403884496385 9.316935653535676 12.411476790157785
Sc 14.90700852847725 13.516884734234187 10.832717962480055
Sc 9.463895216168554 8.498283971743508 14.835654174313742
Sc 10.382097275836468 11.614570638108113 7.793500893583648
Sc 15.478251130322347 10.60773287304327 13.521155013313564
Sc 12.460056025104034 9.30411651614116 14.421185060385508
Sc 12.207677159553603 10.076201227318851 9.920387759066902
Sc 9.560504646207928 8.685403231246708 9.03086492720666
Sc 13.648383989154372 12.096132376905524 8.10225870402144
Sc 10.700371416394763 8.355260356369442 11.969705104664236
Sc 15.283994240996526 10.689849697847105 10.490811875431945
Sc 12.058382916646174 9.162264031527949 7.080508424396073
Sc 13.960006964251408 8.37030121963389 11.744051925818196
Sc 12.107946637202973 7.108354351136263 9.39487952625101
Sc 14.55841893065758 8.605598371403728 8.586796583279714
