37
Energy = -192.03385512 eV
Sc 11.857199508613707 12.41021735725003 18.345369919748293
Sc 13.254026833684671 15.05022381033592 16.860792413898082
Sc 10.444908175098863 14.273163724379788 16.432804100493595
Sc 14.716438928555059 11.94024980926565 17.780432603830917
Sc 9.984855830507687 11.25724403584984 15.994214081017011
Sc 12.624392369140024 9.770596858171377 16.875581075791445
Sc 8.884333006692037 13.623370542485526 14.007208034877639
Sc 15.849577170714989 13.934100848973934 15.727332691819736
Sc 12.862752922332161 12.39508819866075 15.602677013315384
Sc 14.517625594849207 16.027594743781076 14.144029528699528
Sc 8.378486800813244 10.523830866864419 13.38975333004079
Sc 10.87148818579965 8.817425180835878 14.11576989661178
Sc 11.926621514281242 14.494674751343807 13.684841620785694
Sc 11.040761169457651 11.630887121400207 13.116779113582723
Sc 11.194380760364488 16.852228182218475 14.770823009904817
Sc 16.119291658052546 11.131895825692196 15.150506854662423
Sc 9.854955364683512 15.763981845024295 11.79122711073401
Sc 9.053630295964279 12.666965632391932 11.132377842392735
Sc 13.656615015301167 9.89914718959284 13.943216710299245
Sc 10.31709761494618 9.56432460191791 11.067873624011726
Sc 14.513920568041039 12.88817673287778 13.036753129062047
Sc 12.63031505690241 16.83081285394757 11.97142295872522
Sc 13.163082192751453 11.054046530632332 10.763546586656897
Sc 9.50775272405165 14.631386858844031 8.810432837570826
Sc 11.98267551061516 13.917491374719331 10.664405595978474
Sc 17.208713498080254 13.367311978923775 12.985527740066553
Sc 13.109966156733645 8.175772915441046 11.554848761232293
Sc 16.062143742797772 10.265747560257955 12.199052403004726
Sc 10.769206208389043 11.73657765435654 8.73386230534573
Sc 15.089232621280333 15.245812241616441 11.240928667376998
Sc 11.929590524225837 16.372870507837707 9.037176634965926
Sc 12.275333991347043 8.944595540526539 8.7368901887641
Sc 15.930068674742827 12.413799169281491 10.096124457958735
Sc 11.77546369824292 14.017131724576965 7.010506545719085
Sc 15.172580417437942 9.304984695730921 9.42475690781929
Sc 13.70366935753303 11.471887108331083 7.73759461617244
Sc 14.14950590612193 14.295321088187023 8.584584896467437
