31
Energy = -157.87963578 eV
Sc 15.2345693752555 11.227319938722866 9.717841297899447
Sc 13.95048623846266 8.166232266605347 9.927166030878084
Sc 12.605872778470303 10.004712991896879 7.9101262585675345
Sc 11.035721399116408 7.2238495915627166 9.215144914483359
Sc 13.549860072998621 13.122161098584003 7.668975677030178
Sc 12.55311964826345 12.132352402932913 9.980777395147964
Sc 10.534261283559633 12.225566125127724 7.809164992569764
Sc 13.75226437695377 10.252809172929142 12.31608667731739
Sc 15.160364820294166 7.655440209734736 12.86331146560972
Sc 8.972640926519492 10.032036771754795 9.157267957855886
Sc 7.865655353431668 13.163357980439228 9.502330428739247
Sc 12.125214401052492 7.159867835202084 12.18540185033776
Sc 11.429258957558432 9.50600179970344 10.663988962286728
Sc 14.268068440510454 14.351662245999373 10.664859944127704
Sc 11.182531534772693 14.720782978480333 9.318170796108307
Sc 9.123703131020665 8.063891313297516 11.571106279451016
Sc 13.114915442212071 8.773615427960138 14.696529087580503
Sc 15.785137632740353 9.941216620700434 14.59272240062229
Sc 9.99835888814887 12.34047932422599 11.102257085318138
Sc 7.63094278731091 10.901607012201556 11.79285280001824
Sc 15.473851469178223 12.588171307626038 12.817251700661743
Sc 13.448148734992232 11.887696963239229 15.21666911005875
Sc 11.904019315847954 15.724372831455655 12.109925074579545
Sc 6.5248209003680255 13.841845175929132 12.316334622463797
Sc 9.000944252347333 15.171548122906565 11.730207851430105
Sc 10.584524726468329 10.28558887766408 13.40990900122217
Sc 12.326700992992226 12.89985468465081 12.853686010500246
Sc 8.793954652588415 12.870408477585865 13.903468443066718
Sc 14.031792671423975 14.84736834917024 14.101572195074327
Sc 10.986654536022348 14.733032275233368 14.736790053631715
Sc 7.959370025006117 15.626284488153939 14.37972121899098
