32
Energy = -163.66147468 eV
Sc 14.265648709810717 15.632702045479064 11.614351588299822
Sc 13.036155528307926 14.43606616173413 14.010664573210223
Sc 11.159805385856352 16.20305123394644 12.660133116751522
Sc 15.609842138626895 13.177468738098785 13.440443743843229
Sc 11.916384165374957 16.88907144954007 9.670660178682146
Sc 13.503124301193964 12.069011841354543 15.664643242603756
Sc 10.688708225422564 13.73206569575488 15.715290689277072
Sc 9.851731135773223 13.432648657790727 12.836316922611545
Sc 13.986217059234235 15.015240778065614 8.540243437551693
Sc 15.140268789016769 12.944561331260864 10.513286200884302
Sc 11.970282795948828 14.041740421761263 10.551475413273394
Sc 9.346399749907441 15.512235693912263 10.313325726480814
Sc 14.887638464259133 10.19444145747337 13.715637442887692
Sc 12.88944478598059 11.904079219301536 12.36643356369875
Sc 10.612692002952233 10.787450202810081 17.199250072355262
Sc 10.968272185416051 14.358987857841836 7.828426114783285
Sc 12.793461141324574 9.074965799721415 15.864941307774345
Sc 11.022600729147005 11.043316705863807 14.408978130969878
Sc 13.084181449469478 12.014342288584404 8.47441612809151
Sc 8.426583773540917 11.640890249547969 15.307151915565537
Sc 14.374026494565605 9.845976316110391 10.53517551768309
Sc 9.361740085759068 12.425522082418277 9.757947394715945
Sc 12.324219179353362 8.704726255426733 12.893493449445094
Sc 11.308318545937153 9.998589385375034 10.190104942402701
Sc 9.763714410614199 8.646611537060824 14.97408233298809
Sc 13.01082930420382 8.996477415556958 7.811582384975406
Sc 10.421896869280822 10.755515166853005 7.371411274270808
Sc 8.979990974048832 10.426041567523367 12.289980848974565
Sc 12.675764722876698 7.197278626260083 10.205125644777558
Sc 8.345065371036409 9.54082989897141 9.437645701655203
Sc 9.7738708587724 7.579076710767485 11.401303343089321
Sc 10.34234910960057 7.670373798171029 8.288981623115205
