36
Energy = -186.27540265 eV
Sc 13.772387362770793 10.187860217766737 8.165387567296671
Sc 10.035559868260224 14.795744619411263 7.529367182139317
Sc 15.481896859007618 12.497940527237544 10.446186191896782
Sc 13.085885717000536 13.510072822278188 8.81958274028671
Sc 7.935932398384106 13.211824318937923 8.811655378788178
Sc 15.549394787715203 9.325449604162666 11.130634112682927
Sc 12.839957370063518 10.799319413099454 10.567198183951547
Sc 17.16756423394682 11.51914466781889 12.818661495540832
Sc 10.824564730623855 9.015400899707863 8.821106259432382
Sc 11.94149670236094 16.42548263066957 9.061870800092759
Sc 12.956753022579468 7.867514158970778 10.425192244395342
Sc 10.411753806169925 13.975963835129107 10.375058674733149
Sc 15.323996873402391 13.85021962338351 13.741858844385835
Sc 12.955779944835205 13.442086887819217 11.848755974233642
Sc 16.405194788166387 8.915814186260098 14.214859402549726
Sc 10.598305386584304 11.774611088737315 8.307737780157131
Sc 14.415102090881225 15.638692891339094 10.896471237427416
Sc 16.144418608338537 11.506781362652543 15.69318803685139
Sc 10.138399085767174 11.110033751658355 11.365389095706217
Sc 10.01567622457337 7.882775199611644 11.362385908157943
Sc 14.237811588219325 10.973656933798834 13.421500064869221
Sc 13.288492687894427 12.561114273363948 16.001256068482157
Sc 11.558582487223708 16.398027845423442 11.854898533431436
Sc 11.654795879283444 9.394968790066805 13.302334396999607
Sc 13.941713513387883 7.613018812413044 13.231514540793599
Sc 8.027591520799579 10.172516882993646 9.867689820481498
Sc 12.51323191374892 15.174844199157144 14.384255981590075
Sc 11.170026600386857 12.471339980707594 13.877447480188268
Sc 13.757403423347899 9.395323539707295 15.861787682776193
Sc 8.811188442644417 16.07944430246768 10.121774547077663
Sc 8.451359759326161 9.728936082547378 13.22332606274408
Sc 10.586173538197711 10.658985312190461 16.03381532404014
Sc 10.324290194461812 13.765338460293004 16.280491599613512
Sc 9.45881598630177 14.887791088867754 13.341241454153144
Sc 7.654363978570483 12.776901799353183 11.722873169545917
Sc 8.337830040111267 12.304685309666802 14.653720301833632
