31
Energy = -158.52068092 eV
Sc 14.015904558333457 9.721341948503824 10.888255277085316
Sc 10.743371267570682 11.279062178908141 16.050771458197147
Sc 10.786270511431328 10.82818414695082 11.297051900919847
Sc 15.89025924841097 12.253733776598338 10.974612050229036
Sc 15.721186568613708 9.86945362769336 13.456257874849648
Sc 11.403495442204271 8.01402002095428 10.774625094214759
Sc 12.35201942287038 9.879111404434665 8.135842009170274
Sc 10.455240812295841 12.205614899745715 7.808002611737078
Sc 12.972840992132316 10.932550852844804 13.501025919923059
Sc 8.413904929598237 12.08867565966559 10.14676824058002
Sc 11.565392846313763 14.944250499139983 8.773708765614936
Sc 8.417650176451176 9.172533060566304 11.486048777767381
Sc 9.469094697499726 9.56325608134973 8.780221615815368
Sc 8.872195429383314 11.580616334251815 13.39550302775811
Sc 13.303743510599553 12.842376953224635 7.100778764590487
Sc 10.43363083560333 14.079257143044684 11.55834420509519
Sc 8.762142216123047 14.109625395791749 15.113725104249962
Sc 12.787949397935183 16.261318214251105 11.537047229068257
Sc 14.46726011828799 14.719357095769926 9.488238123217764
Sc 12.668006820461807 12.32280336663423 9.759015256327462
Sc 10.805794916146239 16.099842394690647 14.006369374242599
Sc 13.597149494662082 13.540235099462235 12.136957049613704
Sc 13.451408338376142 7.9303232488387545 13.195605048852629
Sc 11.370764822782766 13.25782336859602 14.208233279423991
Sc 10.62267861432102 8.959080538461135 13.775774138110283
Sc 15.848161640004484 15.273429985209583 12.169761143699645
Sc 13.704829585082422 15.264564377238734 14.600428224350871
Sc 13.492568188958993 12.525331240822748 16.210185704115542
Sc 11.213115046636135 14.607744795960619 16.705755018573754
Sc 15.638423332945457 12.864777722334997 14.104348579362453
Sc 13.51794376848833 9.460858712213055 15.797146201757368
