38
Energy = -194.46145293 eV
Sc 12.79093975089312 19.24460128242906 11.424799287490762
Sc 11.320737987688144 17.448723843168434 13.427023749221497
Sc 10.222810760524336 14.778349415236416 14.808566772166872
Sc 13.171034668222905 15.422746029086152 15.243513499812194
Sc 9.038399489188405 12.314281198336792 16.144365159710585
Sc 14.331833565800178 17.074462102581354 12.923912968839204
Sc 12.16454881276378 12.530507894538468 16.090893427968716
Sc 7.848514150377632 12.697351876972078 13.454323646560058
Sc 15.136151227357649 13.325724553878873 16.877431308699975
Sc 9.450891459036438 14.987484697103206 11.919703893192382
Sc 10.797072076401877 17.312161438112025 10.493319077089817
Sc 16.109181471979923 14.880351647850329 14.429116350117308
Sc 13.605301333508137 16.628449477014136 10.043898444823686
Sc 12.412802725858796 14.887714153985819 12.308696012796537
Sc 10.835629365245508 12.252850702592282 13.27852777539835
Sc 7.400128240743378 10.135857129427544 15.109991499920621
Sc 16.953801450176044 11.585719760496827 18.496372218805977
Sc 14.091801881465413 10.719397502482096 17.898928788665682
Sc 10.46607101701393 9.89787861658447 15.286512317573742
Sc 9.426119158162788 12.298733592262218 10.493390044555321
Sc 11.310339469770652 14.46006975288347 9.458144793727271
Sc 9.01666647392198 10.006302033031849 12.537054895951147
Sc 14.176071641507816 12.585770284024841 13.780680653389869
Sc 13.540929983338792 9.816597797426272 15.097753218602218
Sc 15.403803499282986 14.41312885296569 11.483065298700392
Sc 16.25684685102137 10.79484861867574 15.693152289084244
Sc 12.765289259057246 11.89984742560852 10.668930633438276
Sc 12.065511091410926 9.404389374734716 12.55538714481182
Sc 18.037014468959768 13.076581986357736 16.132403735272614
Sc 14.14783399326332 13.752389050176733 8.682310103389435
Sc 10.737351250667103 9.680852517225516 9.81867866912468
Sc 11.454567373033923 11.84007998358203 7.814835727031129
Sc 17.139276901010565 12.347532186533003 13.177347046835017
Sc 15.19178112879118 9.902801400389631 12.592020074226813
Sc 15.788456867139004 11.598044062902948 10.257809482873686
Sc 13.716685713570634 9.0212521531741 9.894519928409652
Sc 14.234347879545865 10.86092724985066 7.731001430182437
Sc 12.146147178035754 8.924457039278174 7.23295256628925
