39
Energy = -201.09691159 eV
Sc 13.72081530868132 17.239072506395434 15.098745725187808
Sc 10.544320611246352 16.759299997756358 16.636026951130788
Sc 11.205795437987181 16.730302689358762 13.866532673941277
Sc 16.608381370106816 16.289765458722567 12.83601315517355
Sc 12.673770635468426 14.778963982261615 16.46189302093787
Sc 13.472203223237079 16.04061680822207 12.046748026770905
Sc 17.83955865940242 13.815232340267107 10.671938756955058
Sc 10.203290442846875 15.036904439422443 11.429387786132834
Sc 8.98535642369355 14.981207844955742 14.42491620912406
Sc 14.766478123466278 14.555726437330264 14.441766556311281
Sc 15.682802626707035 16.210280170591208 9.912689874556012
Sc 10.026684358724358 13.775793873056086 16.884992984915144
Sc 11.702261944646743 13.70702034527133 13.766426059956485
Sc 12.717347568208115 15.322493843881444 8.87624614381364
Sc 17.544647024159428 13.544756558693553 14.076745769010854
Sc 12.155555691168521 11.58309393513043 16.008009945586767
Sc 10.08128155856619 12.982608469182622 9.082280733870826
Sc 12.705485151923934 13.266120737052853 10.801813548150582
Sc 7.803998436772843 13.089221253247766 12.138057560931308
Sc 15.447886474011666 11.874982344470984 15.861636603558603
Sc 15.4784658876915 13.753186506763582 11.74493059857205
Sc 7.813441290656645 11.032773396638445 9.89920805250036
Sc 14.083441072477695 11.694728559909159 13.356355761799385
Sc 9.283952547267504 11.834038668842918 14.574748125406668
Sc 10.269761443477318 11.58659823643312 11.62522717099773
Sc 14.058146680959839 9.228888181091028 15.430204913165234
Sc 15.230570575183442 13.673019798188568 8.721402642638632
Sc 10.103699953066272 8.928550208501195 15.12302315386491
Sc 17.032440098287683 11.202019246270213 12.607732824485533
Sc 8.018637532338781 9.765194454658165 12.70628655428605
Sc 12.936018541799918 11.865948826190882 8.166139356871644
Sc 15.727941333950485 11.024393384897929 9.942866912906316
Sc 11.926985273741437 10.056636319807115 13.439379328491816
Sc 10.48917828310905 8.20435097192446 11.826778311068646
Sc 17.026353177835386 9.486351412834212 14.95799964583316
Sc 10.401289891039728 9.90438928505233 9.165626502259363
Sc 8.049994900272655 8.06165403101493 10.17791739983216
Sc 15.117972971162615 8.889464856453687 12.528483284721608
Sc 13.043508779258527 10.205151094133303 10.712777218077354
