30
Energy = -151.60609806 eV
Sc 7.949055611534915 10.422251631448482 10.083987385897018
Sc 9.78883078119507 8.582202195789646 8.301701452201026
Sc 10.145177835056806 11.429655987755993 8.06182957202969
Sc 8.719833621816951 7.4869926350277085 10.915882756140219
Sc 8.942631956369253 9.33460760699207 13.455484690339366
Sc 9.563523209862526 13.321508587890808 10.271666020660236
Sc 11.959405503875931 15.480723988332088 10.720572755204245
Sc 10.176742805676923 14.580058263434829 13.071621517496297
Sc 10.71234152731714 9.850137142443439 10.958488857965786
Sc 12.744340633576154 9.731982423812028 8.795123164417584
Sc 11.662798682072054 7.006155751375755 9.989014190009827
Sc 12.413647932870195 12.789205261849883 9.490500448988504
Sc 8.435837652272822 12.043441647056262 12.616936989577967
Sc 10.983917957975324 7.160079611372464 12.874723400353528
Sc 11.89310526555584 17.11965736913725 13.327762971787537
Sc 10.042218950128946 12.175747607774856 15.091165656087655
Sc 14.37330874613476 17.184389667846837 11.703754277332383
Sc 13.443371828716568 8.723627908545797 11.877718671742613
Sc 11.790700051752708 12.132983781097202 12.578076746653709
Sc 13.741530450045909 14.382739195177091 12.999774683094557
Sc 15.069304266232487 14.412417233125153 10.33813252361134
Sc 14.468530872483967 11.38078002054515 10.956859542237238
Sc 11.849487630086713 9.724487363729727 14.323297628930733
Sc 12.001763861321834 14.994851031221991 15.492733814412432
Sc 14.50324502681978 16.7746615248195 14.795966706383824
Sc 14.705723635446343 10.925865889712462 13.919882065704872
Sc 12.919005325363898 12.277402257514815 15.759973568768608
Sc 16.573633000354768 15.59896507408144 12.920932210135952
Sc 16.627911588635794 12.73857023507511 12.568126105011736
Sc 15.503428504741304 13.83502253612306 15.307738192028568
