36
Energy = -184.31801706 eV
Sc 16.784404424636865 17.12551068577205 13.803597978590108
Sc 15.494024253139601 14.536294462266113 14.799302116237952
Sc 16.84750471961858 14.607016494631381 12.118779718225827
Sc 13.823031046970977 12.193958679277676 16.216662125701095
Sc 15.197962533192428 11.763827084431579 13.528282676435092
Sc 16.095517851906667 10.421281024675416 16.108637430972205
Sc 15.424400589645867 17.014750218839758 11.143025687027421
Sc 13.929598258117691 9.052013910734303 14.78472441903632
Sc 13.773693347830214 16.691806812147323 13.454340156982983
Sc 16.159491778454715 11.899606082193486 10.631341428516397
Sc 12.315206928910223 14.301623697681565 14.708259019480172
Sc 15.402160489572093 9.215446746987679 12.121771975379366
Sc 13.890190207591026 13.96548936847746 11.935874272545412
Sc 10.906550674549887 11.970801231037575 16.502639583132673
Sc 15.226665432686078 14.563203965878564 9.313064019784244
Sc 12.033197773043 11.23784226896107 13.617490918695795
Sc 14.196040946390653 8.76369501275104 9.235258677870508
Sc 13.141773885474551 9.726925848431561 17.44102787617516
Sc 10.608539333549926 16.50734498480597 12.910653372572211
Sc 14.743033271305663 11.686197471663807 8.077194062469509
Sc 12.52620095477576 16.189413716547296 10.530872605809703
Sc 10.62336901077664 13.660677479575227 12.33231374369832
Sc 13.219271079833172 10.973001816858496 10.701196913264873
Sc 10.873816382278301 9.082944619752572 15.226010562436597
Sc 12.492682623668857 8.344182767290157 12.275379119060661
Sc 9.309627001306746 14.521828850584749 15.055835348670117
Sc 7.8960994485001645 15.24631085106409 12.582235497097988
Sc 9.552628474147998 14.851606197394533 10.055548146965402
Sc 12.091913991170973 10.597812013415197 7.754539620651514
Sc 9.020857545811959 11.550279147602867 14.32490710933781
Sc 9.616252041542383 9.587324370595335 12.241286715354716
Sc 12.397720191903957 13.523064480428253 9.057078834765061
Sc 11.146058272911656 8.708457062657773 9.686051153680427
Sc 7.803055854536578 12.415154662094277 11.724290035831306
Sc 6.605979834969563 13.310762977962291 14.4243902615055
Sc 10.265783600602601 11.612740459717324 10.158266072843785
