33
Energy = -169.1708875 eV
Sc 14.639086956774678 13.03373846396486 9.864406504858739
Sc 12.91277059321618 11.549693121628904 7.709655874541674
Sc 11.734958691433837 14.18118688829368 9.087713553779869
Sc 15.423479207568342 10.149192244474133 9.207729202570185
Sc 9.951186215836634 12.507517820300409 7.1513826810503325
Sc 10.876804045045457 16.06866051788145 11.41423648779536
Sc 16.5220511947166 11.505687180775524 11.586408152417299
Sc 13.875653113695265 16.02626066581325 10.483264462845353
Sc 10.461473765651109 9.6076984829871 7.28973669578813
Sc 12.81297670091472 8.781550424047662 9.14377993983229
Sc 15.595869325498464 14.391872539290707 12.593750333359285
Sc 8.677208455216022 13.748397030396196 9.576748473010309
Sc 12.720390502953716 13.813974704219788 12.20582806802514
Sc 10.809094650038846 11.378295528010444 9.865694928053612
Sc 13.343272075382282 16.652386970286297 13.29884661576548
Sc 15.146778705467058 8.77150926334634 11.978454564389333
Sc 13.749201801095632 14.302207603383067 15.140130408744437
Sc 10.898187300107075 15.069903479670359 14.426002595425254
Sc 9.79686804643306 13.293860002559896 12.276270878524114
Sc 13.24085314780234 10.737927337724336 11.526899687919475
Sc 14.795699970979083 11.623228728685602 13.971784868380569
Sc 8.094232843711834 10.62914212611531 8.961384678093893
Sc 9.956556370629757 8.276263885422027 10.004587115212049
Sc 10.072837913425866 10.059493386077218 12.669297619998401
Sc 11.677973753039817 12.003821577151959 14.590671599476805
Sc 7.504643310278876 11.532125220365867 11.801616234338644
Sc 12.270317912027298 7.62576308327093 11.782623164092863
Sc 8.6171024841158 12.136371099337607 14.794434766610022
Sc 12.721733212101501 9.023361719405722 14.211921795874193
Sc 7.409647466465491 8.567996424371545 11.390687836902195
Sc 9.987753380398852 9.559048081604105 15.677161096962935
Sc 7.401096859292454 9.383442865930187 14.183971274441378
Sc 9.621316406995174 7.359541309666117 13.419162045532815
