39
Energy = -199.87834612 eV
Sc 15.417342867184166 8.94267135585087 9.266569248448441
Sc 13.31127937617111 9.7386662950114 7.162958899098579
Sc 17.669607564595644 8.156209802621541 11.273849879704162
Sc 14.93486625359182 8.756250784133751 12.214341969216763
Sc 11.357476483249048 11.891581448475248 8.117162418152345
Sc 12.411445473666136 9.703330197846851 10.01165339036488
Sc 16.919314277141552 11.000993249277203 11.014102345726352
Sc 14.361896670000156 11.842415288702398 9.060883708823908
Sc 17.300683490726225 9.908897968341163 13.790692101647137
Sc 13.118792324505137 14.749936863154778 9.185787710100936
Sc 16.218528477677214 12.817713413430775 14.014138242439143
Sc 14.529259434617291 10.29448163903483 15.02713571336366
Sc 12.033954889895877 10.208156522052661 13.052620171383117
Sc 10.139531594427444 14.709409508112266 9.021264308804655
Sc 9.270640429984827 10.986058126827476 10.899468055282979
Sc 15.676018269182165 14.111320629938977 11.026782282971165
Sc 16.639000999025065 11.54006795017649 16.719526694964998
Sc 14.263520422554599 11.696519898725045 12.06418827246885
Sc 11.575226565394805 12.6871378011312 10.88471677409635
Sc 12.941358672836612 14.873791688080281 12.312758980363379
Sc 10.190802757968656 12.55930512780017 13.790300122251546
Sc 14.655165154299379 16.926370663068706 10.811621884265465
Sc 9.226028562266029 9.550837104499376 13.829278902925514
Sc 15.347679206163885 15.86784866537877 13.692769691016885
Sc 13.197904006689917 12.99392964438205 14.7172613026922
Sc 7.263244585608991 11.697344190914455 13.229746259325463
Sc 11.381627263847788 10.582545721971002 16.004969479316813
Sc 15.446200985715329 14.36505949722244 16.610439931482965
Sc 8.584742703192425 13.971779799132849 11.711123191112513
Sc 13.683594809613053 12.07049618781567 17.56195445109653
Sc 10.45678837663648 16.25047803747088 11.399577009013358
Sc 12.060876158257198 17.566313990385286 9.556235523780117
Sc 10.503055952024784 15.650719467841762 14.26322068488961
Sc 12.676618717959665 17.753590885418685 12.891577682854942
Sc 7.836718890137662 14.22293030103343 14.772509512819996
Sc 8.470180417939677 11.520043817689599 16.07769085966193
Sc 13.061869530056617 15.909798795208367 15.639462575850297
Sc 10.89069330487241 13.671652771216936 16.66354811123444
Sc 13.14038272116815 14.818457197004747 18.455758515103376
