32
Energy = -162.69652632 eV
Sc 16.154547527086685 14.18615114268208 11.077109190690098
Sc 13.469651992121584 14.826789770625066 9.284792334225866
Sc 17.692050849819992 12.530202663015324 13.341306037068449
Sc 17.049005672766743 11.093789536885328 10.87330259020667
Sc 15.664683993370627 14.682338430862536 14.156533016823762
Sc 13.091917860119986 14.816471680967046 12.431844616160948
Sc 14.650172367695546 12.089969414451987 9.273615535872972
Sc 12.374715869385124 12.840060952148887 7.342642239202603
Sc 15.836179259985615 11.907322877764312 15.625408163126039
Sc 16.17669093003897 9.643177821873676 13.490800899038726
Sc 14.499958842468226 9.43612937728057 10.911498613659404
Sc 14.66004047405162 12.116161199156549 12.498275927098794
Sc 10.848463230093861 15.707672474856443 10.664958624677526
Sc 13.232143052188357 13.59553114014321 15.459301708573959
Sc 12.134799651359897 10.289784190704411 8.856054591629281
Sc 9.91154173585858 11.23136057035552 6.909886895218715
Sc 11.800873859269355 12.784354501571915 10.578300556030003
Sc 13.301432255801732 10.517938838107522 14.547669124066084
Sc 12.641718956125091 16.415454209295188 14.911788122926602
Sc 13.278125077024882 7.928702216450014 13.207461990510996
Sc 9.764533492390642 13.814092392924042 8.478509896702393
Sc 11.60269525516734 10.097270311400985 11.989646197038212
Sc 10.884735891171346 12.706876786788998 13.77867276146042
Sc 8.862665846725955 13.64642965854862 11.55386538162813
Sc 9.381461569238992 11.13099380149979 9.896039325872898
Sc 10.095506210527036 15.639290343717251 13.584643518115206
Sc 8.62699805909908 10.950338968925605 13.150876423817
Sc 11.357021939787069 11.4410300758405 16.588513589173818
Sc 10.559535245321122 9.199882506165451 14.778264105111747
Sc 7.992237345768069 13.591301590253348 14.510811950330764
Sc 10.357029969803195 14.33270159909768 16.30363189139385
Sc 8.504216298337077 11.255421348133158 16.21871666451962
