34
Energy = -173.6473846 eV
Sc 15.259180994667405 13.132903154765335 6.732718989152757
Sc 12.620147425429199 11.687846806829766 7.478012011523798
Sc 12.839429976421446 14.61186656039785 7.4590261078627025
Sc 12.150836733620297 15.632599760445105 10.30027025050971
Sc 10.23970474043151 13.666810826290215 8.710512192820635
Sc 15.1218362457671 11.453784849192377 9.243375981862277
Sc 9.514593576022598 14.611197583858381 11.634375526936147
Sc 10.129903510778183 10.59154436356162 9.261755369730118
Sc 14.907402892363946 14.420094134699188 9.5453554558419
Sc 14.24471890774023 15.732739206170592 12.55685701617287
Sc 12.49818105298449 12.562327192889471 10.343750733565725
Sc 7.905402859405636 12.399557780157432 10.322060610035656
Sc 11.324266192454285 16.766520454456536 13.056552998788282
Sc 12.930693863206663 9.42829597743059 9.989665548674006
Sc 10.055030315109978 11.54487974273026 12.240968393487655
Sc 7.578012835801209 9.641059193023581 10.894886331163443
Sc 15.0969258256255 12.726833106376938 12.172953284465219
Sc 7.556317036533517 12.808513134051369 13.290229935079422
Sc 10.399506143369633 8.636744236085638 11.68488475147341
Sc 12.088490416258775 13.77135618179053 13.510806137996468
Sc 15.549663303311533 9.546995718976262 11.725447769457277
Sc 9.51871083950482 15.061443222622216 14.710350123204377
Sc 12.994686631032868 10.565591718280407 12.881728667876548
Sc 13.071947594844104 16.483819309069197 15.29616523261512
Sc 8.129872308241914 9.820273516419052 13.699792417414832
Sc 13.348257162196647 7.622795176313851 12.780745085331596
Sc 14.641501175585116 13.855409542079636 15.089777545062667
Sc 9.839166092071343 12.049733441666474 15.256116182539566
Sc 11.006360760410645 9.179719943423773 14.61838157055549
Sc 15.580991232260905 10.713785710344814 14.512285607385586
Sc 11.790634785641254 14.24266057575289 16.522212379927176
Sc 16.203306018164675 7.694240401983677 14.011578938001582
Sc 12.829928040128799 11.460813118773803 15.819416157728263
Sc 13.854831358698974 8.53781898277423 15.530587117134678
