39
Energy = -202.73549298 eV
Sc 16.917220304235915 14.713760401287416 11.503817272961674
Sc 14.582994821849184 16.57042162954632 11.680647977030553
Sc 15.27650560645434 15.002258791375432 14.231852504886636
Sc 14.656994126211705 14.79900310338396 9.217570483549316
Sc 16.002285086066554 11.935341282262476 10.056572419795327
Sc 16.497016943347145 12.105611137544406 13.367198270419307
Sc 12.31824635699025 16.539223110887573 13.5900349643596
Sc 11.886533615796523 16.395603736104928 10.39361754453783
Sc 14.323638497200378 13.636849425380728 11.857177372449584
Sc 13.58846506947965 12.097928512196098 8.009227579199678
Sc 14.482769850867575 12.36065837532328 15.971300497509052
Sc 15.52371238990489 9.265523621187743 11.837825733939807
Sc 12.32176001914765 13.66162172547728 13.997199297404979
Sc 15.57752723036159 9.515218032570187 15.139667064477429
Sc 14.83609828982394 9.35780582479312 8.667652774771446
Sc 11.8390548715413 13.500957351100906 10.254954305734039
Sc 12.7124549972498 7.930764751742806 10.657131714879313
Sc 9.644298473782507 16.13000337206808 12.340823484142032
Sc 13.813156892577524 10.980953916937946 13.538852311077267
Sc 13.195734804255492 10.792906522604733 10.61969943552449
Sc 11.810431753088427 9.639609776456359 7.956232138186029
Sc 9.718488099364713 13.110079137689906 12.329094738996476
Sc 9.733055627692371 14.936097383380961 14.974429832109866
Sc 10.241837377193606 12.443724539152802 7.998957842867023
Sc 10.941714281712517 10.751689869423188 13.568349761774952
Sc 9.030172353872294 14.78069349442642 9.851858387320696
Sc 7.262488043814965 14.132156494129273 12.739286035717228
Sc 10.177667182499864 10.424568979579002 10.382514911029682
Sc 12.707094817896019 9.871462635570266 16.084321799484798
Sc 11.158241060595053 12.339656016146682 16.403344717554955
Sc 12.913413097823478 8.153875416458128 13.705948797356157
Sc 8.645494120071017 9.877388333152474 7.855319989478616
Sc 10.000839967456027 7.560924443560797 9.301878840648502
Sc 8.54616901585461 12.265742688480612 15.057867460942669
Sc 7.68097562846371 12.005550473730956 10.07237379961733
Sc 7.869532985672145 10.446131533058889 12.934944300482094
Sc 9.940847806466556 8.014387576089522 12.419223230326663
Sc 9.619861410593135 9.327145496982522 15.494444666516928
Sc 7.53728157248138 8.867672597175101 10.454392480730677
