35
Energy = -179.28300869 eV
Sc 10.752662920799784 10.762147855189458 9.133237317716599
Sc 7.432546405125183 10.496151493481136 12.272002850643023
Sc 10.729536814065142 10.726142240479948 12.80773661045183
Sc 12.597026388430196 8.000215384028094 12.261047184125925
Sc 9.668585129889287 6.091626190929708 11.074703983381777
Sc 6.91890552193213 7.835252687218651 10.129768078701158
Sc 10.272991467464365 7.531682012141334 13.910109831084528
Sc 11.531638187271879 12.342002577488914 6.588967109064698
Sc 8.97827368784023 13.43977885453073 8.12511049341606
Sc 12.4036901106845 13.409122260053438 9.336027789109208
Sc 13.958290752039574 10.892108894919938 8.122815385740353
Sc 11.728101277974885 9.238438928965007 6.597841244765471
Sc 8.951899573709863 10.595661602316941 6.622485512386841
Sc 7.596266691099027 10.836317660834691 9.348167248495207
Sc 9.549899096843632 12.735215945353463 11.096701397471307
Sc 13.05704673981174 10.757540132873194 11.096462770516515
Sc 12.21056496264351 7.965594049304434 9.338516092874725
Sc 9.25557668962319 7.834299646807805 8.113812753514154
Sc 9.589840548947523 8.72297720835812 11.06607042122772
Sc 13.752351774091462 11.937727005998054 13.92296156399224
Sc 12.174100763058268 13.715250846131731 12.26335774093286
Sc 15.13730802273993 8.86552772183704 10.12451519158055
Sc 15.2905908830463 12.139247949338564 11.082707359414021
Sc 7.23825561144313 13.978579018566645 11.084513331634819
Sc 10.136374540389856 15.476959746024189 10.127648951330917
Sc 8.177671476151312 12.74878300168409 13.929406176564022
Sc 8.877883798643563 9.938298756929386 14.960469115287323
Sc 10.970055687050698 12.736915848673513 14.948089950110813
Sc 12.35416607609202 9.527142785438466 14.950688849745887
Sc 9.552534577142033 15.072571555706213 13.129040537687438
Sc 7.573124401152165 7.556933340344403 13.126435162511704
Sc 15.087326667941214 9.586298521414964 13.126445154144873
Sc 11.238267710929211 15.30665228589963 7.283343149085886
Sc 6.5057162354960685 8.88939002158823 7.295934579375863
Sc 14.430212686762413 7.990729840824782 7.282142983588135
