39
Energy = -202.25975716 eV
Sc 15.731269114839144 11.070012340028084 12.30140275106621
Sc 15.831909693418094 14.255033574981658 11.317338358180397
Sc 15.331542483447363 8.427158830542414 13.992811511965877
Sc 15.202616215591114 13.338020911256306 14.05900948993625
Sc 14.812398399306215 11.12530787949058 9.220730897078447
Sc 14.676103547240443 8.532343527974223 10.888783073793691
Sc 14.389834816437633 11.054138269930204 15.496003635864952
Sc 14.274859067308805 14.143455237758353 8.755163291507161
Sc 14.108578428709372 15.879537211166877 13.295688672856672
Sc 14.151058554075334 16.655854982535857 10.229403929322375
Sc 13.293462682163142 12.683394794077497 11.235685988756146
Sc 12.75294482819944 7.034027848796024 13.009345403312919
Sc 12.938605457222927 9.976795918520848 13.062076858592189
Sc 12.912800448080214 8.472594434108522 15.728200049411049
Sc 12.90312014120985 8.94342194908043 7.650588241102171
Sc 12.13441138304886 13.200903941855824 13.879272595141456
Sc 12.420386724251868 12.243508675732658 7.618663753542878
Sc 11.633308401445708 15.410145548851329 8.485266459164603
Sc 12.509362388928405 6.820622033043795 9.89138085996621
Sc 13.086534075551185 14.049862936153525 16.320608345996224
Sc 10.048085603985134 11.039578512390285 12.422421934427891
Sc 11.825340228207503 15.312743852430298 11.452450018251934
Sc 11.949163946005553 9.91751311446007 10.016897413182672
Sc 9.602300873608291 13.757053934773715 7.135065124036497
Sc 9.906746688531896 10.633402667364198 7.614940210693977
Sc 11.306079709194968 11.2175941202177 16.02092961059307
Sc 10.141281997207644 7.8324822474641955 11.583414250148776
Sc 10.42899664279083 12.83736036009985 9.916998398401377
Sc 10.151413510650375 7.720331801790607 8.49016099963042
Sc 10.124226501688568 8.765333294253118 14.503959165620778
Sc 11.41161826844832 16.09277393053741 14.579034946181181
Sc 10.046320766562186 13.963092777573115 16.00683964768892
Sc 9.360295079194046 14.077645028790107 12.94153643387358
Sc 8.205647380680679 9.739945268641323 10.004631420252238
Sc 8.730920261115628 15.155025530766876 9.844381554787303
Sc 8.422135424804129 11.594520622186526 14.781510960223299
Sc 7.623716374803144 12.479369360750475 8.789050982976388
Sc 7.619655146996869 9.30235600129995 12.940452873795737
Sc 7.308565810651028 12.19739777308389 11.781623659582182
