33
Energy = -167.81986524 eV
Sc 9.320374985127128 7.247267435286287 13.681410415480315
Sc 8.240962289311412 9.902710445134035 12.769716468773446
Sc 9.430424593803474 9.578579961541328 15.525062061570017
Sc 10.788540430803616 8.725908977664421 11.44469159613448
Sc 9.628326000040747 12.580863277725717 15.447490342030664
Sc 8.493734629348726 13.054239949175553 12.674330818014687
Sc 12.018045094215967 8.655084386092776 14.255746948381258
Sc 9.68718382772453 11.39669809443719 10.311766033905638
Sc 12.136489283909262 11.001254551946198 16.23026187902687
Sc 10.91300277407441 11.206142508976498 13.180697725557488
Sc 12.32048948569345 10.34096703596881 9.003829512192398
Sc 9.862634655941932 14.416890071091261 10.383383873152477
Sc 13.583077340315793 10.221620513907714 12.039712122261111
Sc 12.275349371660809 14.090634824232986 16.463193573457975
Sc 11.211747398804391 14.239310146592402 13.338701652335885
Sc 14.915356738842089 10.069785755868546 14.96300546560814
Sc 12.660538771121004 16.567525269882456 14.83129522296831
Sc 10.751972422509985 16.797147116922734 12.026861073395946
Sc 13.659712608936077 12.655918963136518 14.179020995569728
Sc 11.431805112513421 13.167923818745628 7.954986150758433
Sc 12.532818302509542 12.887407548748444 10.708576033505379
Sc 14.498115145765643 15.816507363514237 17.338755233013774
Sc 14.94691790188106 12.752140494307334 16.89427280370144
Sc 16.58399710338613 10.216424939906357 12.400067244004113
Sc 15.231684408861513 15.041916575638936 14.632293290299144
Sc 15.113374111059002 11.165835992784594 9.556660291194165
Sc 13.90698251254826 12.05908310459914 6.840276973179628
Sc 16.80710530511187 12.337274637864258 14.594411673897222
Sc 13.61420701873854 15.595902303239821 12.009188145032578
Sc 12.153875957110078 15.856956527886286 9.336229138571484
Sc 15.556136997798852 13.009341119128504 11.888736060481031
Sc 13.203630995940394 14.998293347186676 6.43036964830404
Sc 14.598323687106816 14.1250544612234 8.906235801228151
