36
Energy = -184.61400956 eV
Sc 13.12196056342637 17.360621500520132 15.987268821648986
Sc 10.915056263672918 17.170986193257924 11.04510736477792
Sc 10.896092949095213 17.604274861249 13.96563895273168
Sc 11.26832197719444 15.01060306018679 15.447855720965677
Sc 9.218229822049768 14.720257650893736 9.771251324264384
Sc 14.530196355633786 15.289363809236264 14.499241404990714
Sc 13.590276031374504 17.62655251739202 12.822463824175125
Sc 9.323161084820983 15.101006519905457 12.777815703218685
Sc 12.28494437566994 15.072324324283972 12.646647487392476
Sc 12.313738777999086 14.805504745701484 9.579637021538655
Sc 12.339189504302745 12.326111866874509 13.898825552289445
Sc 9.403584595515902 12.714739665305414 14.721650262740313
Sc 10.56826103739913 13.138309563136497 17.64935171903132
Sc 7.6635815693051486 12.35835286301122 8.682383207032329
Sc 7.900678418284837 12.405102656093414 11.71340410794179
Sc 10.761878608853698 12.579625499998905 11.166967089245212
Sc 10.68432670787478 12.546015042154718 8.214337256794174
Sc 13.42187728440515 13.12883957450296 16.4829457483704
Sc 13.8459199665752 12.311358896586576 11.247150648393617
Sc 10.05242683121514 10.15231201714889 13.093848104169899
Sc 15.070923736687549 14.979916311174433 11.41735780736348
Sc 9.236383712199908 10.216962426046917 10.058296427226603
Sc 11.275231940908515 10.66321267005355 16.040545996123317
Sc 14.101696482957433 12.559893272929884 8.492196202779715
Sc 14.121930642137146 10.0728158511885 15.108841359391517
Sc 15.029189286701214 9.892997583343062 9.582243795148122
Sc 15.547979356614293 12.656503390712626 13.747511846632454
Sc 11.946656410672562 8.041407458963196 14.304336301280985
Sc 12.993322394626633 9.684338440586924 12.148515240138527
Sc 16.71731337014058 12.068731247281098 10.68248068026839
Sc 11.025183279158275 7.777821169022368 11.350750978487055
Sc 12.113906395447573 10.01106019275981 9.238291266824454
Sc 15.973057614121766 9.967143886259572 12.74176272064213
Sc 14.709799210743807 7.306363562759462 13.095836305478116
Sc 16.770960726376227 7.901107540279113 10.856149423271674
Sc 13.843048302679021 7.344931711823426 10.179778117955522
