32
Energy = -162.66578087 eV
Sc 15.126732264084618 10.22000105601191 17.09551678892169
Sc 12.459525730055592 11.139891075378676 16.72561137451378
Sc 11.87900151847473 8.385479136593782 16.865397163706216
Sc 14.422998102384964 12.9542312537829 15.573425549514646
Sc 14.05767125949118 8.629925611948847 15.030516628605403
Sc 11.340415055320019 13.448628655023763 15.072275764149932
Sc 15.807529286353212 10.710207195443164 13.957061966398745
Sc 10.03562003361733 10.550331675979775 15.186288341736143
Sc 12.761968373210621 11.143032937482982 13.65948658881812
Sc 13.095530305148666 15.597941309421586 13.994591478655273
Sc 11.495622991764188 8.270220355463675 13.746171561595425
Sc 14.04740988973331 8.775861400122528 11.938295198396615
Sc 10.027451211059672 15.931179050506984 13.494695492062265
Sc 14.869917915475616 13.389146244850306 12.632112740960185
Sc 9.239619130289467 13.053891356777829 12.871373681218206
Sc 15.362998097760949 11.076192763468132 10.610166935470692
Sc 11.939625742359695 18.178150101117616 12.793033886590523
Sc 13.613485749406813 9.457917616053203 8.630321621513003
Sc 12.285077783375199 11.197665542066597 10.606371768809137
Sc 11.442274309567523 8.222833652322024 10.571142503542067
Sc 11.928770393349701 13.991661987062978 11.796450412589735
Sc 10.645714706190331 16.53816755335345 10.651382345227661
Sc 9.829331153610996 10.188377404922852 12.099132910175735
Sc 7.58843933678934 11.957338024082125 10.715653983535306
Sc 15.125953570826912 11.805999959272466 7.543179547617553
Sc 14.188839400960639 13.61809743483269 9.673641086089015
Sc 9.916247296407436 10.28975217163115 9.02088560135886
Sc 9.930796698133115 13.286780523537876 9.512550023090343
Sc 13.639730966106319 16.379453384887036 11.047136804295908
Sc 8.083504958525086 14.994823606460127 11.051474716448476
Sc 12.203109473882186 12.090609388611355 7.732509191436179
Sc 12.130372103150403 15.110198863178807 8.495732543730469
