36
Energy = -183.55411723 eV
Sc 9.467426131706956 7.044478357613683 13.98318217376442
Sc 8.572504692800965 9.790431441253864 12.885232431836604
Sc 9.590899795625292 9.471704317072252 15.591626654455611
Sc 11.243354402643998 8.525901954152955 12.082274242239267
Sc 12.165462749786494 8.146628717285703 15.00400878258937
Sc 10.430130853528825 10.803688452746771 10.334432308901748
Sc 9.50437916148738 12.666337738086133 12.605200223432568
Sc 8.576067825571114 12.190031282604112 15.367144746157663
Sc 13.032426756454313 9.312943513912066 9.527384803359048
Sc 11.646650903936468 10.887360033149205 13.833995913177706
Sc 11.661560062799115 10.901292600615257 16.979639013390347
Sc 14.118483872021365 9.233118755024545 12.500834844893829
Sc 12.562605024468779 12.04573478624618 8.28651620416826
Sc 14.702314642124918 10.48063622761353 6.981689235964358
Sc 10.307921804438035 13.870362413087317 9.504858551944386
Sc 9.127781307717513 15.254772463428365 14.311794868568272
Sc 14.29752613967347 10.59056659232457 15.300119403700263
Sc 8.588737282850126 15.366886657402091 11.398052531087949
Sc 15.44975104488087 11.105960027458206 9.787395277150985
Sc 13.068967836004166 11.941165584429658 11.337481050111
Sc 11.136384380361537 16.725577014851645 10.057444204656868
Sc 16.531888880072934 12.720385300585257 15.834032514820974
Sc 15.116481264291508 13.440603575028662 7.860973357284047
Sc 13.839646490008992 13.233822873121731 16.806844619299305
Sc 11.215438127481884 13.470501444627716 15.38351784183818
Sc 12.115026284841885 14.976759692414417 7.266233412174535
Sc 16.069017578088083 11.567866463843162 12.973619418307537
Sc 13.9394073766704 13.43582081672815 13.839442939030057
Sc 11.49113494330707 14.747192128956357 12.399139653240399
Sc 15.761024368443609 13.87197626643388 11.091780242744692
Sc 13.220155710604553 14.676581480097544 9.819198032761246
Sc 15.677561809158483 15.636166396842388 16.606451725810487
Sc 13.043919184608871 16.032900805489724 15.059993942583795
Sc 16.48034948840324 15.007679825595817 13.915646037685736
Sc 14.154636175071667 16.306004265876545 12.2059570017837
Sc 15.520389860038451 17.782715534213533 14.56561688098074
