35
Energy = -178.4724679 eV
Sc 16.42127312959334 11.048840671541248 11.227602498928782
Sc 17.219377039029776 12.839853701289602 13.675504659666501
Sc 15.598994209943505 9.035255640347138 9.012664223643414
Sc 15.062785647648015 12.075494842877061 8.730846059474151
Sc 15.913825186165132 14.07151213678088 10.93094538071518
Sc 14.518431942668256 13.972733324162643 13.722562101426714
Sc 14.096970008895706 9.058702587747586 11.6934713901488
Sc 12.776355406951517 14.35749463318916 16.21246818793622
Sc 12.991021695692737 15.160048391429836 10.90028058206115
Sc 15.021124201710888 10.902383383282807 14.149364883266793
Sc 14.297353711213193 15.087760120381535 8.276168512693019
Sc 12.626714265229204 16.25579623385859 13.63495471584421
Sc 12.70648152111526 10.085130362774919 9.158553885498746
Sc 15.612916072569753 13.0354541390046 16.220197386576594
Sc 12.0284714151569 13.211017811132852 8.637104391331736
Sc 13.604564878386475 12.072554151545578 11.344100439431443
Sc 12.521170717158054 8.911165934802247 14.42477039331355
Sc 13.080732888335891 11.300821763662439 16.857127352173958
Sc 11.951362048033056 12.031266457646353 14.345586401621269
Sc 9.623206832842362 8.298724700458413 13.717770876744938
Sc 11.126045086588322 10.13195713522457 11.861187090879387
Sc 11.73296057542482 7.09885999150388 12.009769094304684
Sc 10.354424476843032 8.100439968221998 9.654648362648809
Sc 11.530035059117619 16.209583917360003 8.650013193966785
Sc 10.362687071613665 14.601456969268668 14.160376366659094
Sc 10.381498710316867 13.253391855592556 11.455932977843132
Sc 9.69038198733821 11.104246933808064 9.223826504496826
Sc 10.304528950859343 12.807234186340509 16.766984389453068
Sc 10.307826690303772 9.986931392252163 16.11412235629144
Sc 8.244718926585307 9.380523541183262 11.271328136408677
Sc 10.236951174482293 16.347136571879766 11.503093169397813
Sc 8.996295682035509 14.491869733946384 9.29693396222633
Sc 8.902364184919527 11.531520192527855 13.65525208256717
Sc 7.453926144232449 12.233587957456761 10.851963669142783
Sc 7.8551555044408135 14.7368158654105 12.237694711254141
