47
Energy = -245.76593751 eV
Sc 7.576582484747486 15.559434211342573 11.464265959768113
Sc 10.529474549821122 15.584691951680366 10.20796588031717
Sc 9.296912660160213 17.607230179704604 12.700246014145971
Sc 9.170374216767941 12.767852506844246 10.5601063539351
Sc 7.952490149495093 15.56495328998814 14.742402575318243
Sc 7.316326357196714 13.072619136469916 12.892740502937386
Sc 12.263692503009873 16.889587412250023 12.404075057660613
Sc 14.59939492946851 18.665675782151858 11.597968990502785
Sc 9.980756534818664 14.636073580935113 13.075818037787604
Sc 11.854559479850863 12.705213821956256 9.06992815223918
Sc 14.064360869970544 15.850192251902053 9.95846021760421
Sc 13.933387058249583 18.305941539780097 14.499120639271018
Sc 10.90488068557642 16.89337553017736 15.195469003424954
Sc 8.265358529494966 10.187864550152955 12.495281088961786
Sc 10.522188115371522 14.115106104111687 16.14795811843404
Sc 16.899617332852703 17.376122813051794 10.386719145679306
Sc 12.608123444373266 13.84604271217247 11.786810994332713
Sc 14.749084774037506 12.87141032885175 9.490758193504249
Sc 17.002523349039876 18.170993647617735 13.627860695863642
Sc 15.534135426901713 15.806495516161643 12.648574800807186
Sc 14.0486222350986 9.936704904564461 8.708255948564254
Sc 8.791204255904182 11.991399896662564 15.14694519662865
Sc 10.655995638442786 9.94700114393897 9.90621590198244
Sc 17.105921369594363 14.281044779681626 10.445980387055018
Sc 13.345622582738743 10.776790292055681 11.15759869507947
Sc 13.46728677913121 15.27684528820117 14.746983433672328
Sc 10.787213364652782 11.42920183405502 12.779324957793069
Sc 15.614305388330136 16.497350770795766 16.29647783692115
Sc 15.137966834767836 12.691661961832196 12.718266157551819
Sc 18.824485533720328 15.97879702860039 12.119176271606662
Sc 10.147072572858903 9.270956006947763 14.990170408439496
Sc 12.755840083107387 12.502994164026829 14.833518758655922
Sc 11.298340872631035 11.188761510516978 17.01241343641163
Sc 10.71322501920439 8.300772715654318 12.385796031930957
Sc 17.752519978464004 15.29834145052599 14.685133359588676
Sc 13.321783369851108 13.914767752227364 17.452733380993667
Sc 15.742930731334111 13.333907557905919 15.616380709451866
Sc 18.150708242873627 12.941452684994054 12.948872881908317
Sc 12.828415843748358 7.81454640215749 10.560239054066152
Sc 16.548766630459106 10.889772461684286 10.888533628386973
Sc 13.428251782862226 9.712036937493961 13.974900935895839
Sc 14.482796036232225 10.679730136202869 16.709904015892995
Sc 12.612071042463077 8.310333214776188 16.45949091761463
Sc 12.986164768684535 6.805736349443076 13.696459086731455
Sc 16.486973170082507 10.429689318998076 14.134300800409394
Sc 15.327872919421383 8.286488908886826 12.139384721313066
Sc 15.321664584178306 7.8238907813898075 15.300645979569325
