41
Energy = -214.07281777 eV
Sc 15.786445917232916 13.688015275850347 8.485740373457697
Sc 11.655107117463388 10.731766182860506 9.29438964812657
Sc 12.265714569334436 14.582577347894736 12.990744090050374
Sc 13.537915185858019 16.59714768060899 9.220281118741342
Sc 10.096791339973388 11.83610427352976 17.329911444308777
Sc 12.52150967874362 9.8912964218457 12.273560990570308
Sc 10.987823452709888 16.551024845826284 14.399766195337257
Sc 15.223911716588765 13.389686217597438 16.31398756089592
Sc 10.544423887382464 12.716343269000028 7.421317333787411
Sc 13.376183300321056 7.149415664440027 12.108142321052608
Sc 7.641237717313315 12.245650873005031 12.318181993893194
Sc 16.111425834460512 14.72282133381705 13.643734128530179
Sc 9.541417608658987 13.414931685843973 14.661296914692453
Sc 14.787243517536567 14.721536159077827 11.099247401799396
Sc 12.241873071370225 13.823911242501122 16.050946166111505
Sc 13.403946428568153 8.320728701991898 15.03182512184011
Sc 11.7056581695447 14.157497169971673 9.961244138997342
Sc 8.793987082909608 10.364327361015475 14.99156651131995
Sc 13.817522370689508 11.383990745691415 7.335534470554973
Sc 8.792159188161495 13.795769916467336 9.656301851224425
Sc 10.642210609586755 15.883353411673001 8.0068507863924
Sc 9.024437514069058 9.559090772219944 12.192904403975977
Sc 14.26701936772291 12.344870925021452 13.50281757228498
Sc 13.865513603780695 12.219533457695546 10.171193522585472
Sc 9.117444591302734 15.087550048174961 12.277841804559142
Sc 10.911462815870479 8.075518942892057 10.448193687806581
Sc 16.48254394959299 12.02976890470623 11.351382927680415
Sc 13.145293477920614 14.183912989664309 7.45154230398594
Sc 15.521700403951217 9.432053736420196 12.929124174346958
Sc 10.748185770385907 7.890618672579967 13.811678916177385
Sc 11.769157983785544 11.013277323935629 14.965522470524295
Sc 13.939187699048189 16.03004234453279 15.144845516693339
Sc 13.873066838690837 17.222442043331576 12.421307514683273
Sc 10.92311782616076 8.97820461961962 16.888307105000315
Sc 13.013217516281887 11.199957893301086 17.666604988790333
Sc 11.15345739803755 16.874964640561906 11.083478626996873
Sc 15.112606997544095 10.50351524231077 15.698788090875405
Sc 10.47811727173495 12.218304421127918 11.948245723674647
Sc 17.23169172832417 11.970050528694088 14.376741921174654
Sc 14.40900354956406 9.332086294621844 9.99710057251749
Sc 8.803551569957628 10.758268795007012 9.569019275060711
