45
Energy = -237.001944 eV
Sc 13.952741988804036 16.828616770619455 10.811733723600161
Sc 16.441313322846284 15.41581230255379 12.655203053268066
Sc 16.507367665071335 15.829557190581841 15.725352322063848
Sc 13.41490179292365 14.653230118843975 8.311639956836878
Sc 14.397621618351062 13.811546437318805 11.168733586128315
Sc 16.853482034119068 12.919245470595653 14.668110047288247
Sc 14.238360848107403 17.37831649773033 13.944754031034561
Sc 15.850660913901338 12.511075788486757 8.645758236271696
Sc 11.063258785012756 15.850844923162102 9.89783962385866
Sc 16.85066371526145 12.208464860488832 11.698099745262363
Sc 11.106205374439655 18.03969250273114 12.350295717498849
Sc 14.32286274134754 14.440202412690406 14.558312802691066
Sc 13.579935165762205 16.057797035632927 16.993920632052617
Sc 12.901792404594467 11.503825786804097 7.720566415621457
Sc 15.127932561351559 13.330890556569651 17.212407494167493
Sc 12.172928201218113 15.443094791978806 12.698411214909514
Sc 17.36234403065781 9.97096376156315 9.707210689316277
Sc 14.18012135785894 11.66468669581398 13.262864699216006
Sc 10.567088486339232 13.568841736047082 7.655603042162423
Sc 11.846195508839857 12.893791451130472 10.089205333046394
Sc 11.526729833243355 17.520893055509823 15.330145359757363
Sc 15.2704150074205 9.591639857438322 7.625698221074664
Sc 9.251293418749588 15.542146712565438 12.289154998252156
Sc 15.184471114831327 10.548688451704551 15.927771861314897
Sc 8.8785177919518 16.382160082538 15.002409077655418
Sc 11.195840229972761 14.583444653271354 15.417372921589493
Sc 14.418101648071854 10.591103535625184 10.367563184947858
Sc 15.402810272856296 7.684466552146315 9.930968587592373
Sc 8.925330754282486 13.340486425662693 10.341854014995265
Sc 12.386096571850961 10.374972087986398 17.69253373945432
Sc 12.5481795092463 12.049495189328331 15.609626472928278
Sc 15.875535415955229 9.274311171592569 12.82821385004147
Sc 12.380047050980691 8.557490812846464 9.246866035292918
Sc 11.76004627340019 10.244679795606705 11.824266145511407
Sc 12.264654097009076 13.54956576563028 18.201056217065325
Sc 8.43260856561587 13.204946961306257 14.262019372551245
Sc 10.16489171218675 15.809916339574771 17.673397955506363
Sc 10.079847167257405 10.688384920229007 9.161480832739816
Sc 10.938575172434916 12.760583402215596 12.931134574362085
Sc 12.95320360090814 9.183814564159178 14.613466917901123
Sc 13.324107377913831 7.687644608561018 11.977678176232489
Sc 9.851462668828736 12.4585622130704 17.049347949976706
Sc 8.744210886875402 10.848394004046865 11.982719644995653
Sc 10.065549667008737 10.349859928455054 14.565886614878444
Sc 10.240662861725399 8.031258266279172 11.857007294714446
