49
Energy = -258.26314487 eV
Sc 15.676088460609426 18.781482955765515 14.61748114484228
Sc 16.083353238594196 17.18991489225015 11.639949923413353
Sc 18.00003678439061 16.7841523389824 14.16480671831473
Sc 16.059161632362446 16.818350399784105 16.835370394811385
Sc 10.37311793111333 17.37297361128174 14.293180990801055
Sc 13.275399004193693 18.225972962086523 12.824947130981032
Sc 10.652061431224103 17.661629532267476 11.303819739931669
Sc 13.402582936151429 16.596278315851915 10.22217896401912
Sc 13.08164553622813 17.236381672823153 15.889419762938426
Sc 18.673066744667356 15.157538726130182 16.643261315845372
Sc 18.446506250703653 15.188584266548535 11.392622534872825
Sc 16.066120446994077 14.964379446087605 9.105810433288193
Sc 15.124942889068445 15.93723905127057 14.156775324505842
Sc 7.80322299497439 15.828354400635364 15.28974721324241
Sc 20.203726480942617 14.677843586764824 14.154067987460241
Sc 12.307697174799877 15.465694646352123 12.807548947293323
Sc 10.653031989763367 15.442426502923567 16.802601963687433
Sc 14.99596330611497 14.086897181617989 11.58721688191616
Sc 16.06508607858285 13.716698228185699 16.32387175426529
Sc 10.579003144175953 14.797587307544866 10.348928463636442
Sc 13.07315851000963 14.026078802108259 8.970580668390971
Sc 8.299481446619543 15.814346131768696 12.248485389204852
Sc 13.65246751475779 15.094221858389592 18.093396743675818
Sc 13.082768715402338 13.96293541897817 15.474322566104266
Sc 17.367162390842758 13.568046828109743 13.585743385054121
Sc 7.045591614990177 13.347806744703062 13.845991923888384
Sc 14.238123404553765 12.16183365148725 17.959961538925672
Sc 9.919565107123486 14.30683353987684 14.04927910612048
Sc 8.729155089054885 12.753873864916589 16.300749089232923
Sc 14.680212291297178 11.675474380024717 13.871139602344728
Sc 19.754238752570256 12.325916099551522 12.446401744840959
Sc 11.373235875285372 12.61575197255175 17.695862703352745
Sc 19.05264931173999 12.262756930791035 15.659191234650763
Sc 17.4838531311414 12.554552698092815 10.481581823843324
Sc 9.102860094112177 12.510908541359848 11.70109327262184
Sc 12.224914659345517 12.476752572677139 11.771419657596818
Sc 14.539628636376912 11.705158904931087 9.54403323907446
Sc 16.327640984131488 10.594787893230603 16.27019259269221
Sc 11.280617558772816 11.529759250507064 9.31553914549646
Sc 11.253114311834068 11.670810823028795 14.6108716738768
Sc 17.800370879254707 10.380950448441023 13.733812100124299
Sc 8.575406214324506 10.566201504441741 14.09817527981635
Sc 16.123113272237063 10.230617541862141 11.526010639009268
Sc 10.220499516753806 9.835968776387704 16.62799254302256
Sc 10.250109788991127 9.830926668797325 11.699447543860117
Sc 13.308216187406938 10.017703424853966 16.24371593801297
Sc 13.21259691019996 9.626434851735459 11.546949644690478
Sc 15.066342834886552 8.74598116284066 14.000111277949465
Sc 11.66720530278719 8.801300401303168 14.091809489085307
