49
Energy = -257.95661078 eV
Sc 15.284639673593363 10.161749494297972 7.774411944629616
Sc 12.886503178561892 11.72893260911063 7.035478185832542
Sc 10.837688623402505 7.648835319168823 10.888003277435033
Sc 15.684549194921553 13.548911044423784 7.555266944867342
Sc 12.811688694412057 9.869991181695 9.814340250737247
Sc 16.076647518002357 8.934660604102497 10.644395011165752
Sc 9.647871373336011 10.162003837092797 9.72829080470574
Sc 17.093868000339036 11.499593879929249 9.551154091758601
Sc 13.585104037435983 7.9414575227056545 12.533051635964574
Sc 9.68379773646652 15.94283543586599 8.650222510258516
Sc 14.171059004906468 12.46902683386998 9.542362703518737
Sc 12.81108846961629 14.940141710645797 8.224315662816851
Sc 8.523137672545943 8.822847692180352 12.633862018880281
Sc 10.783093217219308 12.820882437636646 8.925987658570941
Sc 11.355462051782002 9.738886972643611 13.026297692978044
Sc 10.781420911232512 6.985432197474055 13.815965538945772
Sc 8.131031797124226 13.612896888673498 10.095644446562028
Sc 14.656563262512297 10.985706088746536 12.045563927853665
Sc 16.573889738989774 14.06322619589876 10.992520840963525
Sc 17.596708592262246 11.331209027270548 12.462236996998406
Sc 15.241598322221863 16.371078224539588 9.386690877965838
Sc 9.1977149880177 11.760969381015276 12.078711641056401
Sc 12.172786926687033 17.425557966865828 9.911805463228053
Sc 12.82072404464174 8.63045524414909 15.570230144210903
Sc 13.635083652457231 15.02230244863949 11.267936122174437
Sc 8.723936641077282 14.47440576219819 13.096049312099666
Sc 15.733510893431172 9.331153739361367 14.315634967973404
Sc 9.430258288994553 17.30230843896249 11.768284690503416
Sc 10.808412189524258 14.956675057547313 10.97944030164678
Sc 16.84721734450516 11.922482047989707 15.198160224329104
Sc 14.991778150575772 13.759263072830672 13.698093573239326
Sc 15.57923006322768 16.55798075244251 12.886796668898539
Sc 7.381130162662762 11.504478023539278 14.541320821622076
Sc 17.891234138696333 14.349939638613476 13.77805654695862
Sc 12.040669577383476 12.353837315222195 11.67823187579087
Sc 13.369054482092839 11.46508233692353 14.804969281680727
Sc 12.322194390829473 17.26663027407634 12.931705738405942
Sc 10.17289100710674 12.18361650533838 14.952812458748832
Sc 9.620784224254532 9.323376236855692 15.594177121681215
Sc 8.05228866384835 14.305196589637259 15.899201929455383
Sc 10.10516426310314 16.561403518475956 14.916329082574597
Sc 14.96074865402162 10.881233132815069 17.210252565842936
Sc 13.57712167560713 16.21422715792661 15.514242557670658
Sc 16.246693045926826 14.559233914307807 16.287815851162424
Sc 13.569567946461946 13.521509917862371 16.928782945418508
Sc 11.93391223657825 14.355126060724563 14.004139591562549
Sc 8.641420016913724 11.79946512063846 17.384771963000112
Sc 11.745844530266487 11.113313076072137 17.355877422213112
Sc 10.734801399760014 14.292057047208012 17.066105218355776
