47
Energy = -247.55063114 eV
Sc 17.668214622835762 14.068437850984425 13.271380840504895
Sc 15.942068885671372 15.944616116337269 11.297639675222786
Sc 18.635060499270526 11.346505094075592 12.350259081297557
Sc 17.17410559506046 13.189338129199465 10.415715436025307
Sc 14.708029527063195 14.43754640233931 8.76193627534283
Sc 15.519115194250244 16.17621411132804 14.406347174271854
Sc 15.592263898598905 13.327078947131316 15.270235914825305
Sc 11.670812905446379 14.991898961854002 8.165890472158065
Sc 17.683517293779495 11.163745638538153 15.304888150273172
Sc 13.476526616184415 17.752042261815856 12.700730369589763
Sc 12.789142269902259 11.939189255519484 7.803817999131245
Sc 16.811345745105978 9.727763990452946 10.498005563559232
Sc 12.959696655405445 15.471205318155079 10.927737955575902
Sc 14.610656189251307 13.629284428011568 12.554499192742897
Sc 14.026196695963765 15.050422170158436 17.057846242323688
Sc 15.758941626408943 10.894017603592955 13.031173936725576
Sc 17.70582964540393 8.701027029650623 13.360669953747976
Sc 15.149979753918387 11.538665294871945 17.490516500212575
Sc 12.627006519558277 15.147297755564525 14.369996513150943
Sc 14.586526097555138 11.858255452414422 10.161982443220278
Sc 13.217578137846408 17.789236111181232 15.750961326712709
Sc 11.494073006826937 12.928999754193564 10.304039395746532
Sc 9.816615460401476 12.550611725910276 7.922861355555984
Sc 13.809429805712469 9.034193691812886 9.443777747787955
Sc 12.751559392607279 10.243312170402955 11.981306152193762
Sc 11.011407514993396 16.02176643641137 16.73725248019352
Sc 14.799764624713525 8.030833204639471 12.296266798889308
Sc 10.855964742463627 17.492677220149265 10.600260953734097
Sc 15.31491530052551 9.03812410726268 15.465829807252192
Sc 13.300591246644862 11.292031721659578 14.99786832746782
Sc 12.241112362234208 12.666546616767357 17.35656441847425
Sc 10.204789882867582 15.116080311854619 12.409832273344863
Sc 10.95901533698734 12.42001370987063 13.269630966168451
Sc 9.04696850759549 15.030713928360834 9.694400679168321
Sc 10.867982959243262 10.004692086058313 9.596202014150943
Sc 10.637375336352397 17.684186754254902 13.918673725757815
Sc 11.871527017894886 7.526780410712929 11.284278614837252
Sc 8.726311380166552 11.888003161099757 10.919799516604826
Sc 12.849246869285745 9.564077237046947 17.35927171129161
Sc 9.877984016857942 9.576640284397804 12.680747693375059
Sc 12.376985507084255 8.392026868699887 14.356666235614956
Sc 9.901368582111433 13.44264210602012 15.8900891441129
Sc 8.152459182647732 17.131049424516004 11.998775759820372
Sc 10.393913197519574 10.508674274650657 15.646246187936367
Sc 7.367482573713208 14.255509041853683 12.168234446311706
Sc 8.059312645609143 12.06346044926043 14.05921394121266
Sc 8.336172477678591 15.634044192593048 14.711471396166242
