40
Energy = -205.58239984 eV
Sc 16.57504380520199 11.182035173310949 7.385495687058747
Sc 16.92744137607794 12.485791969157983 10.16501984334979
Sc 17.280748811392108 13.711546551291034 13.187893937987933
Sc 17.664307656894866 14.9222817614868 15.950156046171177
Sc 14.634181557789141 13.40185503831501 8.352495226994957
Sc 16.22796135835377 9.613272299727297 9.822854444486794
Sc 15.00005296838226 14.767414637798145 11.135741322267531
Sc 16.38129363774684 10.79202748127622 12.799820421340376
Sc 12.406907976955436 15.676865473328514 9.460769180984792
Sc 15.406306665381576 15.94412544483895 14.10120081066578
Sc 12.888443731659338 16.892531848728964 12.150138455980162
Sc 13.771941956536631 10.562058399998445 7.939721242954947
Sc 16.516478811997175 12.093673032415747 15.704901467646383
Sc 14.074576873760018 11.623039261891387 10.799351081206428
Sc 10.207449610346899 17.728951007547185 10.571878120469204
Sc 14.884076048499397 14.466826450597592 16.64723775047806
Sc 11.712870284776644 12.659210505514753 9.017337787751606
Sc 13.997423811159885 7.832358765354751 9.015386165573792
Sc 14.457338650237904 13.06705451839029 13.781390815582933
Sc 12.385345938446255 15.270304306856179 14.88972144125658
Sc 10.044467550930655 16.111842744415643 12.978706447182946
Sc 12.209496917565945 6.4937725768613825 10.839542955168556
Sc 9.433503175608697 14.88486048992632 10.227291516939408
Sc 14.20654475024991 9.905247302324865 14.850290114965844
Sc 8.259150396463612 15.251784494445499 15.247709873840336
Sc 9.808405053077353 11.96766786861828 11.218091616914938
Sc 12.073482325874574 14.014518685048053 11.87146296732345
Sc 12.071657940847514 11.064952896983133 13.20521168819171
Sc 12.663838364144054 12.400005467204487 16.017445630181527
Sc 14.158854282803986 8.576648177688616 11.95646174177487
Sc 11.769197882132904 9.480598674267469 10.293039951634006
Sc 7.5291429140683155 16.813558620462747 11.925550612204729
Sc 7.10418091625969 12.41164945879328 15.259619299588543
Sc 11.1354923980223 9.842123125143319 15.978128624897499
Sc 9.1157759506358 10.576738045071538 13.935861250271726
Sc 10.173015127808585 13.33310424328447 14.05227867721319
Sc 11.385016551723092 8.214101834961443 13.265020743704598
Sc 7.73513937985434 13.850990649633097 12.567933577831337
Sc 8.035975734903467 9.7958355082204 16.567978049804093
Sc 9.573475819097865 12.33214946905259 16.77048767598048
