41
Energy = -213.3779801 eV
Sc 16.419480313366556 11.165543713962702 14.94487651292126
Sc 14.707299751005225 9.960875675309708 17.09053363628678
Sc 15.428264856831701 13.947959326807355 15.631945867589362
Sc 15.541978184161543 8.485876873779683 14.35937574681434
Sc 13.39147164322634 12.966963768583275 18.08009911435724
Sc 16.91302719691077 13.260584820197572 12.882684427605254
Sc 16.809421419487276 10.05257118550606 12.002966239487204
Sc 16.076331123290565 16.266856277089268 13.555756956832736
Sc 11.787968646275786 10.405095956091829 17.722348969695506
Sc 12.57753130575597 14.958148432829422 15.689380937821383
Sc 12.653282460106139 8.8205911474768 14.925223541146439
Sc 14.255775312040232 10.905258873924819 12.819508037871154
Sc 13.094734684864733 11.830353306762815 15.456658373500256
Sc 13.489836141660998 7.960388086588709 12.044824074000974
Sc 15.645385672394141 12.442468468648237 10.083333239796959
Sc 15.821246283180061 15.282614968582788 10.817167624945045
Sc 10.505261181910077 13.019675424301658 16.661727491910884
Sc 13.25072390095204 17.12514459767676 13.703108323942947
Sc 14.044826337437863 14.034645068254873 12.980171149432685
Sc 14.49786148155775 17.889910170124356 11.113818880758048
Sc 10.06437135168775 10.463462464857072 15.102968570084524
Sc 10.384781214509674 7.679886411729029 12.916746890302788
Sc 11.573757128677839 18.499058636574485 11.604448771676832
Sc 11.247457313554184 10.290545444677406 12.330536065359416
Sc 10.338220206912052 15.995010049589835 13.36278664856686
Sc 11.72015880729408 8.981593265937985 9.704256937179705
Sc 12.372473320596553 15.663538217360454 11.054306343480937
Sc 14.009925466669426 14.650672005031641 8.556306443793314
Sc 11.17167509788971 13.058148684671167 13.544764064330662
Sc 14.461819736841122 9.83219625571857 9.920317987438724
Sc 7.916602767740293 9.324975262519189 13.402998472714627
Sc 8.33102488202316 12.79757515726631 14.02710240244285
Sc 12.37701718254898 17.38852060281426 8.747811375557198
Sc 12.505634923685012 12.489058756525955 10.510193807758847
Sc 8.854002382956667 8.677106557008324 10.533934137672754
Sc 12.947925013175746 11.62704736354658 7.867005991259506
Sc 9.686213426421354 16.800006143967906 10.12871965930194
Sc 8.551616418073507 11.279595134257098 11.529284245273626
Sc 10.038948828646102 11.392516395300358 9.014303019228244
Sc 9.596458304319972 13.891973169813653 11.078706634632091
Sc 11.08084654098929 14.41730019332042 8.382311361332002
