40
Energy = -209.17568234 eV
Sc 16.016189365070417 13.478082875275325 11.5324111673621
Sc 16.54314061872922 10.193663829150227 11.41143799682931
Sc 15.12302573959902 11.825555956155029 9.417423091781849
Sc 15.916515252531653 14.607231749411806 14.198297481065852
Sc 14.662007990648206 8.984417111961541 8.64282881385746
Sc 16.617856813205258 11.785580282697483 14.452035856042889
Sc 15.773358798286466 8.995699825537384 14.151575307035872
Sc 12.82659871468438 13.331854837495946 10.950436208301785
Sc 12.849357016298569 12.06450129985216 7.710912211326434
Sc 14.134771716391418 11.15273975550499 12.776979780267423
Sc 13.956960720517133 15.903564750782547 12.311824103044575
Sc 14.137071361576547 8.139037069379238 11.644083482777091
Sc 14.932445416630298 13.645555452606049 16.75015381336948
Sc 14.017256967281828 10.918156262292609 15.832264427513136
Sc 13.047815379818246 13.709562529965739 14.307553002721994
Sc 12.363871934768216 10.053233169595702 10.143310361967108
Sc 14.027263764258441 16.33576015349239 15.534481738788337
Sc 11.92138739031499 9.238030552304421 7.169385057886829
Sc 14.23515985364262 14.869159185641932 9.132721718257542
Sc 12.24233613971534 7.212662085403187 9.271237153276267
Sc 12.716331829798367 8.640213371094859 14.347716932896889
Sc 9.908599992509627 11.718542073802157 7.414562875595224
Sc 9.581978454619417 9.10483926974824 9.198897289338825
Sc 10.816846399195626 8.020238829620308 11.972853416377909
Sc 11.192573446825437 14.3327741215985 8.473791919742093
Sc 11.004795072688827 10.806293458108229 13.091182290883514
Sc 9.989845365760399 11.916804914592063 10.352394474293414
Sc 10.282273130966837 13.710780973335055 12.707047076885594
Sc 11.178954748373545 16.038966409492318 10.920308070492851
Sc 11.230419181174469 16.252566857508445 14.107919313590909
Sc 11.98258875606486 14.68204464976203 16.900803126251578
Sc 9.705193766850423 8.947020597279074 14.904434035628519
Sc 11.032433683755034 11.799494394505512 15.90229436358334
Sc 8.252325758388364 9.874743254858446 12.015444300081441
Sc 8.597644529097725 14.513454879778783 9.9222351029543
Sc 7.421135740891589 11.616844672301868 9.204888569978124
Sc 9.294554380510238 14.318368044692452 15.38205856862031
Sc 8.365853538907913 11.60100619021862 14.516068094174713
Sc 8.36373516532746 15.819510939765069 12.823096870749085
Sc 7.4094739663962015 12.918920387463508 12.037138596099261
