47
Energy = -245.28210253 eV
Sc 7.987429743340068 17.033619472225773 10.71034665843286
Sc 8.979620562737157 14.529568214671338 9.009363858400029
Sc 6.975899857408796 14.384653207093118 11.479502718057125
Sc 10.639452971790574 17.21703269288615 9.49094226376805
Sc 8.341444199699005 15.954619851949142 13.65201670944767
Sc 10.35383303846635 18.071845527213387 12.444028508819528
Sc 8.811009828912484 12.10552146905838 11.572293654531345
Sc 12.25546525053543 14.658199681683072 8.955676658930425
Sc 10.196089490750138 14.917447956911717 11.554802976999746
Sc 7.7409406244896175 13.027294164961493 14.285031110928877
Sc 11.04767349416706 12.016888807121934 9.53615425123169
Sc 12.81742707187541 16.532591003706422 11.598501638698227
Sc 9.09207437944896 14.816946713159973 16.32361816001492
Sc 9.059310059146233 10.159195639992829 14.110032301016012
Sc 10.750135214737947 13.133419690974332 14.207395293399637
Sc 15.179727999325213 14.835318903597724 10.250123176552982
Sc 14.08665840817074 12.022728298079578 9.214895172320107
Sc 11.545783037055308 16.052159174852 14.52853659182875
Sc 12.978827466942452 13.260904488732997 11.725288345813263
Sc 15.769358649337414 17.53513869452051 11.789978640236495
Sc 11.37124729453971 10.764151232108269 12.301750289500053
Sc 9.649894868666099 11.81096879772904 16.726983587462207
Sc 13.816949824298016 18.127745926328746 14.058730758328124
Sc 11.78650601634285 10.306705202452651 15.234927076722414
Sc 11.785258760367366 13.915491651298792 17.198893194548653
Sc 14.6392182846432 15.219712125976288 13.479551921686355
Sc 13.068410090105052 9.370628997518251 10.341763184805494
Sc 16.77372829742679 16.88078166849741 14.665561390917206
Sc 14.13900747416942 15.934566739699823 16.364788863673756
Sc 17.644362761559172 15.118604459434996 12.162377508000153
Sc 16.714606847480468 12.252174719328554 10.907881042484144
Sc 13.835272111696337 12.647985807848475 15.35113518698442
Sc 15.934223325508963 9.5114710275301 9.744368775794136
Sc 12.525489240903248 8.213024197691867 13.132478031297326
Sc 14.564684707424028 13.515664643698187 18.313203252326208
Sc 14.558090628954002 10.736042781424214 12.713062153248117
Sc 16.687457407479844 12.90080568102533 14.097294475471111
Sc 12.88806945049753 11.093690585827815 17.835210018082353
Sc 16.87093059184247 14.44420221755536 16.605049573471966
Sc 19.194382162000107 14.798836216740513 14.731270290432473
Sc 15.560769329730586 8.06874241182094 12.364423007739232
Sc 19.23669980129638 12.268221943327257 12.983414562069006
Sc 17.983110354873894 9.75142251968061 11.822447764748462
Sc 14.470613995861243 9.178305543949175 15.440147086942208
Sc 16.066045320959976 11.3001781001218 16.97775193472229
Sc 17.260091213391284 9.966924463133788 14.552005327185503
Sc 18.939639231386113 12.099285181514235 16.010884389153365
