45
Energy = -235.39948192 eV
Sc 13.871748632003474 13.87104557252318 7.810716944564405
Sc 15.167999569328629 16.629906223245115 8.736960867016172
Sc 12.278467196752835 16.5788004975175 7.948049840483026
Sc 14.894846801195964 11.448896768072354 9.466877274498676
Sc 16.398967768694387 14.076525578715783 9.899276640023533
Sc 10.870800815750876 13.904794388068327 8.773242846148062
Sc 12.171020178613412 11.039512237512936 8.21840257575885
Sc 13.524172745822007 8.481393728925152 9.681359369565884
Sc 16.53275430116501 8.870893346460017 10.4934221694529
Sc 9.311058979818588 11.424675899788495 8.925185772046234
Sc 17.19995676215159 11.581924700953914 11.836282123960824
Sc 13.12386486034492 15.125178507821458 10.47367875079505
Sc 15.471653441853913 16.505510924877132 11.840843216004377
Sc 13.168172367385711 18.116726444279475 10.458912057435027
Sc 10.382381431550227 16.704396879529508 10.428476601491125
Sc 14.269749434848524 10.036992703094253 11.99033906086621
Sc 8.233364984803826 14.223075781576792 10.077554001212706
Sc 14.811223543346529 13.230112348514618 12.425811209408325
Sc 10.655174811930907 9.308457539601989 10.534834874318495
Sc 11.962968940343744 11.987034392511728 11.121530231252192
Sc 14.968898819360335 7.123390183852514 12.235273344461882
Sc 16.629349126878722 9.234265876579203 13.71106487322124
Sc 17.567718515617173 14.519464979454247 12.757581269607646
Sc 8.85528569079553 11.659239608860794 11.830983426595482
Sc 10.333947125561012 14.393612643707288 12.118340383959856
Sc 12.55884438195274 16.430706091625826 13.174501423657812
Sc 16.77232873313977 12.474341388808925 14.789572424774553
Sc 12.454384203892275 13.506134556919614 14.304224772455512
Sc 7.428913206935029 14.302306970948791 13.214481582602398
Sc 13.895548990297378 8.069872068929481 15.043692930365763
Sc 12.010302726791954 7.816739087479243 12.661677201533266
Sc 6.887577973542576 11.39208882576401 14.204014993879463
Sc 15.18290879590363 15.170212878515871 14.746940731315869
Sc 11.357332397791025 10.564106687794567 13.904955898944099
Sc 14.294714143226335 10.937671959979294 14.780547108860526
Sc 9.434965383852836 12.83685202556613 14.504673391061502
Sc 9.749048352022783 15.677076525817855 14.969708964441496
Sc 12.516245706954773 15.689172492011076 16.311930054583136
Sc 8.964977891388362 8.932212720827007 13.335331741263124
Sc 7.575260047316319 13.535692886650468 16.335343760711726
Sc 10.910728425178155 8.051129255308986 15.531297411457713
Sc 14.103873179822374 13.13759542038099 16.81881806753901
Sc 9.120271764844496 10.467229420083584 16.214443731870844
Sc 12.219574381887044 10.432085663356451 16.88795614122738
Sc 10.889856603753554 13.228969904900406 17.050351359470778
