41
Energy = -213.36749907 eV
Sc 10.762545960274972 16.50048894467846 12.841437114542819
Sc 9.513000200160656 9.637211861498479 11.456554714548405
Sc 13.475523498835534 12.084625812086133 14.364892588758966
Sc 7.742841570144183 11.843086121692439 12.805325702365883
Sc 13.483678331611747 16.81011178462102 11.00057910405649
Sc 10.032354108834435 9.433812845635071 16.67618356336022
Sc 12.245361898475888 8.096597446466259 11.058850194619511
Sc 16.41511124761252 11.664617942677154 14.153204225374493
Sc 15.717007324382411 15.005212422134163 12.655304373339758
Sc 8.23663365698186 11.968749770379585 15.92119150211344
Sc 14.030978204363308 10.999482592581654 7.239727777135787
Sc 17.801126588384033 13.008785623174834 11.55846907804717
Sc 9.989318069328153 13.608922102359244 12.2765391256536
Sc 15.05431703640301 11.975413630964626 11.477652075031887
Sc 14.403850883301446 9.295509737758044 13.033854662342595
Sc 10.905848196975029 15.19167469125032 9.851449549269143
Sc 11.71767533383065 11.939788478688634 17.19020620768425
Sc 15.203854091127951 14.30760758898789 15.38405170361804
Sc 17.220386782894817 10.04871368295778 11.481955071337287
Sc 13.423466134461014 16.489115903428793 14.387446733316585
Sc 14.61199804916625 9.44499615279915 9.768307276361021
Sc 13.050429521143325 12.968013027869606 9.365027085540301
Sc 9.820122673482109 12.25057118513484 9.671429172981973
Sc 15.558573125141582 14.770781707085215 9.718966560075119
Sc 11.251721524763699 8.384798473805256 13.875666094983274
Sc 10.668126097921437 16.772697059644496 16.012311404381276
Sc 11.707676205029873 13.102611749698143 6.985465373614146
Sc 13.110497859898434 9.57376255649971 15.979264241080775
Sc 10.461631709901374 11.190139012796207 14.277926040532437
Sc 8.20945730195332 9.270202266851342 14.311797663208372
Sc 11.59916099371933 10.060222075943855 8.76398103377133
Sc 16.577661517624634 11.822400501836432 8.863430178723801
Sc 14.74333569731661 11.954677836607596 17.07002975049071
Sc 14.83599759089545 13.72187497630529 6.869876232193801
Sc 12.85916362249785 14.28162925412915 12.130612659456766
Sc 12.026343430610558 11.101366862916617 11.686319407134109
Sc 8.499514475626281 14.815727257280562 14.67664084955808
Sc 13.161931371864778 15.80339169392868 8.054397107936335
Sc 12.964947944911268 14.79576229187718 17.361807583266426
Sc 11.423136696341817 14.204032832855017 14.941828723572733
Sc 9.781449238479954 14.281844771462618 17.42589474649839
