40
Energy = -207.57752585 eV
Sc 11.09067773489854 13.943281328966235 16.888880417650597
Sc 8.27029959981279 12.747919328472278 16.14448691917835
Sc 9.183617704164977 15.333328276411471 14.891092634617653
Sc 13.082772487966372 11.783360092255752 16.514120572433207
Sc 14.393322615529197 14.25693398035501 15.93253338122309
Sc 10.411072222914992 10.543004498202807 16.55070013263412
Sc 12.193747795349354 15.21975263084355 14.298837268375046
Sc 7.831626721082332 13.174551416204176 13.048010695620235
Sc 10.566390322756163 12.562252081210282 14.223955920594118
Sc 12.875740420987551 9.217764320635881 15.125766083570575
Sc 8.392828819641606 10.26829130870129 14.223316715519585
Sc 15.7598484781872 11.22881901499412 15.166026932689439
Sc 12.057359260766619 17.337226675536364 12.03159696358545
Sc 14.781835195550876 16.468341983644528 13.1286937672054
Sc 13.563363023817795 12.167034515966504 13.546938796044522
Sc 10.073241534596612 15.003116235420004 12.001149042655767
Sc 16.041025359680813 13.852875506834184 13.594055604052667
Sc 10.206585402814556 7.870815965266587 14.932668009135897
Sc 13.21329822185328 14.520902613878722 11.44622771169742
Sc 11.180090537698293 9.855269742732787 12.656351867050464
Sc 8.891771032716576 7.7721358263668625 12.314294554083547
Sc 8.156363507478698 10.752585975055945 11.21633260087772
Sc 10.790911369042318 12.22531776030451 10.745279352877823
Sc 14.28259633790372 16.868527407767186 9.993033918474369
Sc 8.473591915497208 13.844032837164578 9.734805608496675
Sc 11.370285322180049 15.907576565777957 9.386375220797998
Sc 16.145919938238574 14.526847193544686 10.74086569818785
Sc 16.658026156768063 11.575466643751282 11.977070453157609
Sc 8.915428735047772 11.25510730197242 8.324070668301884
Sc 14.707751637736878 9.24644092390901 12.738359275989964
Sc 12.024008021965825 7.1954306359161215 12.65056801578796
Sc 10.167392675152955 8.859464291428596 9.937526575153452
Sc 14.030538790325792 13.980189553773133 8.376602190552202
Sc 14.067062419681774 11.669260086421003 10.362310422441633
Sc 11.019076073479383 13.409414175430411 7.98332386205994
Sc 11.842407263505226 10.623776101904976 8.266157738161276
Sc 16.756019929353027 12.233583878403104 8.900106306792903
Sc 16.107154038415572 9.450484765111128 9.985655986085757
Sc 13.199072360000729 8.731396044152435 10.107743680036242
Sc 14.709156027064914 10.709938798526315 7.557689114785354
