45
Energy = -234.75212483 eV
Sc 17.758342853624605 11.720257878108258 11.979077628607191
Sc 16.71395812864075 13.327668815326854 9.60737147481904
Sc 15.443082795342415 7.66780333792898 11.451719400684992
Sc 17.55641282178457 14.788989775846472 12.144333637282335
Sc 15.363088004376158 10.612686796018405 10.459527787382772
Sc 14.528441555815677 6.759852556179579 14.112760538425038
Sc 12.562507494665288 6.4751826838429425 11.775767705218554
Sc 16.001620138080973 9.850367681979508 13.872644342337827
Sc 16.72014263332165 13.021793220564133 14.640915530701063
Sc 12.974485068497561 8.64244084578923 9.735464812644533
Sc 15.000940133391245 16.068472356169956 10.736586913448601
Sc 14.99996003344632 13.276991376716095 12.063626638191648
Sc 13.723084473560114 13.690517367721586 9.153255297155813
Sc 13.503341190314298 11.048920462235706 7.97308740896892
Sc 15.556468375096447 11.183054477487435 16.79489651739116
Sc 12.552608146783584 11.413232872146319 10.935253534943898
Sc 11.316283199262411 7.299694015769383 14.409709025686796
Sc 13.61543354118939 9.016797632748967 15.989272358482578
Sc 15.045674227737186 15.764568565453299 13.958979994393932
Sc 13.222686439534701 9.094139215931317 12.905359822348414
Sc 10.37884404472898 9.266853727509812 11.860295996989658
Sc 13.69481192692127 11.815041451925046 14.490641981371782
Sc 11.30065463603374 13.320302132885969 7.251434428677801
Sc 12.259892391348444 16.169878056361306 8.622639073538275
Sc 11.031979145140436 10.190722437809445 15.09703129227288
Sc 10.476623253033093 12.239960334968913 13.007041410726814
Sc 10.480202043586788 10.684380113049368 8.835494807714909
Sc 12.270583292021286 14.508898592361735 14.760481660588933
Sc 12.220647918675951 17.238451781507635 13.313954238173013
Sc 12.501592882126845 11.871690814125989 17.268019521560234
Sc 14.619233515623034 14.136698320446188 16.709536374051826
Sc 12.367823931060594 14.949329312615221 11.490256049708934
Sc 9.711878848171322 15.221687261089352 12.956047323737018
Sc 13.108196980976084 16.944205027159953 16.24985096395416
Sc 10.361626287951095 13.550160072401178 10.029480444042123
Sc 8.286878672131888 10.341076916091891 13.985407662243233
Sc 9.777602917575663 13.011959712621234 15.875592881264945
Sc 8.296549842067126 12.823816200120003 8.092397063463043
Sc 9.321514654462066 15.630355219188182 8.051707789920597
Sc 11.684843265881444 14.782886610697759 17.782386371032256
Sc 10.111385673553052 16.302483236960338 15.734039380638542
Sc 8.181399590056516 11.534757623172336 11.045089839109338
Sc 10.100716472778279 16.970818075369284 10.649921812084232
Sc 7.609811912490639 13.25292437416042 13.535751302496235
Sc 7.704458409152241 14.698616347524858 10.612497771875638
