49
Energy = -256.75225171 eV
Sc 16.996750593034314 10.733745815443323 16.495468879368474
Sc 14.580524312897573 9.599060660105147 18.052426535733474
Sc 15.088358982767705 12.74605723613507 18.06082594593285
Sc 15.20550439468192 15.921566635511798 17.05830625766125
Sc 12.776943755724771 14.716556345362942 18.689944541933436
Sc 18.748752747806233 12.647227188189063 13.668379149766485
Sc 15.100882550944139 8.298149198174286 15.296503462662209
Sc 12.125829533698042 11.616488606332469 18.1252007163599
Sc 16.974328325619517 16.041886306636258 13.814251047987547
Sc 16.431114650634978 10.856152489699417 13.542693623990138
Sc 16.20743641627998 13.5080987588884 15.184551493453002
Sc 12.169977426966893 8.823895415966073 16.196788940078193
Sc 14.080805971840359 11.085968110866805 15.538906506351388
Sc 12.099898900512692 16.907198889171607 16.734517916041963
Sc 12.73014573247238 13.644562094973267 15.990712737325795
Sc 14.901208730403708 18.30043797943644 13.563036487945388
Sc 16.932115252091986 13.823238483114634 11.67947300410042
Sc 17.64461677629276 11.088465088860925 10.888287953245158
Sc 13.921320442146355 15.726327043850661 14.425843351803831
Sc 10.000674012755757 14.373263266889566 17.142444937818677
Sc 16.636039947298983 17.567589664767922 10.972179202001893
Sc 15.103727748161747 8.645350954968654 12.221897102350598
Sc 14.241350531162158 12.972447271291596 12.987634789538358
Sc 10.424770431709272 11.577895056644072 15.475649436029325
Sc 12.46891437405095 7.256439396786819 13.25965110094235
Sc 10.851976313519467 15.545628788523072 14.568553132548109
Sc 14.79531932394438 15.768972118706431 11.667506826917771
Sc 14.587581189688933 11.144333641207805 10.668872686990131
Sc 8.901422406035552 17.1198298652291 15.514746158961568
Sc 12.4525847121237 10.141768379804313 13.021996256073294
Sc 15.645164746365856 13.429763202598666 8.863297671828173
Sc 9.915123996296217 8.86019665369189 14.143405802915856
Sc 11.671099637269768 18.1820720698555 13.728844899019242
Sc 8.505854134528203 14.044540454089006 14.036248806438973
Sc 13.359807021612022 18.324858845874253 10.90356203402651
Sc 12.974266610455329 8.51569709867136 10.174747904957208
Sc 14.430993176664044 16.446176063797488 8.802728974644225
Sc 11.238628397366872 12.960779641657775 12.943828981895708
Sc 12.88934446812434 13.721380606048099 10.00183441932326
Sc 10.219074642956116 8.397939863360202 11.285382327151343
Sc 8.976133417367121 11.152003463496747 12.42084633833287
Sc 11.870324830601456 15.808565811807272 11.875672153853985
Sc 9.18224584908148 16.797005126234254 12.382550692313202
Sc 13.305086802327278 11.449217773518987 7.927259957907704
Sc 11.300572626313159 11.121501294318952 10.318021928659627
Sc 13.187754340288965 14.384416001521439 7.051170048796575
Sc 11.233204593890035 16.163108312353344 8.99980983740538
Sc 9.472691660856503 14.032252589168978 10.84718235954625
Sc 10.63550923708979 13.182506194553092 8.009293915999592
