44
Energy = -230.07134086 eV
Sc 7.114375886983439 12.036166828647534 11.789688445472528
Sc 7.134315336835521 14.88614825878626 13.187144586923297
Sc 8.08273306669153 9.901661916014834 13.914920276451596
Sc 8.806775192860574 9.361844249276235 11.005161374243938
Sc 9.242459438199035 14.828730591821474 10.900022127237913
Sc 6.794627808274646 12.534832664273324 15.00450953869913
Sc 10.078918913291346 12.06527790909431 10.765507177946239
Sc 11.340808128865552 13.777095482998071 8.696730092404724
Sc 10.852903388597626 10.48155367566776 8.383283097116802
Sc 10.09041000370532 7.502326960043255 13.179889926424794
Sc 10.381033343738682 9.06873526663514 15.715449779647335
Sc 8.789782399323848 14.802076669486683 15.7596693020455
Sc 11.036452014779812 10.240763932372898 13.063411816229042
Sc 10.141669975522568 16.212836383245172 13.414861200808337
Sc 13.639692519594348 9.024098423346711 8.366902150230262
Sc 9.281317107509027 12.806822607389114 13.568952643834352
Sc 11.944159230595034 16.688627419576846 10.618846480561203
Sc 9.703839231468342 12.024725982989592 16.443114060480625
Sc 11.612254822074862 8.48484527215883 10.617229918186517
Sc 13.026341177730304 11.281383125950326 10.259448444980547
Sc 12.292030860277935 14.14013079368899 11.691873506961063
Sc 13.970181041940819 12.091038006153209 7.6694020952679125
Sc 11.797306185655517 13.817703464140555 14.726184889934991
Sc 13.334073930926666 8.667861702612825 14.151462331657626
Sc 14.454390289832057 8.788451515196343 11.308476200031192
Sc 14.131762417055684 14.710438545664662 9.149886952354484
Sc 13.687809005598337 11.515335870224497 13.213318917382802
Sc 15.663612523517697 12.982987181255877 11.343017722293775
Sc 11.653459638264597 16.232696432508124 16.353690328755505
Sc 12.580147047884003 10.983718118696189 16.000946531529294
Sc 14.91256776684858 16.066544148334113 11.620459837465187
Sc 14.84365090942634 14.188832921896998 14.321159696892332
Sc 16.86600286935421 13.440506007110484 8.619595437224273
Sc 16.06983742183549 10.596936321538326 9.513819173418383
Sc 13.718664121263735 13.713587727717682 17.119712590425404
Sc 13.097383660859885 16.763979839699946 13.786673356076816
Sc 15.59258012861731 11.517634320689025 15.611075364788686
Sc 16.558091413229793 10.411860684598015 12.747620733276694
Sc 17.649557054170725 13.206275773286642 13.698003552094823
Sc 17.760343668648865 15.051867000432573 11.136367669076384
Sc 14.709355212163917 16.47677356666243 16.37660552320777
Sc 18.48074861744906 12.154628389927138 10.845421073231666
Sc 16.79549258353628 16.275840745955282 14.036781418486447
Sc 16.772784204158558 14.324796382845987 16.51463964111371
