45
Energy = -235.87525269 eV
Sc 9.549421211712396 13.519713277938402 9.075844309957736
Sc 7.699882428626847 14.96146660878757 11.154295906828306
Sc 7.799529588772456 12.73641337059838 13.606949713606761
Sc 8.56804063770454 11.516789034438302 10.934665923995587
Sc 10.830222277576507 10.726508277946419 8.556706678940111
Sc 8.235071045496243 9.682019848425698 13.529325121241031
Sc 10.507490460626219 16.25546166846386 9.536857213424309
Sc 8.424167214966698 15.45081906680303 14.138359813253482
Sc 12.215362089520466 13.951510344019763 7.93387360453899
Sc 9.095622112694278 13.519567615352399 16.29222086541962
Sc 10.593912143170291 9.252796394978313 11.456808865397457
Sc 9.87677990434777 17.309483338417454 12.451380673355292
Sc 10.797016381551474 8.415736317364118 14.66924206872467
Sc 10.24318686888815 14.35523760003428 12.040922888327447
Sc 11.7310425816926 12.099370895050603 10.814549161585134
Sc 10.592170782358954 11.50642889086031 13.804211853451001
Sc 13.416157274852035 16.930572108344112 8.446274910032589
Sc 12.986524891846932 8.557956701714314 9.662834425127357
Sc 10.586222856293757 16.851706199614103 15.539123060733939
Sc 12.50692299903213 18.05363556574795 10.967022060196284
Sc 13.077017320544417 14.891331682522125 10.673225351856285
Sc 11.50141570997129 14.159788584752421 14.802437618916212
Sc 9.487461970428287 10.439958943788074 16.29901775176836
Sc 12.765683246052184 7.659027638759651 12.581740327096382
Sc 12.777417872553709 16.441413329121886 13.395723763397914
Sc 13.321649844927466 15.739529565052129 16.40097299095789
Sc 15.256020886077888 14.57938385120835 8.469406935365008
Sc 13.701971845298782 12.939557927043118 13.135800347825937
Sc 14.12063612613112 11.687450576977314 8.953369212102567
Sc 13.243969758174618 10.308932984258776 14.665541687493796
Sc 14.22500150299717 10.293473709943521 11.646119693268398
Sc 12.274544766972046 9.035185481642278 17.24103039399165
Sc 14.261660528172202 7.60175751715119 15.168760911358834
Sc 15.874879046630063 9.214996246639938 9.224298964602212
Sc 11.955315377096174 12.09891199316871 16.923283048718655
Sc 15.292116946770204 16.62662089063663 10.974992096304575
Sc 14.557656269509565 13.070866084743516 15.94583159696948
Sc 15.464813358862587 15.164976470047325 13.966723059995257
Sc 15.582812357547306 7.5919848189452575 11.830737174792336
Sc 15.889939156879882 13.27153518792375 11.15985847763977
Sc 16.677477031540544 12.333547223810868 14.123126146770284
Sc 17.157277090865346 11.932111745879803 8.751973895949492
Sc 15.175283176199807 10.141014364808932 16.76362853169295
Sc 17.34605248126464 10.535701962563524 11.453111717327998
Sc 16.16916197057045 9.495149223111495 14.016963053045195
