41
Energy = -214.16190405 eV
Sc 8.478661126107061 7.46742198061623 12.520012387893189
Sc 7.079316521175559 9.775922281890184 11.16164569676643
Sc 8.180807727962543 10.248576884220592 14.030503134920906
Sc 8.98791726050858 8.114742678053116 9.575340287565036
Sc 10.804702475996967 8.356722238666531 14.448284464674567
Sc 11.374026300068724 7.195024118994073 11.501313454914907
Sc 10.35099171193951 11.163424085056658 15.981368808210675
Sc 7.711428232795065 12.689270360122276 11.88278172258419
Sc 10.108627956086048 9.856933422844508 11.741956451384665
Sc 7.959513218817386 13.176730050543673 14.972339261819831
Sc 9.080593479248645 11.35167507168818 9.254040137552106
Sc 13.810785224815724 7.869540976898076 13.681180651558734
Sc 13.615054156081992 9.647582162499996 16.21583650386592
Sc 11.597241870712615 9.539785681704274 8.837678143123902
Sc 10.333694767644651 12.66480436405665 13.238742441200888
Sc 12.877428313522389 12.508304837847797 16.669909889705572
Sc 12.549760512937615 10.711035271761483 13.800133165222425
Sc 10.6914364873157 14.307924060950956 15.826817860019741
Sc 9.158048676991049 15.331464813711564 12.996681381830474
Sc 13.485293981439842 9.368964700058784 11.20153516979317
Sc 9.814901196819092 14.297298271755798 10.158958049136276
Sc 13.97418230264293 15.407650821332657 16.094032861397388
Sc 12.008280259239646 11.928807730875835 10.626007718856302
Sc 16.494475755832152 10.011993209309585 11.101513568466892
Sc 14.942096076940935 12.536023174342562 11.613928011978969
Sc 11.722669884835474 16.33644902658589 14.024818801902647
Sc 13.321991438359007 13.68397572920249 13.971194735979573
Sc 14.48199077577359 11.156047932433484 8.820650772619777
Sc 15.679050505758564 12.533921484828284 15.847784526053069
Sc 15.526480113785299 10.367617464094923 13.930735369400185
Sc 11.806768399099852 12.779069138040033 7.952815664912338
Sc 12.731298459969013 14.791689267518203 11.111863832434777
Sc 17.59160243236209 12.361561302919752 12.83325651217493
Sc 11.816250355285561 15.864800492597434 8.432979315921399
Sc 16.15153992324458 14.73734112807525 13.97047207712706
Sc 11.237188531816233 17.19012352227324 11.13322447435114
Sc 17.195410796109215 12.623829359752705 9.733147151945259
Sc 14.512531474553391 14.233819355380636 8.695878480895082
Sc 14.308146429295038 16.75851081257228 12.866947366431544
Sc 16.315043674483093 15.256131380956754 11.06928415802247
Sc 14.082217320160844 17.15178912724345 9.809850190978068
