47
Energy = -247.05264943 eV
Sc 14.56801897540926 13.78486067576237 8.009173294196472
Sc 13.708750678084968 16.39657344926602 9.822650917725845
Sc 11.658491249140205 14.731346216498087 8.675497597737957
Sc 16.544567674561012 12.689348213397752 10.363153197546858
Sc 11.688655530730188 11.875948885396815 8.145462622548905
Sc 14.658540564326541 10.630464855329054 9.029385174525764
Sc 10.321070096351555 16.788791323688493 10.304061790995359
Sc 9.897553415483657 17.392728685161636 13.159244248974154
Sc 13.388282574357042 13.034526795077397 10.45563115424985
Sc 15.38387081102105 14.855097906187936 12.01000288469008
Sc 12.818171055355245 17.857847999581548 12.414439566762624
Sc 8.613198271360352 14.694333432891005 12.087994654054548
Sc 9.113189778562948 13.452855952151769 9.263941304156955
Sc 14.378549400657779 7.733240744599927 10.251114507086783
Sc 7.684543580814167 11.640238986465219 11.378194583894242
Sc 11.996376754021403 17.333231320537298 15.578837615677712
Sc 11.621824239339675 15.008475321939029 12.174355451991868
Sc 13.661114750052606 15.33838887916871 14.399068150077403
Sc 14.849298334542732 18.112126215688622 14.637437922075655
Sc 16.05097769272246 17.576943849690334 11.811469538800525
Sc 12.133762535130874 9.032644851630533 8.864238761511478
Sc 8.669161855604315 12.336267244902261 14.091295050013603
Sc 9.497269482275044 10.004300712109465 9.634698403160531
Sc 16.63604478412088 15.686127267770088 9.409627289807219
Sc 12.893983002463345 10.022362162668328 11.561471824105872
Sc 9.900317443279048 15.02111945278826 15.024681479651301
Sc 10.5862926577918 12.152436061995724 11.441463817944925
Sc 14.699566820630498 16.286073983191237 16.99112678379875
Sc 14.303714940931101 12.234725199113182 13.220682707905166
Sc 18.255752380381896 15.299754428045189 11.846805649277458
Sc 8.758536070342943 9.52645355175194 15.44089541589772
Sc 11.716609166355124 12.732026224128285 14.451640465211431
Sc 10.100226381850094 11.971932095992084 16.824195056938315
Sc 9.807992010830285 9.582255798311484 12.700917736804374
Sc 16.761417202522885 15.716084890112104 14.567345463524067
Sc 12.300380504735001 14.386325280005295 16.98060516093451
Sc 15.266822532830847 13.273575569606809 16.00641629919856
Sc 17.175885067979856 12.712992749078445 13.525423962972361
Sc 11.489896609670089 7.395502626146323 11.34160753579999
Sc 15.959001953866883 9.978289280173977 11.928491600843389
Sc 12.149782593578545 9.877783626115084 14.688467769718986
Sc 13.159818556418672 11.255044149079968 17.095388609849923
Sc 10.939169561089425 8.984494689803213 17.31799755189058
Sc 10.98698478294176 7.262171298682515 14.656256570134804
Sc 15.315139096758747 10.153162874116981 15.028824245740875
Sc 13.932022772189478 7.77971131359506 13.36210450329019
Sc 13.5416577088066 8.001384548608508 16.439993754971933
