44
Energy = -230.57471346 eV
Sc 13.972298035486869 14.101656744025451 7.778736661443149
Sc 15.657458620660488 11.81320788609586 8.771841021032614
Sc 16.22189614107006 14.24004857622379 10.35061511463808
Sc 13.239173557459111 18.437395635909656 12.458700456169794
Sc 11.319548407196262 12.596787703288141 7.953325117613419
Sc 11.214464273173737 15.092644571154059 9.250400362984438
Sc 16.536098142151097 11.163403537904834 11.59983063199616
Sc 15.951720760432082 16.47290481219845 12.505399209002878
Sc 13.707544446060737 16.155608272681988 10.36692156222781
Sc 17.74622097485999 13.585021631848198 13.242756479946104
Sc 13.290229597798984 10.740409481597691 7.257727416224649
Sc 13.406716913195696 13.038744435805292 10.397966024907818
Sc 10.722559393976825 16.690264619604378 11.893171298412721
Sc 14.629787962329605 17.86297360840003 14.98070567657208
Sc 14.395251412751183 9.43381002710206 10.003825471092204
Sc 14.973462855643119 13.379377588099185 13.18065812796397
Sc 9.05441620243075 12.790129875789741 9.822001038772118
Sc 11.01677899465792 13.571146463648853 12.014257413986007
Sc 13.11219611013313 15.641301900919917 13.382762254786407
Sc 9.608823758091392 10.115670362632342 8.06935179092253
Sc 11.989488123443103 8.266887446631767 8.48973220884848
Sc 16.157892111981216 15.27658497671767 15.259182228977997
Sc 11.550609868190357 17.544836900331553 15.01336845412463
Sc 9.57128310622215 7.874492155314957 10.088785620145064
Sc 13.434562188922692 15.487912813299305 16.61406767382883
Sc 13.558102135675648 10.70459365685611 12.877351740097305
Sc 12.26820379821706 7.930930431367718 11.582623357774727
Sc 16.30231650662218 11.015319652521065 14.515057081662093
Sc 8.179143674489408 12.815576475745072 12.975234274979334
Sc 9.918443504777544 15.069768922845322 14.386929530260241
Sc 12.279070091488576 12.983273683475892 14.94749969757572
Sc 11.26039193563856 10.60885178777997 10.343593926265658
Sc 15.265238400510778 8.454541084067195 12.98570468700439
Sc 14.99215606007855 12.884818862312121 16.489764317023297
Sc 10.480923511616355 10.840693867880796 13.387826120516895
Sc 8.238342560788972 10.207173471992949 11.391795906095258
Sc 10.599332041341013 15.204497294733477 17.14325841571023
Sc 13.686343158965038 10.337413328873494 16.038357701326316
Sc 12.494950306916913 8.181259908375495 14.469147134138925
Sc 7.866154993893417 10.13483439007761 14.539784342710309
Sc 9.328901611968055 12.54620800825189 15.912565590959456
Sc 9.663833595708347 8.027869155554479 13.243639589745282
Sc 12.02981940506445 12.51800830614078 17.719565119949724
Sc 10.654634698895764 9.873087328824273 16.122361905857815
