40
Energy = -207.83003729 eV
Sc 10.051472673192821 10.162592745494187 15.424060584709945
Sc 11.966558967474244 12.522579959105395 16.75691416941218
Sc 13.359966374979212 9.824466145231625 15.846082217085334
Sc 9.291883696804518 8.151449550181667 13.205548881725063
Sc 9.344885157563251 13.379143926612834 14.73736729661437
Sc 14.879468790011758 11.99703955128777 17.72170741419594
Sc 12.300705185653081 8.700152752473034 13.00481659612699
Sc 10.468135108923228 7.661306342986826 10.391161088437038
Sc 7.948732459665688 11.012558695323394 13.21307385432905
Sc 11.678930141636787 11.781253355685097 13.814120086537434
Sc 7.780316050206531 9.034196608748678 10.750664868173905
Sc 12.092169649936944 14.939456575187908 14.678157010193162
Sc 15.312678995587861 9.493333873831798 13.389418376719807
Sc 7.017696187540823 13.997882800068005 12.75950628972147
Sc 14.187532778180342 14.694837162385888 16.839566084806147
Sc 16.558900586072326 10.426155545972954 15.938607559599207
Sc 16.941049883896312 13.609500081054684 15.797155919347976
Sc 10.442826240154089 10.332214466205292 11.443355492313291
Sc 14.539532116507871 12.36301360647807 14.637523481938253
Sc 13.07409735091797 9.398120015587674 9.628579151866068
Sc 9.568179461638799 13.22043307860264 11.531689573283469
Sc 13.530625765122627 11.264734235879427 11.621740355476772
Sc 9.638881746888487 15.933716313642265 12.742832286115501
Sc 7.305636442277863 12.039587097735538 10.127276410181091
Sc 9.597072685051183 10.304223301683663 8.628591894033264
Sc 17.389762641547527 11.772297395397697 13.273384652204191
Sc 7.789196905346252 15.25666037030177 10.195066737673937
Sc 12.340475670806695 14.17182165377073 11.887314564034245
Sc 15.059146398225892 15.538244785978478 13.871588873986823
Sc 16.295484153843525 10.58399578749489 10.633990374774871
Sc 15.312132834045567 13.454644600311497 11.731152675126879
Sc 12.994544834527858 16.90609934840065 11.871851755401579
Sc 17.78048777290104 14.77836038695992 12.895708094095829
Sc 9.275205012009248 13.493253249941876 8.229447322830536
Sc 10.74591575670607 15.749496464549502 9.84458595551198
Sc 14.79087022442615 12.16402777895243 8.87403504269925
Sc 11.819838968711506 12.424361106841548 9.374733941326054
Sc 17.405021569123345 13.530513939278858 10.029743099983998
Sc 16.048067090213415 16.257735614986178 10.990041771846984
Sc 13.754101901818686 15.021792094550836 9.395008725817755
