41
Energy = -213.63519342 eV
Sc 9.107397923016725 14.114896663764481 16.09767818941791
Sc 7.56338568222642 13.387428415101457 13.538427415225277
Sc 7.949660094232377 15.173564713510679 11.105612162625816
Sc 8.44162800932877 11.022793151208191 16.146181632366112
Sc 7.3464666864158295 12.242731266187487 10.286594022956132
Sc 10.998233823879373 12.430239202139363 17.51451163082635
Sc 9.479829186139492 14.30786303828058 8.574172465858048
Sc 12.08360367105764 15.016308797383545 15.869499526425553
Sc 9.540157533599405 15.876499351443133 13.695396077270173
Sc 10.336171889743946 11.959785073196386 14.443024955837107
Sc 7.9567051603463455 10.586274801538748 12.93773465178503
Sc 10.868237824530345 16.049010992240245 10.849599499947535
Sc 9.814163994354296 12.73565939400358 11.410933505485232
Sc 10.301393776246153 8.8853080439717 13.723284225016716
Sc 11.466836299681939 9.761696697503885 16.468048528011256
Sc 9.867039131735512 11.472258273372647 8.473241712360428
Sc 12.490658908036176 16.992462045700762 13.415643934230413
Sc 13.149038972282046 12.0450746985021 15.23816365954128
Sc 12.346243708033443 13.262410798274223 9.639082444825522
Sc 11.96071489665313 14.175833553555004 13.017769157025347
Sc 9.781037323054951 9.588645246794552 10.758714242473292
Sc 13.194426386622013 8.751198061728157 14.295649098791694
Sc 12.091427867174408 15.87626887604413 8.07260407265408
Sc 14.097036739129402 15.723315209268717 10.874210923362623
Sc 15.168805134457376 9.811849459119586 16.253634286602434
Sc 14.692277157133228 12.81999896644984 11.599782293334844
Sc 14.650555334586869 14.781784630267213 14.058055563448283
Sc 12.26237985629733 10.818727127125348 12.16494452530854
Sc 12.281255090938844 12.907472938727063 6.928453082785786
Sc 15.348092982868437 11.090996483203476 13.689580642177932
Sc 14.683787926116128 14.640861746833895 8.061068115381058
Sc 16.036855173148844 12.784872279185675 16.093489240716462
Sc 12.426030808292552 10.13521293749848 9.077312727135116
Sc 12.562019116698206 7.880681302375733 11.549150527066136
Sc 15.9992938218843 8.353115514140075 13.28009552405754
Sc 16.863125239667045 14.074649814191421 10.143338104203774
Sc 15.091847034082 11.847312307621452 8.746844458405072
Sc 17.91406721313808 10.666752497018823 14.710800247322249
Sc 17.327457666761507 13.426654361742132 13.296009657523122
Sc 17.339063645179273 11.095288673115197 11.420426923013364
Sc 14.81700076505207 9.647578742439789 10.764158824791885
