45
Energy = -236.47347274 eV
Sc 14.977691726407675 10.696627538502037 14.493330428618053
Sc 13.931778391556483 8.018498656316162 12.959858394243225
Sc 17.580558265709946 12.254514723826063 13.271014040608117
Sc 16.847508607437433 9.320960691358511 12.637755533686054
Sc 16.353752542259063 12.799212807217563 16.171672087835837
Sc 15.665598710846602 8.196192022541341 10.171301379500846
Sc 12.118708625119634 9.566005323561598 15.729649149122674
Sc 10.819633251610112 8.230725556796322 12.811565460346545
Sc 13.456188708347439 12.028384562371425 17.1697608515337
Sc 13.809137202565015 13.448852901910502 14.593494065107897
Sc 14.223985035504446 10.302879946162598 11.350799766014104
Sc 16.43471370395538 14.985929747606164 13.944830250292116
Sc 16.849692529558137 11.278327153127982 10.231821732035204
Sc 12.49559259018359 8.182750802032913 10.04236164750997
Sc 14.007424068305843 16.683847497695908 14.018000912588631
Sc 17.539404069120554 14.657052976893072 11.094385841533768
Sc 9.968725064521276 11.537373398331138 17.56836732165172
Sc 14.230222129904048 10.612740712048259 8.330294587825806
Sc 9.422649104352537 10.10501755028692 14.713214068902495
Sc 16.856614344317105 17.55452065415956 12.515309981348748
Sc 12.141467454576421 11.038198000445488 13.268942374676215
Sc 10.696041303770512 10.45125028976614 10.7744985721084
Sc 9.28556498965379 8.20534117110177 9.996907617658724
Sc 10.919537013495226 12.667674084290589 15.331943211556572
Sc 14.774567675822903 15.995933114358067 11.199113994042207
Sc 11.083039749621356 10.311440923177065 7.990273122986358
Sc 15.082220737622023 13.699374271764636 8.912028717447424
Sc 12.568202860968686 12.52905671001948 10.031692508201385
Sc 9.865179701542534 12.988418402902234 12.326764025045273
Sc 14.273609335581895 15.098080468728844 16.799291908660344
Sc 15.12374941879776 13.106142008641275 11.91547238113071
Sc 7.72580363420522 12.614072677159584 14.354854560807143
Sc 12.45302177182206 13.015806154000472 7.210545507147087
Sc 12.315306253510789 14.582778341824126 12.30287546016447
Sc 8.03180044484649 10.401719075752453 12.11278941342612
Sc 11.465751810749975 14.191216634743576 17.891836852434043
Sc 9.847270809987492 13.295159362742694 8.983468216645255
Sc 8.168578078874704 10.914444851943797 9.183065516123019
Sc 12.2615704038797 15.443282021087139 9.314676305016045
Sc 11.376284639814248 15.617130617391739 15.071139382107082
Sc 11.542571460347169 17.318902991988907 12.296648978989351
Sc 7.349745571605407 13.424529775490274 11.18754035790833
Sc 8.819942119098588 14.373764955746339 16.54765496340396
Sc 9.618127941011034 15.607619215488892 10.731760840747215
Sc 8.67648232959888 15.523690018100604 13.541530594220085
