47
Energy = -247.81210223 eV
Sc 8.722955294698979 8.895004187902916 14.982294707451704
Sc 11.125001722281185 8.151592467366793 13.302558092580949
Sc 11.450619475391854 8.268529525634436 16.23569905459717
Sc 9.995837031116498 9.7633308485418 10.9549036896656
Sc 10.350392739154373 11.140991977507973 16.571653460241787
Sc 8.45126189644697 12.730085565894681 11.630557466385119
Sc 9.817349042308798 11.10994304730609 13.60811378028852
Sc 14.145895006446342 8.13057184025944 14.303880539927677
Sc 13.251395627693173 9.088044801058235 11.316845206462615
Sc 12.545048609403594 10.502439965510815 14.437894204568886
Sc 11.858799018834143 12.03421299276834 11.633834172438341
Sc 14.103605482185628 9.803932822062174 16.85421107094543
Sc 10.091410985503298 12.36835703241456 9.140227352288491
Sc 12.881623705384005 12.14042108301977 17.8828456384936
Sc 14.931081709566346 11.193032822631862 12.681884473176671
Sc 7.997151947112984 15.97012188776781 12.800853116031501
Sc 16.533873494810337 10.04816917880792 15.03250155820936
Sc 10.481516899036196 14.742712023719333 12.657005635506003
Sc 8.699303987610225 13.569967906818123 14.98187976654663
Sc 11.760628682434328 13.45957252056459 15.019638280257734
Sc 16.31858084621603 8.608479252986251 12.205015831603982
Sc 15.797664319675063 10.556552209387663 9.841661127731689
Sc 12.771967762073276 10.87921353423808 8.846570356920793
Sc 16.035306449374367 12.251755323367547 17.81179292777247
Sc 14.325964734737958 13.2236835052621 10.241395638707747
Sc 11.890199036632971 14.851181347463102 10.17471385592239
Sc 17.857062236790497 11.231303133828954 12.467119390325161
Sc 14.099594045706441 14.681887033185737 18.198182358540436
Sc 10.877957592341401 14.376702078151773 17.601254062813002
Sc 13.644286121059006 14.940901155679512 12.785502722765303
Sc 8.901111523088185 15.135253589162044 9.856191169452135
Sc 12.399993659186496 13.593440863086874 7.544867922747178
Sc 14.741784855550733 12.739580452481254 15.40430187104037
Sc 15.395704761155939 12.792687003219939 7.615961619115796
Sc 17.874469611653765 12.724655207721872 15.327015209658233
Sc 10.266222505627423 17.356932464945125 11.050591951503234
Sc 13.165484508460434 16.10255073845327 15.812970570369659
Sc 16.214096007241604 15.150880170738645 16.08281867052945
Sc 10.094968509973212 16.195669549592466 15.215741942970341
Sc 17.22130348632761 13.251759036491267 10.09427030745144
Sc 16.002320185471255 15.991709757640796 10.822778302757804
Sc 13.401035264632501 17.439388048046467 10.716387684680521
Sc 11.196706769000036 16.516039323389524 8.072641002210421
Sc 15.250898566412031 17.126324315050883 13.610271467134679
Sc 12.134320720237922 17.551380928997137 13.428635011616116
Sc 14.309078597266739 15.629699646189662 8.340828897040094
Sc 16.580373294905854 14.080144751676427 13.055160693418214
