49
Energy = -255.97874288 eV
Sc 12.831525713571514 9.169846618772926 8.26881315915936
Sc 11.108255775041389 11.622539100164248 8.350768033577513
Sc 11.847885811986869 7.592428804848615 10.68615128818456
Sc 9.865831895916628 9.738087112426397 10.25119511572433
Sc 9.260853761541558 12.845126837994975 10.365748185361042
Sc 15.569234580117712 10.415459023735531 8.652494589267514
Sc 7.7960252834380865 10.79899378595425 12.340156907636354
Sc 13.815206300830466 12.720261199941254 8.172671005989857
Sc 14.771766608952007 8.267808499404438 10.656963515486117
Sc 12.918620108102544 10.628469181586933 10.721926463612654
Sc 11.568626920088674 14.598872518082496 9.31218845957187
Sc 9.917581035270517 8.625897786873706 13.065284766225856
Sc 12.969079115123806 8.607501777674708 13.214035872155721
Sc 10.645935177194378 11.521980564652091 12.912798806731098
Sc 9.295482251029394 16.159333100746675 11.178309533108704
Sc 8.239713377829036 13.790583033121536 12.823175118018796
Sc 12.01662807585352 17.27429707056022 10.474196382330009
Sc 16.12214573150245 11.0407511568826 11.482115439359214
Sc 8.826770839125126 10.50571122603339 15.179543984483614
Sc 16.49104275940946 13.448965277479873 9.447272112445878
Sc 14.380227558949281 15.738948525477156 9.161936064235773
Sc 14.05678121341609 11.353999361050697 13.858070602956264
Sc 15.954346964640969 8.865204017746073 13.531064855541986
Sc 14.075425011404256 13.51737933657501 11.266739563484117
Sc 11.317012050659438 14.694586907265357 12.447023291861885
Sc 11.623827230534912 9.76758614978052 15.779494825985372
Sc 19.252632125984597 14.022808279031468 10.66071910044832
Sc 17.058871209905227 13.717895683841656 12.611537777860864
Sc 17.017027740678646 16.15362255089667 11.100336176307703
Sc 11.803233783765554 12.798691641202792 15.692767114084786
Sc 8.646763281344334 13.292121456290152 15.560594219144676
Sc 9.278702987000578 16.098550758748363 14.63153296144041
Sc 11.18835349654423 17.867216154213367 13.329102521976285
Sc 10.041046416746513 11.895042782245788 17.827908360293367
Sc 14.11606158139421 16.427683538203276 12.323965236062918
Sc 12.858869326636329 11.245893584025065 18.230584628745152
Sc 14.728963721034217 9.750991841399676 16.191671703604513
Sc 14.905903830264446 14.272909900997215 14.400406944813248
Sc 16.90792382021546 11.54073593848685 14.787132479455583
Sc 14.971922517317477 12.785547147460584 16.876241855654996
Sc 12.362145375102745 15.661224502046908 15.065312836791756
Sc 19.33582256788584 15.540618396618543 13.151615080318816
Sc 10.10021686615443 15.06792290242036 17.363357902286488
Sc 12.750604626787373 14.445849355697526 18.100285504216302
Sc 16.677966493554663 16.792396577250233 14.14356694875351
Sc 17.58077029407017 14.515886649474636 15.74025690925989
Sc 11.716835327551653 17.68209294272704 16.72985393581079
Sc 13.912625859111138 18.308149943350887 14.667468092715737
Sc 14.914500406203677 16.23926583160196 16.671558430388025
