45
Energy = -237.35624889 eV
Sc 8.961364341544588 9.912441819545204 15.93076011896524
Sc 11.926107883435039 10.57625130441863 16.745475163086738
Sc 7.735987909624105 12.14174516454145 14.12667114178981
Sc 9.891579273134717 13.016374901614176 16.23818084924869
Sc 12.81573916581213 13.759580688520602 16.914259536479513
Sc 8.614092313299796 9.425275040155848 12.914582197495248
Sc 11.029793008494476 16.40091765724607 15.612666013067226
Sc 8.771474056471053 14.924021164103765 14.214397457034607
Sc 7.25924514009387 14.724120773018155 11.519017175314273
Sc 14.23385411952564 8.880247142545942 15.258097213362086
Sc 11.310449054159477 8.294148254140199 14.532666383082494
Sc 7.212480861689893 11.618050683234664 11.182892687695665
Sc 10.7210899286342 11.182341226680597 13.969483135839313
Sc 13.845699142531618 11.72224749715852 14.775687889803457
Sc 9.58984404127784 16.83291581384312 12.27041446194798
Sc 11.864708340567546 14.138575289111511 14.063477198370201
Sc 14.198555796352428 16.041684417528653 14.941866325384138
Sc 10.93576109322337 7.916053917705493 11.6305511049109
Sc 12.34556583038805 16.996909319662922 12.898240746085792
Sc 9.634102929661932 13.109452339140237 11.884047596773474
Sc 14.960965704621671 11.180872467276155 17.38432359906724
Sc 15.983269507578882 9.463116392419765 12.935451299914734
Sc 15.700894834755715 13.842010528629094 16.20811413016378
Sc 13.87381424380913 7.271623813826567 12.229382442624125
Sc 13.072498748201577 9.899930008934872 12.32064091093925
Sc 9.315188795741406 9.756100005721864 9.81395268468186
Sc 15.05870886169707 13.775839920849082 13.174826542505171
Sc 11.589935357842938 11.59067525034422 10.120035911824088
Sc 14.93393630650214 16.380514142009552 11.693806754611806
Sc 14.734836387526657 12.134869251500346 10.838117095219898
Sc 8.909848342614875 12.695768616772327 8.907817585005136
Sc 9.764221489509787 15.389816629417256 9.824122938245672
Sc 16.87838516023817 11.52127118263168 14.949657077437138
Sc 12.535169025040153 14.449628678898192 11.103897327953307
Sc 12.48998774470776 8.846986723453854 9.300578059926554
Sc 17.480767732852158 14.748588617291913 13.822156690926276
Sc 15.417855217095418 9.427855992652598 10.022266378821415
Sc 12.33661471518591 17.005149828333053 9.824243291176584
Sc 13.882058752779216 11.487200066284371 8.05791483693644
Sc 10.883572587140362 10.814275991599937 7.390200496629824
Sc 16.92774915583283 14.406586163168578 10.779630151193002
Sc 11.718529601202327 13.873530685781532 8.127824589186181
Sc 17.556692251945073 11.830854665129031 11.93305076362434
Sc 16.87436851623479 12.066137123321775 8.900810198547937
Sc 14.622601344356836 14.595179252913141 8.912769588621378
