48
Energy = -252.38067932 eV
Sc 17.958538638739395 10.087140062018534 13.39429722722878
Sc 17.463490871804407 9.763266944771 10.307568613902541
Sc 15.561921079979559 8.388885281150179 11.920080879592664
Sc 16.012182840854077 11.645778401861012 15.513148889205846
Sc 18.197154992021833 12.654020805611514 10.85857087549677
Sc 17.56545517419041 13.554562191650676 13.838183002896757
Sc 14.740671568911072 9.150366199700654 14.706310059922178
Sc 16.130510240182357 14.478877077385729 16.609472411090433
Sc 15.83829555130717 11.37192583698418 12.356775622568902
Sc 13.630195741680614 10.749507087231997 17.054669291339156
Sc 18.10107825431058 15.530698843235209 11.668479381803035
Sc 14.686488074890855 8.846100554356914 9.124591319053001
Sc 15.720716588483624 11.86512316567011 9.041557416935296
Sc 16.359052041199213 15.197280956665066 9.026168821026461
Sc 12.63337425304374 8.422370983767246 12.659773428750356
Sc 15.361619080950332 14.099336114925602 11.297651615263508
Sc 16.74011796523653 16.64430390084304 14.427958931531222
Sc 13.220166280205365 11.679458608430568 14.045962108026554
Sc 11.3734353088885 9.527661682033912 15.251269882165937
Sc 14.564276955280247 14.72118548787229 14.098847226945583
Sc 13.073094392646885 13.648800961238994 16.600797433714686
Sc 13.341296379309242 10.923302451842579 10.835049680553759
Sc 12.755684233924772 10.792465829872052 7.877473909790874
Sc 15.776068576728454 17.051014293554896 11.618260737777055
Sc 14.013061267671187 16.662659026906315 16.37425105142121
Sc 13.262320174382298 13.752112265081447 9.031554633183584
Sc 10.576280420862055 11.684710026893343 17.347530276072476
Sc 9.33974667659591 8.164519769543938 12.455917473192294
Sc 13.443160682878666 17.491445266138477 13.3382528967229
Sc 10.525671900726005 13.024003204149187 14.849945119997887
Sc 13.07554744936011 16.42437381572418 10.477224709343373
Sc 12.229170965883652 14.044001289995078 12.071402950221508
Sc 10.622353753199079 12.074048059254567 9.628051965856887
Sc 10.499365697561087 10.631314589415252 12.35309854353
Sc 8.510648275479571 10.709559949596445 14.85983646224136
Sc 11.52306449955973 8.711214527808416 9.953487164082542
Sc 11.6517327888806 15.688913903536447 14.755410106327506
Sc 10.393066272375746 14.905126029474824 17.380048676079387
Sc 7.9588118551444476 13.22982427401394 16.520625574058656
Sc 9.343471826170196 13.5104837225179 12.111360526139581
Sc 7.452881167267561 10.666756244739995 12.074549997996057
Sc 10.339552741901352 16.625760438480707 12.17873417566432
Sc 8.728194272289683 9.77041675091299 9.699560057994319
Sc 10.160837021226087 15.078224164058849 9.637956851026818
Sc 8.571879569615996 15.474842304398045 14.498683283856536
Sc 6.830594418824282 13.157990241803994 13.590387273714096
Sc 7.568252935092589 12.73242932642458 9.881796493371638
Sc 7.471295081309439 15.533330779638295 11.483131555661611
