43
Energy = -224.91324194 eV
Sc 17.35322606144585 13.87322001657212 15.732418325045517
Sc 17.004428457543323 14.128351820007198 12.401744470553211
Sc 17.454909259133448 11.428232817840776 13.884444366291984
Sc 15.733034849456057 11.308792552509457 16.46218910333101
Sc 16.827928952318377 11.545632797561858 11.000736165326776
Sc 14.699905628478279 14.723228671343822 17.002638106923683
Sc 15.9031941857803 8.841042185953642 11.621903818942393
Sc 15.74280972275871 16.3017279305057 14.36020508367838
Sc 14.707608194580692 10.61070137556044 13.552372928054227
Sc 14.92781742750876 16.07361977624585 11.207348431273736
Sc 14.796339473954745 13.355393264649951 14.438591578928646
Sc 12.805070957708667 9.910141829536641 11.419538066743844
Sc 14.172237483395115 12.971422787855657 11.342807693879983
Sc 12.980232561126146 12.269288864756042 16.975295897857897
Sc 14.707330213313876 10.523402361474433 9.250666987593563
Sc 15.842761084409917 13.696973907190255 9.151837356738278
Sc 13.176424858577723 17.199001808978398 15.861996502774838
Sc 12.999015104376749 9.636943828821854 15.87346012588431
Sc 11.579702567069337 14.609783299949742 16.041854934940147
Sc 13.426422445101945 7.703426448007723 13.261598801647159
Sc 13.746624263375514 7.451619844924398 10.077971798881821
Sc 12.988511317291811 14.944934033840264 9.189520933649868
Sc 10.889456029480838 7.4541202976356455 11.258725321569855
Sc 11.818922151746502 12.002987260719454 13.963555909006239
Sc 11.923158401816478 12.151203446181682 8.96796562220986
Sc 12.921478611804956 15.435657655180389 13.37168025037045
Sc 11.461096396889994 9.189023132042125 8.682399313813818
Sc 11.142756952883595 13.816884046935106 11.487543407151655
Sc 11.807547402926076 16.97212782333848 11.020936808455485
Sc 10.18142029387354 11.540011204575812 16.18664325906106
Sc 10.694344371708867 9.11374313801335 13.99986799361801
Sc 9.921773415042779 10.634838595509214 11.19082839516869
Sc 13.527549109068188 18.3120300171717 13.157347886373806
Sc 10.688393005925358 17.126844924361624 14.00933999378316
Sc 9.3707389633317 14.199651420586049 13.976124944258654
Sc 8.128006270647992 8.369285119902163 12.48202347953051
Sc 9.913650180361222 14.556701111767083 8.983672775060986
Sc 8.569349795878 8.45338170448253 9.455943068489772
Sc 8.868149371545815 11.463269162556621 8.552392756492
Sc 9.054829601410102 16.089618065796124 11.492027052371094
Sc 8.367504835497327 11.296088092688294 13.617234887742194
Sc 8.175127965852825 13.247038105245155 11.143563481383676
Sc 6.906776716060206 10.522047400480254 10.851981962469191
