42
Energy = -218.6150083 eV
Sc 12.913620092531856 16.836941587040087 8.79505358414769
Sc 16.46712238025302 8.797794941494253 14.117397643536451
Sc 12.338840741708427 11.067432954729385 13.790647440668874
Sc 18.024298287776375 11.134213986627465 12.858779550268649
Sc 13.840073621321515 12.851877485284138 11.476673774687583
Sc 8.79539771258437 14.639230683036407 10.819171922576876
Sc 9.098031135259427 13.471936718588973 8.047653323687364
Sc 14.87294290860922 14.44449428681308 13.84585664140274
Sc 12.879071242821608 16.777249966397655 14.238469903952115
Sc 8.195471587456153 10.228525425265586 13.263955115633106
Sc 16.300691223066245 13.916064905715068 16.910805307905573
Sc 11.439889553795043 16.375940801363054 11.47413359681639
Sc 14.708835211764521 14.564486101540643 8.898717555734686
Sc 11.785717154348571 14.05907411887562 13.482207024488456
Sc 11.84710353063086 11.098563531224563 17.052760139388496
Sc 10.700676421271794 11.168821504212236 8.785847932776463
Sc 10.115929664969393 16.251859359394512 8.405921128012714
Sc 13.595866341889376 13.074969789011663 15.866544078819123
Sc 11.703487394324194 13.988789673280552 9.720644195070841
Sc 15.008931301062931 11.024231326663514 17.398431842213824
Sc 9.372107062707736 15.46927806954507 13.839018434993381
Sc 13.703206136762837 9.025592512904483 15.663053346604281
Sc 15.607957208014573 10.249093095433475 11.16860574981301
Sc 16.168605482875254 16.663515388618702 14.672370980639593
Sc 13.476877780376906 8.4091247852498 12.868455645589476
Sc 17.66682090846388 11.190490419205457 15.832630958532182
Sc 10.134593803771596 9.0632445684786 11.432901708715967
Sc 10.704985719849597 8.913753359673322 14.541051297081552
Sc 10.22720201851376 12.092381518650019 11.871379326676994
Sc 16.68458379048492 13.525735337334833 11.273268426505686
Sc 9.759611921230356 12.286936266904307 15.04518510066239
Sc 14.559332990333722 16.12295646857075 11.49984742752239
Sc 11.234273497339544 14.642853849692631 16.525371133071598
Sc 7.540034586295788 13.102190032070936 13.04602014825001
Sc 15.299351486558 11.385893875126488 14.016491050040871
Sc 14.045666436226668 15.91967694942783 16.762173719632692
Sc 12.692294723081952 10.17041602534645 10.650524389041653
Sc 13.529022274237363 13.478555469321698 18.60496620795455
Sc 13.903553865981683 11.826885295706516 8.598924432373837
Sc 17.77683723041748 13.789286689418379 14.236418909665998
Sc 7.923711747929001 11.49874755360374 10.303901890890613
Sc 12.08647974335089 14.195257214262858 7.043482806179241
