43
Energy = -224.43750682 eV
Sc 15.88331093009698 13.602588457464542 11.257932472103512
Sc 16.271482942197864 16.023518418129168 13.292643894514077
Sc 17.019108725114844 11.309804154760252 9.683201509540238
Sc 17.82164097125789 10.371415063999967 12.364853558813401
Sc 14.117096278419117 15.854699698345685 10.612026074690538
Sc 18.113427278363766 13.226461085132563 13.198829623057831
Sc 14.39945069384772 13.066923346231942 8.644803949507976
Sc 16.43243905936516 14.011184395871789 15.457287781929805
Sc 12.94957519596514 17.138069384954875 13.305334564154327
Sc 13.98152806220491 14.358212715616402 13.487108457346602
Sc 14.72978083790613 10.024835026704407 8.144308367534853
Sc 16.06271857605068 8.470786505286272 10.549898440814292
Sc 14.255758885000422 10.683951857871735 11.022830505250733
Sc 14.15628900974017 15.864199786825667 16.027738390479712
Sc 11.229688946334347 16.503864246950553 10.888899157890885
Sc 16.00594680762029 8.671180948770319 13.768289680852776
Sc 12.660107616950885 13.321971704430595 11.144521152601131
Sc 17.245630655576942 10.977845830579504 15.521049945271075
Sc 15.39810911818419 11.687855983485717 13.685957043235963
Sc 11.325585950788787 14.401959902726603 8.872266058575493
Sc 11.804995231962105 11.189942374683183 8.880294846130447
Sc 14.426504353387886 12.345801623523958 16.790844086674525
Sc 9.995159220666494 17.940480985934528 13.087046244446325
Sc 12.415011708326908 11.258493191395681 13.58456541848505
Sc 12.879945270863189 8.226845016110989 9.650465310412518
Sc 8.924549513729206 12.719181037719386 8.13851818588311
Sc 10.758152407225824 14.636171118532083 13.17019397457656
Sc 12.090522369721104 13.682096212254153 15.678305682076823
Sc 13.838470718193008 9.553407650016105 15.607092876816234
Sc 9.725067553284049 12.259523048404333 11.01090230588715
Sc 8.578887536840062 14.976222235226611 10.642567710400872
Sc 10.869393389215789 16.476436079483324 15.516177759853012
Sc 13.300102364192453 8.21983295707893 12.777611184637841
Sc 10.918300496025587 9.534779096287652 11.560604250599503
Sc 6.8663622203700365 12.103388877186562 10.213264542456129
Sc 11.287619560248595 11.087756446530356 16.630980412266602
Sc 9.658976767807586 11.736948455336899 14.153001556047773
Sc 8.215104073180443 15.780820025106262 13.756700384562746
Sc 8.908678210247883 9.870039910556763 9.326475596891992
Sc 10.677555858090287 8.909187457581028 14.52285327173684
Sc 9.099108819499305 13.896687076401564 15.982754869003815
Sc 7.3054804257305035 13.069509805899633 13.085899486672352
Sc 7.950716979559254 10.060071252666978 12.300544719298728
