48
Energy = -250.69002568 eV
Sc 16.853095850646078 12.021344796913125 10.200796973828337
Sc 18.123592561534004 11.184994070258615 12.949175341208031
Sc 14.668769117267257 10.337992677115958 8.943915152858914
Sc 16.253320620670458 9.094388125137757 11.341446015322877
Sc 17.880358192142886 14.330418344795067 12.120383233503595
Sc 16.87130906505824 17.356732516732894 11.947293592268522
Sc 17.09257770009846 11.322288468168095 15.921219405891417
Sc 16.342771817229345 15.207860687864288 9.556001171798862
Sc 17.97867130297106 16.171609297949992 14.584775425473147
Sc 13.163272062262731 9.398656542410464 11.316494403843143
Sc 14.742423196980175 9.117027795205356 16.411920360723585
Sc 15.14761824355715 10.961131331394386 13.350576243354105
Sc 16.991481074861035 8.695452950540776 14.323254208407311
Sc 11.310282723101274 14.203762503509434 11.181244563664778
Sc 11.908991741923588 12.05063331631142 9.003241275230861
Sc 16.64531371426893 14.60117413092639 16.870715240603058
Sc 14.028720515093088 12.641269714462618 10.898241335780302
Sc 14.12151253147716 18.700994230912087 12.590870441721195
Sc 14.527178711172663 15.600512791360835 11.965626292419616
Sc 14.08471509470269 7.855931722619604 13.659751042540766
Sc 14.865009653778083 13.041662326632744 7.977232362216788
Sc 18.905066610827674 13.453503893858747 14.926427954686233
Sc 15.89554144694718 13.857690869752942 14.3250058934347
Sc 14.727369897692801 17.787905855616533 9.797561738915716
Sc 15.131723852114954 16.811780185736797 14.830904242637079
Sc 11.953993512578446 7.716475405236343 16.02047556066545
Sc 14.297639815166956 12.246787754559085 16.601754890307333
Sc 11.333316229909528 11.428123213034993 12.050365575750972
Sc 10.635315970182837 8.544635206956569 13.30959454120679
Sc 12.412778859500975 10.360309845892436 14.76972645415313
Sc 11.998798183645269 17.10639304584129 11.081992097360414
Sc 12.189868467229594 10.19724336114884 17.818011387046763
Sc 13.060059089061243 15.186140245273895 8.962982245522126
Sc 9.130204390945513 11.43599884739146 13.819455226188593
Sc 13.27234703488185 15.03343759589458 16.452111077445682
Sc 12.842412319952969 13.518465984576 13.832918399010874
Sc 9.677576977208455 9.79022009642792 16.161094138659077
Sc 9.544429239239008 15.754835169014784 9.651007535917843
Sc 8.732719178261792 12.681437451530167 10.843993451893782
Sc 9.59983799116315 14.336876154699798 13.594532433506803
Sc 11.02734651682914 12.786202580792159 16.184443094158915
Sc 12.138154438025168 16.56361951498823 14.077096804358494
Sc 9.407939676380906 17.18036247983807 12.621767177963992
Sc 8.039073600254982 13.222765614390324 16.077278082666353
Sc 6.5555050714038465 13.074409365833723 13.44870619198964
Sc 9.972961348636918 15.737795782964735 16.18859541667734
Sc 7.339213183808033 15.2364152318819 11.606870851324269
Sc 7.199157306220763 15.8212031777413 14.602228717711679
