41
Energy = -214.19807851 eV
Sc 11.493869604313064 16.803105564263863 12.245042048739403
Sc 13.854701972375123 16.36137216281164 14.303641474381301
Sc 9.589459601285988 15.958359826350524 9.771280659348944
Sc 8.721548403606903 15.195307857628526 12.720608984064633
Sc 12.42264243779347 17.317291506362267 9.173345583821567
Sc 14.6295003438572 16.13154876762276 11.362368447405464
Sc 13.725633345753291 13.686818016286331 15.943148486307958
Sc 11.061024863058119 15.040379485398347 14.820340828257853
Sc 15.943235922466405 14.156002853089005 13.73537801322306
Sc 12.143643022570307 14.813212240380883 10.21042098147075
Sc 15.970038059569566 11.352243707662986 15.67166394999416
Sc 16.151485361359068 13.556259618435387 10.64888593618864
Sc 7.8601882968496595 13.46080310664661 10.27684471147961
Sc 11.455907507914153 15.00274822191542 7.367431712322922
Sc 13.160565031565506 13.817091537926348 12.903087054310873
Sc 10.836298022487401 12.73476662708305 17.291444618656676
Sc 10.365153971105865 13.048681620534877 11.709053280950155
Sc 14.41781193283499 14.831263305292106 8.339185738698383
Sc 13.576788018990822 11.24341977179358 17.74049153069215
Sc 13.481513697192408 12.191283302278759 9.974798832654102
Sc 16.03683453750936 12.197132704201659 7.990735199146846
Sc 15.011370584275799 11.378517873746521 12.471574025661731
Sc 8.41549268496144 13.79914046199676 15.565681363087434
Sc 16.669921761390313 10.231857979436228 10.473624335569149
Sc 10.584266004441822 11.954459826198395 14.562460814476307
Sc 13.054604286925397 12.17719317544837 7.06588062861952
Sc 13.336763621035534 10.838662536920323 14.788378008881516
Sc 10.423036815139202 12.464484943829575 8.713723256678078
Sc 11.858645247110845 10.362022894403653 12.000095608013996
Sc 7.85540462671123 11.997886672247649 13.193229057407512
Sc 8.38067432057978 10.951521599326457 16.21496700122176
Sc 14.363474374076587 8.707193599971552 16.505637072446255
Sc 14.511283290127825 9.813811939119269 8.543281152066323
Sc 11.204130014245774 9.569300143304513 16.494824821343276
Sc 15.5672197897177 8.845211797309753 13.692735561236947
Sc 13.94204540404109 8.457873423783893 11.111135123999345
Sc 11.605793365877679 9.690564768476051 9.00530909424982
Sc 9.512180493990572 9.238438685953467 13.684384110066953
Sc 12.472044205403945 8.02216391492086 13.89255964868201
Sc 9.059091442513163 10.423930663151022 10.75361143594835
Sc 10.83299262645981 7.71957259885718 11.22718642460434
