41
Energy = -214.29162458 eV
Sc 16.71996000110885 12.185669921247499 13.186116304034558
Sc 14.819253802655485 9.39745560293772 15.671956375751636
Sc 14.778769237021203 12.459866891761534 15.759032878666066
Sc 16.437122142464556 9.123127567722367 13.05633173788977
Sc 16.211140459356482 14.259345850642548 10.61166274546677
Sc 14.594383399232491 14.314269838493862 13.342550392301844
Sc 15.982677682104159 10.969090405460854 10.462951071140802
Sc 11.510077718403624 7.913584282058758 15.87246430994628
Sc 12.469527308907004 10.728827889667645 16.791215473772645
Sc 13.264404760233042 15.180655600197408 15.94515326632032
Sc 13.689844515630455 7.789337072752093 13.649625045590755
Sc 15.901467582063415 16.563864402612722 8.651617255518698
Sc 14.131777514506535 10.864787964830821 12.999811791359106
Sc 14.09986136747986 8.425579663509563 10.792119081352334
Sc 15.040794574516577 13.39424793057402 8.049271802113878
Sc 15.006396997101628 16.803744169084027 11.641682168717034
Sc 11.997588908714471 15.380794909327593 12.116534012013283
Sc 13.607831454798113 12.780201942189638 10.670826682142804
Sc 13.365061523079207 10.510896807841473 8.570782608819318
Sc 8.93863674490093 8.321058494164545 13.939119434092687
Sc 12.060542533503408 12.944666219204016 14.296156765385412
Sc 11.385674929861347 7.97867847339563 9.068570412245014
Sc 11.694166179940137 10.113540755113446 11.061925423186747
Sc 10.736612563232677 12.83535340285424 11.361263891114449
Sc 12.74613179045668 17.530863757663973 13.818001646767186
Sc 13.363899646504073 15.4545076189076 9.41398346813643
Sc 11.210280274514071 7.382187249421497 12.144303244260223
Sc 12.377128420059165 18.026367491043825 10.731330134418291
Sc 11.364858154738998 10.032117017945367 14.034939945521703
Sc 9.576405717376513 10.298299678363744 16.346943028185095
Sc 10.286591380056052 10.717956301824177 8.58295512307621
Sc 8.939081086024283 8.985151449498643 10.677166421800413
Sc 11.677802455426049 13.244005885408706 8.309138769697782
Sc 10.031277651593546 15.467338799919103 9.85981526112887
Sc 8.651190610231914 11.105983884926319 12.706028003808301
Sc 9.130493079367085 12.869820983917084 14.930215108785173
Sc 9.930649336961954 17.45421819841537 12.455068655451761
Sc 11.03069334363756 13.305215912231283 17.125951517656947
Sc 8.309532431624557 12.533715049999461 9.882231332298534
Sc 8.668349503713909 14.529650205809054 12.435312584393305
Sc 10.50285569927879 15.59022188162304 14.897836867288262
