40
Energy = -205.83106903 eV
Sc 15.690874126953778 10.769345078058425 9.408423616192263
Sc 12.682426244228681 11.903580051791288 10.188013098538898
Sc 15.15179756239942 13.720951480022311 10.27727763434284
Sc 17.28997725780629 14.943542438396728 11.989736886131618
Sc 10.840821287066623 11.63661446054674 7.744976664766835
Sc 12.371460715429432 15.041087998903663 10.338559717530842
Sc 12.96873384190949 9.55335009443939 8.318065355481822
Sc 15.098387605292723 16.880471536262384 10.792782332365364
Sc 9.847368640324184 13.084104638252185 10.172437189127661
Sc 7.89367105272112 11.176670098183344 9.333695310250713
Sc 17.6375481681096 17.999555708393245 12.06930559321717
Sc 9.596903333105056 15.580016812319807 11.919087384489185
Sc 14.010953552071873 9.499421872361031 11.246423945313412
Sc 7.209314777135942 13.476385361672826 11.296482639482052
Sc 12.343307712155294 17.111300650155993 12.623516777265882
Sc 14.422805084465933 15.039974482046985 12.989718215785327
Sc 14.972851453617483 18.485070472098002 13.271822443085115
Sc 10.539705645608201 9.842692561051235 10.090877249880595
Sc 16.68428221736526 16.468995514625867 14.529191163680002
Sc 11.469288083045255 13.424388552877074 12.870481605804656
Sc 16.99697810475254 11.709352901855937 11.88155981584357
Sc 13.651568091677328 16.79229953166108 15.478655079693766
Sc 8.68228490211624 13.729179882427037 14.110207433888242
Sc 14.265900392874146 11.9177444234256 12.973983933558923
Sc 11.688925744458171 10.154291347312881 12.984412318179118
Sc 8.871191194780012 11.237734794751617 12.347716145668006
Sc 16.435994077575394 13.32099509145739 14.63488614444991
Sc 16.65056492408387 8.665326439845881 11.753700374161687
Sc 10.798501543828463 15.8356923819977 14.847593222633266
Sc 13.09771535225768 13.56501503490663 15.572597590748472
Sc 10.519806906224625 11.573886089491312 15.356203533236368
Sc 14.186498768157088 8.087170747562855 13.71134575706345
Sc 16.204361384155014 10.130942339795645 14.422683605725938
Sc 15.477581229899323 14.946008030148434 17.122669860035682
Sc 10.106543044250394 13.969633818278243 17.02128589939548
Sc 13.309185370412255 10.379899620712894 15.601027752094947
Sc 15.31441809438545 11.949882950753407 17.174008661592612
Sc 12.576194495886073 15.242587875870946 18.04804962967624
Sc 12.349435007076734 12.208780154167943 18.130426605486626
Sc 14.542284219244504 13.578999245560041 19.68391395036925
