46
Energy = -242.23402447 eV
Sc 8.508767375036774 12.050154927768752 16.150254995538763
Sc 10.284216652877369 9.539962499180287 16.435421542351985
Sc 11.358229106849311 13.3856714790426 16.024152315863237
Sc 7.708547964892114 12.507068933400241 13.20104945424163
Sc 7.741742979820556 11.459384139070494 10.33237394780906
Sc 7.977523318450508 9.676615927070824 14.093194522003879
Sc 10.93629149977178 8.142975066358114 13.778733936518295
Sc 9.246374701703122 14.823830448539754 14.283090700669494
Sc 9.489421064924644 13.571952286845542 8.535887605662868
Sc 13.763660907361345 14.16878275843306 17.705814049305328
Sc 12.439518881308649 11.202761041462495 17.61688527010937
Sc 11.77189107426877 16.242152717923112 15.338310676894844
Sc 10.345103631681392 11.228669513843922 14.093262994390576
Sc 8.501366210783797 14.788119879009603 11.19515763801411
Sc 11.935029485427256 14.09015350644141 13.175706081935799
Sc 13.174845798582629 10.954997099103398 14.532796305399916
Sc 9.443478685787833 9.234193086721536 11.447365919260726
Sc 13.778742752850908 8.014534736382974 13.181705946925232
Sc 10.58287223406507 10.424639645904184 8.956580886493665
Sc 13.279561758145276 8.649900275450337 16.112324953506825
Sc 14.695877877607593 16.495925948182325 15.879514145334465
Sc 10.731282484437205 16.908699559364106 12.272590476227768
Sc 10.286217208935936 12.286498136404585 11.264243922851247
Sc 12.47169334173876 10.214705018454582 11.483774105357993
Sc 11.39389896174301 14.85024340263638 10.321875851865618
Sc 15.33490975668831 11.508058852683662 16.660513258573175
Sc 12.10263230442975 7.664531441983654 10.519943230993414
Sc 9.99564301531447 16.713729131197777 8.956866305207857
Sc 14.450661265450831 13.76019997571286 14.823435650946022
Sc 16.61980636530044 14.45959004449482 16.677732824191096
Sc 16.003016699497344 9.717277955525827 14.076199794658383
Sc 15.084377599457975 11.874083152820011 12.134986572876016
Sc 13.120027236194504 12.588124401718048 9.485577300270947
Sc 13.732436071634128 17.269675913104887 12.993453287880605
Sc 14.370018081162687 14.801115262388429 11.56544730441281
Sc 15.357171441089442 9.057762899374268 10.940099603288028
Sc 17.2365412263908 12.564498947240589 14.198250445150935
Sc 13.58243280287906 9.759905855661577 8.657947442545623
Sc 12.225753268958337 14.945044401143646 7.587953268770596
Sc 16.05826333937313 11.657905102425921 9.301148881804496
Sc 16.57607039634616 15.645501790413121 13.665255651328097
Sc 13.178175217424041 17.07715803235775 9.798100400974729
Sc 17.817751064841246 10.808293046917022 11.683516012405716
Sc 17.225743778806454 13.894205437410774 11.138994453966411
Sc 16.121561251426836 16.941168105396535 10.846209114893677
Sc 15.222141254279855 14.816663882235297 8.763472134919986
