49
Energy = -255.38524464 eV
Sc 17.307640048385867 16.208141626818588 11.933456503814627
Sc 17.726099534028652 13.224678376716616 12.727759353414163
Sc 18.074385207110925 12.343168374081486 9.859877023126383
Sc 16.560800202176974 19.168821233451702 11.505106709047517
Sc 16.952636267462996 11.944921688425014 15.257582537943398
Sc 15.734533084174418 13.95737461887546 10.398963515716453
Sc 17.24806940331197 10.325518802422865 12.141648735321716
Sc 16.746296663376494 15.04432258432878 14.8613100152924
Sc 15.228830410397778 16.960233962720203 9.934461666776928
Sc 15.774419043224976 17.821947219629624 14.085053391659324
Sc 16.001622716508205 13.700552252491569 17.900517666544804
Sc 15.685398779314053 9.352565821932945 14.636795254873915
Sc 16.082972349993003 12.78533151956603 7.607910895217212
Sc 15.216593789223971 11.038891856113585 9.83838957406689
Sc 14.883523834574119 16.326196512644188 16.90758540080231
Sc 14.885310900281247 12.03221485275238 12.852252341130475
Sc 13.866806014518328 14.785927606318467 8.10151622947309
Sc 12.658494986445715 13.177744254908228 10.57157871697887
Sc 14.204764438984283 15.458991193441753 12.656264520154817
Sc 13.612618993609347 18.41285127727346 12.079540548691476
Sc 15.027214552055453 10.779603380449073 17.172262195913717
Sc 13.990823656226985 15.318960471942253 19.570153725081592
Sc 14.080083628191357 8.990341986860287 12.256600284286593
Sc 14.128076732755504 13.531899237404152 15.61030877482259
Sc 12.264033059199798 16.292871387585908 10.10915797695972
Sc 12.990242702208368 11.96841376478077 7.759323707208474
Sc 11.008965425921906 14.38280370478535 8.068048114131908
Sc 13.164812869827024 12.629824709859198 18.440868715201198
Sc 12.263542435498108 9.678719220035607 9.941046222071966
Sc 10.790781824167397 10.978274242020635 12.381680087428393
Sc 12.938341980197498 10.768810344697036 14.725362483950196
Sc 13.054632858987656 7.917925074655323 15.02994416855739
Sc 10.158875448341583 11.780926756965384 9.22400797453911
Sc 11.947095261275182 15.142698357730355 17.191602248535215
Sc 12.877675917225005 17.114970094835993 14.873394721491225
Sc 11.2667584449012 13.958626638139028 14.02313748119382
Sc 10.791084298151139 16.72002580995455 12.629105497042461
Sc 9.805153602325237 14.349954651745747 10.993521662232316
Sc 12.374984322295678 9.543097912629 17.552874912055607
Sc 11.103039802750603 7.977348652797629 12.459727479128645
Sc 9.263422179436345 9.142988954593767 10.285784177116438
Sc 10.97251065317165 12.034273226632433 16.516411457052186
Sc 8.024681282580701 11.90707696969957 11.534165420648177
Sc 8.852968946672338 14.167457289315783 16.588369484084375
Sc 10.341347510645267 9.285836501750907 15.211814538570748
Sc 8.334224329335665 14.685635176337884 13.627456022688941
Sc 9.919839537479108 16.56159236950663 15.41231540617666
Sc 8.674375255498173 11.820246801241145 14.538896144033249
Sc 8.26066141029854 9.19157506561463 12.974424394600113
