47
Energy = -248.04239303 eV
Sc 7.788501903024914 10.564457251791872 8.95276247619651
Sc 7.7417650796224144 13.413414842300954 10.164114459293536
Sc 7.841585044886209 10.663267865132951 12.087721821579835
Sc 9.739638485600507 12.894048546182319 7.758331743895545
Sc 7.995896070988485 16.233802782087068 11.977656667379128
Sc 9.43832673263096 15.701578126212883 9.215245050899274
Sc 7.593197012749727 13.418266171664472 13.070643157111341
Sc 10.38148991136111 9.88141849020218 7.8030025096460305
Sc 9.61420135368281 8.54936635018691 10.563984148083899
Sc 8.056028271942026 11.439943335763507 15.361703563134215
Sc 10.242700748522076 11.548131503240427 10.318726251788053
Sc 10.28760396432576 14.399084163160834 11.71374265289018
Sc 9.623383490377485 8.936039339836249 13.962475505078555
Sc 10.291330217713476 11.845476593902436 13.595059885324877
Sc 11.518307258634533 17.145364490413158 10.934625955800895
Sc 12.20474891008916 14.480851070430747 9.074859221228506
Sc 10.403285467625938 16.843935412273446 13.717606351907941
Sc 12.892638558124924 11.631973553183084 8.053024620459212
Sc 8.662782544344516 15.075630854198778 15.114090317075831
Sc 12.70923358939381 8.934477893720162 9.378166412549797
Sc 14.96794107481252 16.64614872523157 10.188108556352391
Sc 11.970311731470968 9.54593285714988 12.157196236163001
Sc 11.176992968136945 10.382894739696027 16.291238775058073
Sc 10.284884999016537 13.189256518344463 16.51043688123582
Sc 13.165416603126086 11.92599964757273 11.072848673733223
Sc 11.588361398714996 16.048010132928763 16.48378618462691
Sc 15.427369999582254 10.0896135666661 9.79045635520423
Sc 12.17953359951363 14.343190331589692 14.374352807435557
Sc 14.35231268538129 7.524395164470435 11.693940825960542
Sc 15.326317654779208 13.41048525437453 9.76909416810058
Sc 12.810176620644107 8.28877019801885 14.65256394359071
Sc 13.36413145557641 14.921401001448872 11.68912309492428
Sc 15.093919279237276 10.114157196779143 12.803998832900259
Sc 13.243062158827474 11.458901559582587 14.424620668122778
Sc 13.268647789025211 17.213568188774364 13.632076234823094
Sc 15.357345045473757 13.316505582521268 13.038385473973769
Sc 13.14916610890428 12.980624670061347 17.03661796354743
Sc 17.336270464510207 8.629663131099644 11.927707756270967
Sc 15.841128908102645 7.78125509589019 14.436939275124127
Sc 17.48771116845041 11.752924766666105 11.54836782984409
Sc 17.523944744119806 14.885826676087449 11.081818427471955
Sc 14.71126161458173 9.914896383333017 16.41428260299489
Sc 16.030866063361294 16.27595573165684 13.0403688772364
Sc 15.945309323077447 12.623218398665621 15.962647706536742
Sc 14.776472948475902 15.28782707838204 15.576371105586478
Sc 17.44483984060936 10.573204820788096 14.465044551120062
Sc 17.962705142703822 13.926596271347174 14.026591778965747
