44
Energy = -228.25010281 eV
Sc 17.627083297201033 11.163736091262049 11.32387776603354
Sc 13.817861424068772 7.716933627686997 10.09617804668138
Sc 15.800681144539679 8.906282467069211 12.355595833795402
Sc 15.121883128448301 10.375959699141227 9.824610345256561
Sc 18.875944612811168 13.011032601425619 13.277364701466958
Sc 10.997080637160968 7.806749978087815 10.954127255994434
Sc 17.19737405249412 10.98881287650508 14.487112458341144
Sc 12.81395643296039 9.85843787976297 11.989738219576616
Sc 16.720997640382443 14.199882734226328 11.322701016029676
Sc 14.471479707408262 9.755294026678568 15.084428349686805
Sc 12.072723416436919 10.175628895636356 9.143872665402153
Sc 14.958168635326954 11.841319483453818 12.529033443189608
Sc 18.13298512001386 13.83402591329993 16.245312535694115
Sc 13.624666188913551 13.030043220354822 9.992773883066885
Sc 18.45887536634162 15.812168045123968 13.570452370550136
Sc 9.548397450029304 9.63315544292838 12.672855930469652
Sc 15.18567192910755 12.220275321727254 16.699197054332444
Sc 9.079203926343935 10.20513082117861 9.879941074860545
Sc 11.626449793335482 8.838459589297383 14.538305155047247
Sc 16.18354823680132 14.021839328975977 14.258534083219008
Sc 12.217317477099773 10.832427451243472 17.04397140659071
Sc 10.839901787541537 12.252843681525828 11.44452041717708
Sc 10.147075016854782 12.689318712908221 8.517740371838935
Sc 11.504750878250576 15.050518468988301 9.943003929329125
Sc 14.147595187346282 16.344486924282887 10.323565003467774
Sc 16.71161947665822 16.55128033836713 15.943500197243162
Sc 15.644999255635234 14.93061802531828 18.12007288531793
Sc 7.1418523581858775 12.448655446166557 9.139889633306987
Sc 15.50065862498151 16.74111588838425 13.131304359047332
Sc 9.730717189475245 11.318015724149003 15.01545197728579
Sc 7.899361389215903 12.080600548168386 12.112505957959817
Sc 13.179201298457931 13.39277165614106 18.59743787035567
Sc 13.72680280550939 14.794331708059193 15.782132260063781
Sc 12.916782413663642 14.849026787349231 12.681040943889773
Sc 8.729319495679905 14.545474377005347 10.581245082155535
Sc 12.540968696507148 12.07417630607203 14.438575500885399
Sc 11.493429986625431 17.992371294992257 9.802441154156101
Sc 9.899456802962911 14.150624082004212 13.690424544344374
Sc 12.78719685755964 16.295928177982965 17.980565466024682
Sc 12.799440175660285 17.94224820431661 12.602621401364114
Sc 14.004562811032324 17.753105172217886 15.579106459588711
Sc 10.964896750830922 13.726603233775466 16.59771233075369
Sc 10.210575415831162 16.73879069847736 12.158347425605715
Sc 11.345694511636271 16.526653403779033 15.088737173770724
