44
Energy = -229.8480167 eV
Sc 16.55894303973923 10.17743049032169 11.707567544350654
Sc 15.033805588461146 9.720022959362945 8.538967555936832
Sc 15.171382446556857 15.1815033621363 9.987591207497319
Sc 14.930107781507177 12.19199252948733 10.32344112084713
Sc 16.60577090738461 13.473622970002182 12.348978220999575
Sc 15.528908933660382 7.41760007019073 10.725820713417164
Sc 16.356296226138134 16.571295498420568 12.510242493674898
Sc 16.116868978759868 11.187805982753831 14.522982169781677
Sc 13.98984930319443 12.857917679168148 7.637361289615136
Sc 15.589467856077977 8.028097370631002 13.620852907967432
Sc 13.696109469839106 17.621773870484517 11.303587081147363
Sc 13.587457937669248 9.485213592186115 11.878846626697081
Sc 12.417805685638154 10.769384779985346 9.525355872693625
Sc 13.781281741352535 15.142272234966917 12.785387587907403
Sc 12.422094777801687 15.714981089526725 8.391039465887461
Sc 15.750923422718198 14.578187811780339 15.00939788881906
Sc 13.707514386293926 12.234277643070007 13.225374533497693
Sc 14.35099585284592 17.508365375936407 14.484311061935204
Sc 12.959125656356298 6.737954891797053 12.238902451640588
Sc 12.993161322751314 7.660060047725434 9.223995314358673
Sc 12.361934595519244 13.70874323082163 10.402094293223522
Sc 13.45577756920769 9.742798189096755 15.07165896605411
Sc 12.72607023949123 15.096325494095016 15.72109926840139
Sc 11.151277933110379 12.8568164779043 7.550397893331661
Sc 11.799704049678427 9.778222253077155 7.177365018474361
Sc 13.945767281252785 12.305882435196363 16.512463543662264
Sc 11.327441682544194 17.108450777553966 13.755047293642319
Sc 10.820419557885028 11.459085087170118 11.995317763722895
Sc 10.512273701414882 8.547153169048881 10.61118697525157
Sc 11.07772825036395 11.976131070929032 15.133745632624159
Sc 10.895705896880708 16.607665807099526 10.892394500863865
Sc 10.98750808981005 8.92744682391917 13.622451995268193
Sc 11.42000379582609 13.362004211692206 17.92967883036612
Sc 10.617252869822236 14.28166427860645 12.947682954185437
Sc 11.33971471044183 10.293964437046071 17.44462669481115
Sc 9.365851595513847 11.16494491922381 9.253382346155664
Sc 9.534780794492363 14.514583920293996 9.468309159436531
Sc 9.628757589365948 14.947964972424096 15.768848702831388
Sc 8.855933982986546 9.883806346174698 15.542677661843486
Sc 8.327476701963953 10.0467459683684 12.399897062745556
Sc 8.867442859587578 12.217021045229627 17.280185181865697
Sc 8.389731831645 15.794562150736546 12.654589456003992
Sc 8.062040842159428 12.955371651303036 11.377021157002133
Sc 8.144625937239153 12.665714673142821 14.25736089415233
