49
Energy = -259.73289329 eV
Sc 15.940247211548318 17.093545394410143 10.505489114713406
Sc 12.930287081861447 17.66520641236531 11.765519048373898
Sc 14.896170343441744 17.126729952821076 13.737657857059503
Sc 17.501885897301875 14.347113066784786 9.987308863032167
Sc 15.103905753237818 14.368149879290351 8.228347749811142
Sc 13.104980219135893 16.32339035086142 9.205026672753062
Sc 18.939607507143233 11.877917904469923 11.70534206826029
Sc 17.511286855959412 15.052723010070196 12.760697584667525
Sc 14.736542524529428 14.817978378104309 11.504616441806636
Sc 13.733433428857227 16.045258048906046 16.7909385913941
Sc 16.639978681189554 11.673329123856535 8.774789829191784
Sc 11.854504887541733 18.127595056469787 14.83579380388223
Sc 10.134931461996771 17.038824919244803 12.36647454654508
Sc 16.02412904732303 15.052738537328944 15.274663761029291
Sc 11.94485241238901 13.76610255462359 8.18980379086345
Sc 10.016431792457093 16.01116690861027 9.445780055108587
Sc 12.192936713473948 15.453587668746357 14.210423335475182
Sc 13.925925479071152 11.582053215526097 7.1133181549080815
Sc 16.324728113889748 12.249132796925227 11.886587149769287
Sc 13.888858652319039 12.26319013431555 9.96657264378994
Sc 14.172282762269017 12.954387987341844 14.023260182921012
Sc 11.65803248172293 14.496771263590862 11.321371311540624
Sc 17.34560412994242 12.486068648991058 14.752155901235657
Sc 17.11834795218256 9.453958017083856 10.72883480679815
Sc 8.488965666898217 14.556701352113587 11.918617794276935
Sc 14.404644630182116 9.457888292438271 9.196660246041626
Sc 17.371098833547784 9.775620353277958 13.554043212920819
Sc 12.146063611526548 13.398027783883096 16.400698849077617
Sc 9.659789669569236 12.865534843610085 9.834770840816367
Sc 15.056427276081893 13.075694757631823 17.211803027236652
Sc 11.772807038591289 11.469321080243546 12.100678114331034
Sc 8.9136578714134 15.867606610176404 14.781394427701759
Sc 10.863637570289962 16.065135889397492 17.03083435617605
Sc 11.581367914531656 10.659750916559068 8.990903320078646
Sc 12.143780159991616 13.74327428301081 19.041654394217606
Sc 15.102949737023891 10.457558530650308 15.545720020407098
Sc 14.494015817648723 10.065804898979732 12.34115005668836
Sc 10.050433432241137 13.170674714388106 14.08979182858293
Sc 7.1719253371436 13.159873149321516 14.364863023445324
Sc 12.030162307662879 10.824040266096862 15.099669669531668
Sc 8.675490540958144 11.240705471731955 12.270349642439344
Sc 13.223379000965044 10.842883155564472 17.98678179523409
Sc 12.174590915446952 8.45882096966377 11.173030929338559
Sc 9.014623523305518 13.619435711874967 16.93060204936562
Sc 10.474020138434144 11.210624754556592 17.90712863744808
Sc 13.270693302377882 8.193837875775543 14.169526839795575
Sc 8.8351517316028 10.750466748290672 15.435388134183084
Sc 10.394784180887196 8.867023648797012 13.616028688847276
Sc 11.37517246056818 8.545524124032566 16.58735406364153
