48
Energy = -251.09398612 eV
Sc 17.556549579915032 9.434166008363643 16.275215500116424
Sc 16.64804837045446 11.233174678255255 18.391392260286473
Sc 17.257814976394148 12.539531324679373 15.575026715371862
Sc 17.30353829827283 10.527234556788608 13.323160141923594
Sc 15.041973670297885 8.573524434281223 17.894906060255302
Sc 15.739113901879444 7.894380179831099 14.343504953711307
Sc 17.89170018682385 13.792303229866688 12.620591923961747
Sc 14.830397390483364 10.70833952407428 16.059626593645365
Sc 14.824081083150844 13.578715867680305 17.248111641083145
Sc 13.766762794188462 11.283432372047104 18.937275655903623
Sc 16.13262739761897 15.417054284020983 15.06931143934764
Sc 13.094295163004455 8.122271492113558 15.422727066953884
Sc 15.266615762653556 13.226057710398338 13.212750558628734
Sc 16.02539240891152 8.519488750642104 11.388837762564227
Sc 16.381913927120273 11.46036564933769 10.552791368049899
Sc 11.802677832857238 10.29836440351627 17.003594516978605
Sc 15.74539239348174 16.379905676588134 12.20554208261104
Sc 13.13736724376852 7.750781219217587 12.288696911483
Sc 15.935130716373658 14.268560703881896 10.301404769225835
Sc 14.117764629218973 10.267132895548036 13.021479869594819
Sc 13.090068794842237 15.766345922415 16.047363286948926
Sc 12.649549040235947 12.628305710923108 14.973011549570217
Sc 13.030948553559625 15.407303770523006 13.024797156225944
Sc 14.420226420383239 17.935608224525538 14.362424772931039
Sc 13.32074590525582 15.5541009696466 9.86076043686943
Sc 13.845232419766713 9.843460423747581 9.771019851232454
Sc 11.120481136757572 9.92741462839644 14.145226565324027
Sc 11.680110389183357 13.343016197450433 17.622753659949034
Sc 13.149769930439904 12.678414123158806 11.012437374582605
Sc 12.858614167307044 18.115869352823125 11.67542994158893
Sc 10.613611656116996 12.888234051011008 12.675510710928855
Sc 9.575147938397814 12.09389447622979 15.619150897793869
Sc 10.432780034914092 16.078224062255583 11.878592354189173
Sc 11.201573618927094 10.13184125169495 11.208460471389534
Sc 11.44952523749077 17.744478408560184 14.316217863336968
Sc 14.270351807542692 12.744860464210296 8.322644224791222
Sc 10.215250036360972 14.988698061501948 14.97231573077765
Sc 11.443180892269856 11.593639296802428 8.506305727484586
Sc 8.361218280377537 10.974683435715923 13.067526771017274
Sc 10.97912984685603 17.316281479027438 9.059271614568726
Sc 10.367869748930396 14.19506785929182 9.72978239776163
Sc 11.76451479630689 14.634820278588487 7.26745735191067
Sc 8.117032184129345 17.07459974542693 10.352550382867495
Sc 8.774703845695884 11.72217806265702 10.23006170291539
Sc 8.044181413947829 14.166396548762545 12.536723014759731
Sc 9.008469367128132 12.983041984325824 7.325574570414717
Sc 8.85461402750178 15.920527827162777 7.624082347743668
Sc 7.292380722669271 14.256430950545148 9.579810406954618
