49
Energy = -257.21473194 eV
Sc 9.293203705785881 14.234278312775746 8.76218910262534
Sc 10.44946631505205 17.110479364907317 10.370946153476678
Sc 8.229253507159774 15.172081994957635 11.359768334895202
Sc 7.16539311905822 12.570970415568096 10.475504449328287
Sc 12.086318015626793 15.238804617181255 8.001237216588992
Sc 8.368888781662486 11.616420352975261 7.585960596540423
Sc 11.763640678066883 12.145620063224396 8.162338809192528
Sc 7.352320968074406 9.572096659510054 9.671282373348138
Sc 11.404975477299768 14.623891724270564 10.871145272301169
Sc 9.835296515686453 16.063759360641324 13.511911128734647
Sc 7.7746321224677075 10.522437624763178 12.64463670895105
Sc 9.798073997013764 12.718812478010545 12.690664612163353
Sc 13.672061396224692 16.598519267503843 10.175146828583614
Sc 9.826691040765507 11.179457988402854 10.141891842188963
Sc 9.931341033884056 9.068902291179455 8.055053455482316
Sc 14.59125444590219 13.729552929009456 9.124060669167543
Sc 12.947772786492218 12.201036963949345 11.180583511758282
Sc 16.669555037510825 15.929512381747607 10.0561616255343
Sc 9.878998652418497 14.315459737317333 15.879167658169681
Sc 9.82630365709161 8.20315113467466 11.126036344064962
Sc 15.703396608274266 17.752068961009897 12.190107067095257
Sc 12.203045237541296 13.96066010937432 13.825573002537082
Sc 7.496150999995752 13.628308303087344 13.95023758988492
Sc 12.71066211717189 16.984778265060065 13.057340681308553
Sc 14.898443726084738 14.711284092031114 12.278010730606985
Sc 15.213739770610688 16.54621769576325 14.945308868646526
Sc 12.468382581930525 9.431154642150211 9.766533250376066
Sc 9.628677981680948 11.411239831930441 15.402520771408941
Sc 11.586056306052122 9.98775546690485 12.697237807372092
Sc 15.375010650473358 10.746742947786379 9.972205249843578
Sc 12.545794885710105 15.782334904488717 16.046775022871852
Sc 12.817210143764086 11.216484668672697 14.794207898735458
Sc 17.674361706190428 15.510738744035047 12.961935512479132
Sc 9.403904442990779 8.592869988940002 14.256670675396308
Sc 12.160484869434317 12.884956248993221 17.133273470892163
Sc 17.19354190136146 12.982238936027128 11.020485464066574
Sc 15.056744547491595 13.488412519548582 15.26394495018764
Sc 14.471659658313898 8.77341855114952 12.129473477458378
Sc 15.264988215712702 11.508241718094192 12.970068764518109
Sc 12.007416699563027 7.325796281241011 13.733709245026299
Sc 11.628958972813159 9.102662007546924 16.350694427899125
Sc 17.543704185887794 15.130238318719611 16.101816690472994
Sc 15.01164497167089 14.553347888062586 17.805364913501037
Sc 14.363261426845906 8.567932108636272 15.088092552939045
Sc 14.59683397509947 10.99170960358757 17.139331465029
Sc 17.4610938451484 9.938915373296439 12.200126234338592
Sc 17.972352028755317 12.65929491871945 14.097616727285914
Sc 17.315115521204298 12.488518674692306 17.20551472483604
Sc 16.784153924762794 10.179334205170132 15.210038829608516
