42
Energy = -216.91915237 eV
Sc 15.677084011476703 7.3241243928844835 11.990386845652184
Sc 14.60915373924029 9.642641394407093 10.41092285834333
Sc 13.855547676438844 11.256805659433555 7.902408712916787
Sc 12.906124343289932 8.480432363610172 12.555538918285063
Sc 14.237473899318767 14.25778649842852 7.778976242683974
Sc 16.927944029956436 10.100623888341655 12.273122846950601
Sc 11.80211259118745 10.63806533391443 10.1193105026928
Sc 16.052009881279503 12.12404154311965 9.808747125065157
Sc 15.187226732761316 9.006511213018381 14.452446271737232
Sc 10.216082456386253 13.357795522784478 10.705045181219162
Sc 11.526109268912391 13.06012228703812 7.984545896833754
Sc 11.018388780652968 10.86707599096249 12.980074147763053
Sc 14.116266341890917 11.480683408775592 12.941498392382616
Sc 12.074118539369433 15.73647254148824 9.492242671985833
Sc 13.31914787145836 13.247570480055524 10.466703185786823
Sc 12.5483691571185 10.063324600252846 15.457904882107746
Sc 16.4541055563845 11.681722886189633 15.176936303805507
Sc 16.779994305980445 13.229360199393351 12.527776026858424
Sc 15.877287707147497 15.1276689967367 10.187848396061751
Sc 8.525404358978447 12.77692261470341 13.221114056330498
Sc 14.850993020157786 10.354827368566845 17.36124789797993
Sc 12.48193239493047 11.874916903475592 18.332379343671793
Sc 13.617787067220794 13.101242256699923 15.758551127682596
Sc 11.479682531090655 13.739238829784874 13.333876340860064
Sc 14.604471268354043 11.385115396965329 20.34197219580678
Sc 17.03781372590725 16.544709147332934 12.64305689384927
Sc 14.439061615238007 17.515071132858253 11.206892193925409
Sc 14.412708179687359 15.01173220948968 12.9921721656781
Sc 15.572608580678255 13.128700618768015 18.138245122345115
Sc 16.392971789558924 14.73254261265968 15.33247376250931
Sc 11.714561752239124 16.561056716440063 12.29134192209108
Sc 10.445345579875054 12.23629462955837 15.780619493305561
Sc 8.930410206971017 15.706238824492228 12.228300165517492
Sc 11.412822242200054 14.671394876425389 17.5285751127401
Sc 13.436000621248565 14.13837633864994 19.95091371291391
Sc 12.368702421331673 16.185404627644115 15.123655719697807
Sc 16.018270993022828 19.51078076369164 12.81005562091897
Sc 14.270468678941905 15.753585326452951 17.427785174875005
Sc 15.17787802247711 17.426804943461022 14.769335640344147
Sc 13.028297241246436 18.931689118872406 13.49552693262537
Sc 9.378228278959883 14.987095385283176 15.07108859104486
Sc 9.976459543439892 17.807200895424668 14.382942825580935
