44
Energy = -230.42381095 eV
Sc 17.431459533542743 12.805128798884827 14.767831600032059
Sc 16.76970188548227 10.293317603370578 16.48967524131509
Sc 16.091032737170448 15.708208765376073 15.47934014506153
Sc 15.079716913738924 12.972036682718935 16.826237761861893
Sc 13.845103304729504 18.106784642865534 15.36127578161819
Sc 14.226263519745185 10.305150852979095 17.87168834580532
Sc 13.288318218183699 15.481041679211371 16.557624653628466
Sc 12.170286016025145 12.642783241072031 18.106216526923593
Sc 17.52746201057887 12.646636189162175 11.672534376139286
Sc 15.038837625311839 13.878722262262874 13.358613555500972
Sc 15.207946096816721 17.162504084957792 12.859489772407212
Sc 12.316941352463441 18.652945617832405 12.859779831010783
Sc 16.97949113420372 10.065633564318262 13.362217189681715
Sc 17.814138165043865 15.386901705654568 13.080315606530801
Sc 15.917735040978174 15.266813986446591 10.659569402169245
Sc 14.233090388080482 10.871590529095073 14.658279092525891
Sc 14.626145210407243 8.266361995352378 15.617868320813116
Sc 12.51358783170293 15.714070655130772 13.434906510843563
Sc 11.721768933664233 10.024974859292364 16.445218379879158
Sc 11.874703544318663 13.02251173010487 15.198488419392548
Sc 10.508507993214371 15.092833831942853 17.314411383155665
Sc 10.926975253728916 17.41006060171824 15.265205238843764
Sc 14.704422604718712 8.444741998417989 12.4719441716957
Sc 12.03378610750881 8.661642339922551 13.645427149234658
Sc 13.116309751941339 16.758149856065526 10.55473433650563
Sc 16.086028162436474 12.77067454290987 9.073198507200672
Sc 9.259899042476182 12.43246651693975 16.624671242113852
Sc 9.41423693744434 14.862053010275957 14.676051035327939
Sc 10.05330798685682 16.698067833455685 11.995474466976003
Sc 13.218631242591062 13.722049678414606 10.778936361624393
Sc 16.275781484634393 9.757926871931575 9.999297849029082
Sc 9.743973480314441 10.530200520928634 14.411755487229938
Sc 11.932877466760951 11.408341022678906 12.50743083495498
Sc 14.759437872979296 11.322560939695894 11.540158468399841
Sc 12.53298279372996 9.246262171390805 10.523146841593148
Sc 13.694085244247406 14.550193740325463 8.038877161908344
Sc 10.943926034934739 15.060270988362891 9.331174409509725
Sc 13.739000116482993 11.402822649537098 8.491364480099103
Sc 7.951131035915818 12.472761784338221 13.309523748003663
Sc 10.314098210884032 13.723502365477785 12.084703931896728
Sc 11.065475170952242 11.794360801937248 9.651610577210622
Sc 9.284640840292564 10.376806276475119 11.47796914423458
Sc 11.134026492867166 13.021139578812496 7.15707601944032
Sc 8.5364330998057 13.297835812074739 9.847547171487522
