44
Energy = -230.91495525 eV
Sc 17.571707125371212 14.889992047832767 15.93046199659502
Sc 18.74387615329102 13.687990434384302 13.34384146028088
Sc 14.96827427046223 16.588447167671205 15.52518073190618
Sc 17.213174723578888 16.571720090633836 13.351149638246875
Sc 16.98728495573748 11.745747450194278 15.387057017118579
Sc 14.664626391968403 13.653877319822772 16.755329306884555
Sc 11.894940296762224 15.164446864634712 16.703277666518236
Sc 17.476691624539637 13.168449314814369 10.581991636659609
Sc 12.050163182356828 17.602370185463005 14.834966779149331
Sc 14.075267102521318 17.507413502238595 12.557871436652013
Sc 17.678552476634447 10.886634053276062 12.528370906049826
Sc 15.953982468676333 13.987746352758467 13.744152870506584
Sc 13.718322932711441 11.943408775911946 14.48793238357291
Sc 15.077025313661876 11.94427312794799 11.771255051945703
Sc 14.576538980667037 10.436819410616728 16.87677435492312
Sc 15.37162275306291 9.362981747679497 14.057908788129284
Sc 11.850358768213944 11.960742774131015 16.895064162012634
Sc 13.198916812849145 15.000535648443291 13.835428703672571
Sc 13.687835094383225 9.397163778710265 11.722328423743724
Sc 15.475305395173752 15.398848982300137 11.043009497423256
Sc 12.904428143237446 13.637165375300437 11.19598388145881
Sc 12.301907314176162 9.319989633581343 14.799738520603388
Sc 9.859912771049263 8.203665881960601 13.455936137429921
Sc 11.00842281289663 16.343356444999905 12.198266910653823
Sc 14.788334171616967 13.368478379464582 8.87428963599689
Sc 9.364915702260017 15.959345523623226 14.889878388090256
Sc 9.449390344651484 10.86549114030524 15.042850318473196
Sc 9.956450011183975 13.560819949420166 11.539967387598782
Sc 15.957977385554821 10.237664556357771 9.727477943315632
Sc 9.082258311436325 13.543074111741017 16.777720071522406
Sc 12.636208955162544 6.996219189492276 12.644305309236296
Sc 11.352475164856196 11.038311114614753 12.435115991348937
Sc 10.798251400800812 13.450613572258185 14.455330294666558
Sc 12.813854261251581 16.163960604187352 9.689777214643064
Sc 8.420681900584233 10.766710608057926 12.068198299383763
Sc 10.84648620886237 8.575629275373633 10.714288733890143
Sc 9.584885332403383 15.705541281338995 9.504267555589898
Sc 7.976816434197567 15.830352459791275 12.024705615159485
Sc 12.864045319568948 10.97050352453663 9.394788471827868
Sc 7.857678049207772 13.342466220841892 13.847340071923426
Sc 13.435337244087552 7.818196058391833 9.449667762326019
Sc 9.807424434814113 11.307614551960933 9.506762639488116
Sc 11.495834044523747 13.602694181536553 8.514805204639615
Sc 7.548837028520073 13.386212333688338 10.235467518274193
