49
Energy = -256.70812379 eV
Sc 19.972368665507556 16.218901798112636 14.857290774173588
Sc 18.255572814201646 14.514578466375163 16.591404173938574
Sc 18.985327271958976 13.485473367469902 13.736347556689479
Sc 17.874113815106476 16.122793410307523 12.702738745867872
Sc 17.091183516985925 17.163496542103548 15.398761561371895
Sc 17.618507625329585 11.50000652924808 15.461427563249872
Sc 17.869770900216814 10.699271526665786 12.3255733518156
Sc 15.634689101530757 12.688234142673819 17.44493320236494
Sc 15.329588398084042 15.822244081377386 17.42959625944576
Sc 17.216676437370676 8.745208128143844 14.356961427871902
Sc 16.92812682534936 13.480724924645765 11.48596358118052
Sc 16.05150954120808 14.356262730381765 14.577063342254524
Sc 15.066875254291615 9.845962653673542 16.155868620110695
Sc 14.881724434618498 16.94102979451797 13.119116765539601
Sc 15.742849427753026 16.09828656780786 10.141767842922574
Sc 12.84304109248661 13.91887487283844 18.01494291887615
Sc 14.092689373691387 18.224909524205867 15.881512212300123
Sc 14.739263643999383 11.359657656223018 10.681203588710318
Sc 15.370477693449384 11.45757867895954 13.508508705474284
Sc 12.788253463411431 11.038615691176414 18.403985055991598
Sc 12.3050014745579 16.955041266246646 17.918132961923455
Sc 14.258400419323836 8.656134656343239 13.303466324596682
Sc 13.32126622112229 12.273443693275574 15.583458006287907
Sc 14.897283032750277 13.597114939876505 8.566097522574157
Sc 13.095475121773937 15.432185993237647 15.411555756816341
Sc 14.09399661180148 16.266686577560872 7.46812221030457
Sc 12.010402017691371 9.449937886029842 15.521412344550408
Sc 12.80199550531852 9.031933751925626 10.514597995480662
Sc 12.508230745352323 13.825325016163978 6.443536354050993
Sc 12.304259505818347 10.840781544912232 12.845865038403346
Sc 11.092727105830772 17.69416089382041 15.219570952374106
Sc 10.765015543522823 13.420943127549572 14.100307604667561
Sc 13.021451739437241 17.27331176982526 10.323216614065597
Sc 10.329239397107939 13.227194805433344 19.334518453187865
Sc 11.861379453688699 16.03442527583042 12.73435418668501
Sc 12.396510113133212 11.649965608533916 8.7080918433296
Sc 10.231444847565548 15.0407905731693 16.61244216227304
Sc 14.044955867081018 14.233634403234431 11.802542635917249
Sc 11.08530105740799 8.18840427283546 12.777755526498748
Sc 12.195685651633726 14.830287198840088 9.055593368778828
Sc 8.970369933375945 15.756885081034719 13.724191450087169
Sc 10.062442006357715 10.448716097785594 10.734258474164857
Sc 10.53216760852508 11.921632971520365 16.679635157310074
Sc 9.436493308904057 10.674790464138118 13.85839009582804
Sc 9.78659868938748 15.767471287094093 10.623946364947848
Sc 8.05574809952545 13.241808402453273 15.226578745882017
Sc 11.337701611598547 13.116871312912602 11.124715682611521
Sc 8.495900695772743 13.140033048546284 12.022561220577625
Sc 9.769601307246898 13.130469847532494 8.693958259168328
