43
Energy = -224.1086551 eV
Sc 16.018331000133045 10.376267092302939 10.820390644052875
Sc 16.662688276412027 8.633244759408194 13.372573648712537
Sc 14.09222051821436 9.199492092580577 8.79943318933345
Sc 18.20664869010011 11.054339075509692 13.053529066644074
Sc 13.82518051830843 8.396006836216712 11.784167880537781
Sc 15.448863017696935 12.523081442547301 8.45493421586303
Sc 11.278433665929203 8.740372748863072 7.602736444308077
Sc 12.736298490555573 11.369063113911285 7.471183068966214
Sc 11.230066252330985 7.29623539905584 10.384723062665898
Sc 16.760493760485875 10.521491575545415 15.858547159474238
Sc 16.318655880407707 13.338242581225948 11.56975830369891
Sc 13.612380623440927 12.204608552908494 10.433799066813888
Sc 14.087612684794106 8.564558409739204 14.918414418598452
Sc 15.244389690696599 11.348927733860817 13.662012780488338
Sc 11.581093724651963 7.625934937461771 13.504525297704445
Sc 17.387535825699437 13.350381464313688 14.569579151163117
Sc 11.393902388201019 10.193340461027606 10.23096924076081
Sc 8.856005872368197 8.968342492933795 9.235189773916574
Sc 14.313709122052643 15.264881703647434 10.358607439140828
Sc 12.051680005023961 14.052048707607474 8.37531911396394
Sc 9.852293959260356 11.797664421797391 8.136875664314749
Sc 10.692278622112326 9.836475352614807 15.583149662144924
Sc 10.75988996721691 13.183658913878684 11.157924257380735
Sc 11.395748363327938 16.02921474978004 10.379184063802244
Sc 8.222589034060217 11.609576064270204 10.70976053154026
Sc 9.427920466039865 9.110158682555232 12.279656261778294
Sc 13.29695396778983 13.913173314476296 13.002156878254326
Sc 13.547491143101622 10.95486525490614 16.332729469108877
Sc 8.86507398830883 14.686409307763908 9.540121601907463
Sc 15.531582520945069 15.683425433528422 13.444788235636477
Sc 9.478310537863326 11.837788211741712 13.559394121248552
Sc 12.273658823635127 10.722592494073998 13.291205871413485
Sc 12.78856179505261 17.216198894249793 12.579638569468123
Sc 14.678947168624912 13.655843698243615 15.769373487031064
Sc 10.521790130586492 15.174188844631725 13.769191032754593
Sc 9.151280897273708 17.116406275067643 11.96714599276244
Sc 7.892551703739446 14.308090160745138 12.509576064412048
Sc 11.543489554060905 12.942667690320274 15.566360392963038
Sc 13.059645745336566 16.229851782875084 15.32947750076495
Sc 8.451409284561624 13.63574475364935 15.675961835788854
Sc 10.617217929675158 18.02281751958747 14.704531022777859
Sc 8.013547086951775 16.496059518664683 14.7731063666055
Sc 10.305494800780176 15.788380801693025 16.776743939415198
