44
Energy = -230.30252224 eV
Sc 14.917796072622938 8.382276309694557 11.50806857112617
Sc 13.8125513558682 8.061245533999344 14.320125233875675
Sc 17.67448413100758 10.168159949358447 11.262186356657494
Sc 16.326160905656195 9.658579309542628 14.132870368122651
Sc 12.035742283104296 7.075235283941375 12.010035105658323
Sc 9.70752040164325 8.712642239213082 11.104929756619844
Sc 15.2248257364895 10.415938890893857 9.104903754711879
Sc 11.087247802000332 8.842565809347786 14.604093584610114
Sc 17.473886749532635 12.412437597007418 13.497009554156705
Sc 13.40492881174383 11.088974223844959 14.450285666579788
Sc 12.381692039167438 8.936061491259542 9.41535780960971
Sc 15.211208956796925 11.346977508166109 11.935226050668708
Sc 8.923682785114112 10.696909317489022 13.527771756810587
Sc 12.256583644553517 9.968321305413761 12.091577447790723
Sc 17.07739880971943 13.079767201576164 10.467643196000582
Sc 15.83952910897977 12.026230097037594 15.998732086655561
Sc 9.325009911158448 10.048187675987329 8.117685215524709
Sc 12.440367847236358 11.421251873877738 7.564444745082825
Sc 7.531606343116035 10.608622759384906 10.685317984614997
Sc 14.968721551958453 13.249325343835588 8.199507461107626
Sc 13.444967927673071 9.9350866249631 16.896850378750315
Sc 10.203595804925175 11.771315677387157 10.021166059979942
Sc 9.988827313137257 13.031349837220109 7.299037808287944
Sc 7.45181610466232 12.799080952209792 8.81181132961746
Sc 16.850788015897937 15.26333818186942 12.904355392683133
Sc 13.017536287293225 12.474414268976242 10.299546946607597
Sc 10.795791920278983 11.77117400772516 15.818131562490573
Sc 14.31170135542272 13.706930832496859 13.60315322637012
Sc 11.091727306545874 12.769356573663092 12.810080822912822
Sc 14.745852232094418 14.994113434625548 10.741549536786334
Sc 15.666259427444523 15.110591092430568 15.768044501614208
Sc 12.291584007217764 14.688553694784373 8.484192577212372
Sc 8.030174318432318 13.268426194771171 12.000038796508985
Sc 13.30214762738515 13.340441575296056 16.646241050539814
Sc 9.558132416363046 14.763434180078372 9.831850859042373
Sc 11.487512148163688 14.946457038396304 14.702363969630097
Sc 8.626266443572293 13.794106365753686 15.082006831168355
Sc 11.897576721349907 15.641973256179606 11.5928638384187
Sc 14.160827146603102 16.679451225958044 13.653413964004605
Sc 10.496894525237108 14.484747689911838 17.521912343653867
Sc 9.110303558117103 15.989779397857495 12.936892054366039
Sc 12.711602754193521 16.67671450305124 16.540110731609676
Sc 9.443826800207221 16.75983461183055 15.93750326094176
Sc 11.36019034234342 17.85927960227673 13.901130064047303
