49
Energy = -258.95724413 eV
Sc 15.626484038379587 8.76020749222875 10.889143508246056
Sc 12.521008929390375 8.90572456493041 10.910237745382231
Sc 14.211372359942057 8.24601057537542 13.645453718761289
Sc 16.6543198019389 9.958332753520967 13.387673640136397
Sc 10.94049696886609 8.506438027172226 13.54239514713361
Sc 9.540948276720485 9.905782418899218 10.954792597154416
Sc 14.107486587848792 10.364504258464027 8.791443062785692
Sc 17.97854560216802 10.762039635697993 10.847703798189496
Sc 7.771151190679253 9.470587074108233 13.581051963887676
Sc 11.051279101710122 10.868329880797994 8.163572986433508
Sc 14.995361745357553 11.009262245392625 15.637693333111146
Sc 9.57058924084786 9.692154067045509 15.985317591473331
Sc 15.237309311377576 11.705328820550198 11.364499013625258
Sc 12.556899420057217 9.285447969302671 16.09902643765463
Sc 11.920514638239078 12.03441914754001 10.529537626206888
Sc 18.47341226820817 12.235624644211418 13.817941304015498
Sc 13.063026241009446 10.90513162969244 13.252514556207116
Sc 8.872296566772155 12.45118863910144 9.672641128785848
Sc 9.975533791041657 11.348738171188115 13.519557772801509
Sc 13.458439184418854 12.976698827966054 7.770951919710796
Sc 16.971461648328727 13.743329280659198 16.51590105615931
Sc 16.30515484146242 12.490138519201768 8.732783808269927
Sc 7.691013709210125 12.074496840981068 15.290593202006285
Sc 9.85126459167045 12.013265195417063 17.846417388484742
Sc 7.426877181324405 12.252938897042998 12.18897919101962
Sc 10.75187785816437 14.205525595813207 8.43495613488081
Sc 10.144317035078098 13.948958602561358 12.150623778010628
Sc 15.779675316738807 13.446045199116561 13.77362081857785
Sc 13.203148803040786 11.878129604097252 18.38751461839944
Sc 13.249611004542063 15.954419716326141 7.87004671894729
Sc 11.846729282563008 12.100852961896868 15.788363911140099
Sc 17.735138376930724 13.749568621185125 11.198826058881313
Sc 14.06293646412886 13.764504736795026 16.274397895053777
Sc 12.766741846514284 14.153673103203225 13.460723073618484
Sc 13.979423651018678 14.380130661089748 10.497376210812504
Sc 11.585575494240924 14.38883465264842 17.9617161973316
Sc 9.91713477229237 14.24255202291215 15.317804405943768
Sc 8.386151023240526 15.379209708674496 10.492941063437009
Sc 7.6171483450336295 14.920018698599351 13.535006627984702
Sc 16.13441116198693 15.562355188367889 8.946234292483881
Sc 11.56252044164661 16.21092836397093 10.530686789624946
Sc 18.183993437534102 15.183657406712982 14.078900042885731
Sc 14.609147638353637 15.346927050476912 18.296679737073045
Sc 10.224935658412775 16.634482361433072 13.338386169472642
Sc 15.491640821115764 16.23820926182079 15.319171836707163
Sc 12.3771955573357 16.255512175983615 15.830023869039014
Sc 14.30267315384133 17.570938781028804 10.113198347777297
Sc 13.289800329843954 17.08756268476322 13.020973331072334
Sc 15.958415437839326 16.048172189864985 12.086211112296418
