47
Energy = -246.55600486 eV
Sc 17.23030687222404 11.047888606656455 10.397016223718273
Sc 16.267832185092512 9.584964453297756 12.836667895754525
Sc 16.496284205999878 13.577854672442399 8.501514816500324
Sc 18.778057245303618 11.516654050720255 12.913620032825447
Sc 14.41673053390485 9.123043498688858 10.453665425534084
Sc 17.99245091622561 14.014791409168666 11.114251640149442
Sc 14.520382581577502 12.194486093396161 10.06469461468176
Sc 15.844024876692929 16.57066962323722 9.1337892781176
Sc 16.80069865120185 11.390825101385666 15.394395724226227
Sc 14.304923991014642 9.660423678999505 14.96605179517966
Sc 13.606774957718793 14.23955739260756 8.205339025279445
Sc 15.055316605619673 14.847081617375574 11.056319334553073
Sc 15.841585737772782 12.479408706154205 12.824919642188808
Sc 17.916453143006347 14.228895887817254 14.262014265939136
Sc 12.515940173622443 8.099049472833117 12.901579606456712
Sc 11.41496145442629 13.288582471565654 10.206710451059381
Sc 12.408132788236298 10.874538385452595 8.841514269657564
Sc 17.092524445667777 16.73937268025509 12.476754316746566
Sc 12.937427131340533 10.976615861024786 12.265927965119445
Sc 9.349306671195107 11.432836938716864 9.182084754915039
Sc 12.37144605311722 16.282937030404913 10.125751033945356
Sc 12.666451816905372 14.27724237924565 12.68306745759106
Sc 10.794922141904907 9.0830722064852 10.662648589997866
Sc 14.471918745900561 17.73694703647959 11.716873047803615
Sc 17.116127771312772 17.001057489692254 15.623228553146788
Sc 9.239415635053062 8.68787850417121 13.394465087604376
Sc 11.384799642463081 10.089950660743828 14.874330639141462
Sc 13.766260292928301 12.64560549677005 15.31994046573406
Sc 15.051233805243571 15.385207329316842 14.300096580297861
Sc 7.716258532923692 9.730766250384576 10.963876202275582
Sc 9.783401293005516 11.51290734660618 12.325678778697489
Sc 16.105222971608345 14.015710544159152 16.89640572970707
Sc 14.549047266269978 11.224682655172542 17.746478802682674
Sc 10.68490626516469 13.3116435764952 14.718910491896246
Sc 11.805973587716098 17.228290354257485 12.980937464156561
Sc 14.406662750919107 18.195141335772696 14.734916471510749
Sc 9.691205897341778 14.915103648529481 12.15865175092686
Sc 8.838978001995569 11.285501791967997 16.010002651545953
Sc 7.411779374132728 12.818894333081404 11.232350557058272
Sc 14.618870682132053 16.599481445656277 17.263511532037818
Sc 7.087800647477384 10.935725428171844 13.601146421507895
Sc 11.51562213745117 11.692641936697651 17.449049008962284
Sc 13.148099433686715 14.003641587167479 18.05424422808523
Sc 12.29683489171446 15.70891980919332 15.634747682000777
Sc 7.7150321952118714 13.723042975412948 14.45450386575672
Sc 9.465511539984156 16.211184185100155 14.876731677852504
Sc 9.923597154102655 14.29108351303536 17.320786363438103
