48
Energy = -250.93239315 eV
Sc 12.78450673474924 8.010490285302147 12.745885858612903
Sc 14.928204989989405 10.164286229749699 11.933841696384084
Sc 17.722219517156446 11.126193129366666 10.702819791120215
Sc 12.176523943271471 9.693020064627422 10.345539012161693
Sc 11.852561851907467 11.272499921450246 7.634993057609887
Sc 14.569499254804123 11.484966071534512 9.362697934261531
Sc 9.919883492429616 9.2727445915967 12.429766256579446
Sc 9.32632707883826 11.021266704866758 9.536435583677717
Sc 16.265916874662274 13.835822834414884 9.509871550051798
Sc 16.4444368279979 12.924312372427075 12.372648469445094
Sc 11.342893683401579 8.698248757002697 15.212507199214789
Sc 14.35014297822092 9.697270521066136 14.999230555226331
Sc 13.293384578415214 14.018964036119549 8.195408995702067
Sc 12.186419335992532 11.013777807472497 13.175613825114318
Sc 10.19273149452402 13.695709426723614 7.796744158799458
Sc 13.833407900833297 13.413525887057718 11.786538728502261
Sc 11.532490124903328 12.645788400156725 10.22573694514159
Sc 12.494675670480564 10.195269647333665 17.507946688148554
Sc 17.27909810522093 10.533972344080356 13.83989298407611
Sc 19.1417121496564 12.908168087105276 13.033243264335685
Sc 9.504810381176064 11.026313616394622 15.272011026198493
Sc 17.166890042811826 15.761327536488043 11.726674743651598
Sc 9.560167878343247 12.519926983195779 12.55489046896063
Sc 9.587364443644592 9.184036929032505 17.686422257586866
Sc 18.00161157028885 12.295358572153907 16.06979025320448
Sc 15.479525922276544 11.242283970067596 17.476902984653087
Sc 15.008747184116446 12.81203150733954 14.985080384468977
Sc 11.656647002003615 14.605572706275844 13.3477320223105
Sc 10.167507576294122 12.137624489651099 18.106406120696533
Sc 14.278468759689213 16.0897715512982 10.409001020312637
Sc 8.53858106198877 13.937692783530203 10.2232585342989
Sc 11.204583932426766 15.611826187423224 10.211296320245454
Sc 12.04512112907028 12.6763572379766 15.823455282635075
Sc 9.290225886401215 14.11643748466005 15.326470879700372
Sc 9.15018331653247 15.828825341849996 12.596373130500437
Sc 17.415151411624528 14.855166904108074 14.768751931923907
Sc 13.270339395147321 13.138533120822565 18.421752131674882
Sc 14.727828414286076 15.91881968161225 13.536902840433124
Sc 16.053266333148787 14.243451275200874 17.469266012262793
Sc 12.174384887963745 17.500525206017468 12.400542527976318
Sc 11.009306415477585 15.083319635272662 17.637843610906913
Sc 17.685413784318055 17.844319699345217 13.895355061497842
Sc 10.680083573513178 16.81873080342336 15.080006324597049
Sc 15.260148675031724 18.56286527893594 12.34323197213804
Sc 13.405024702448575 15.423224730211446 16.104787529303778
Sc 15.90675448268533 17.238890177745027 16.136523261592334
Sc 13.425539609749586 18.35219289604113 14.953862447585363
Sc 15.995740473472207 20.05163255376037 14.896435503657308
