43
Energy = -224.92246862 eV
Sc 15.628980856957764 11.729224669889515 8.611819158077774
Sc 15.09187101049638 8.793182293221028 9.074295377580043
Sc 13.448817436920166 10.044063247877665 6.962494722235141
Sc 16.625261082378398 10.56612022079731 11.273835211874442
Sc 14.140632133870607 14.056299115057163 9.634778505990383
Sc 12.851587477099288 13.16252374761563 7.203450293485864
Sc 15.039255205445214 16.707197452364973 10.829446647265277
Sc 16.869390854259443 13.63330014056467 10.9397911497222
Sc 12.853333572993836 11.135835906599574 9.719786606837642
Sc 15.815064820906416 9.420330765783486 14.268690492341253
Sc 11.798964811550563 8.507408856112123 9.17241159620574
Sc 14.00092037973666 9.139913271366558 11.756389624604621
Sc 12.296233761646077 16.32834054841013 9.090640268438099
Sc 10.716435328123119 11.060605241658475 7.626681239411991
Sc 15.846714692824994 15.111193908739637 13.256884058284653
Sc 12.679722518478204 15.168112969640429 11.901164497707155
Sc 14.358519992594815 12.330244553790948 12.182854099586894
Sc 16.551994848836763 12.419156850287816 14.11187702954516
Sc 10.882831789604975 13.623277144260166 9.699256568966321
Sc 12.346980366989094 18.18023750065018 11.510325429254122
Sc 13.330004275597465 7.342195984579176 14.019143483874204
Sc 9.506010045986718 10.59446748551459 10.359294468340302
Sc 13.02580879112647 10.425170960160578 14.462186366657926
Sc 13.499950322761821 13.68138295131562 14.764901124897023
Sc 11.131097640075192 8.925112554056044 12.35229294326431
Sc 13.945137055884262 8.525116049775777 16.63144324798136
Sc 14.889428188135142 11.543122706815037 16.650631818743975
Sc 13.936171748111587 17.158015997239673 13.941316665183953
Sc 8.507495451813586 13.382069301703956 11.971155217005391
Sc 15.38111445932176 14.921251531488664 16.366540780370794
Sc 9.888744454314722 16.254299779793048 11.374232139666612
Sc 11.27975845077674 12.037164433076413 12.323293513296866
Sc 10.874039328798657 8.77183394052059 15.52912207276229
Sc 8.912958089955234 10.573461116003065 13.486665407159146
Sc 10.564601694055943 14.527128029010358 13.968507566640069
Sc 12.181247524258474 10.579927240198973 17.715629892051556
Sc 12.673417290701474 13.606983883134218 17.61460025612344
Sc 12.483325117831196 16.138929936155435 16.27107392988119
Sc 10.832725642922918 17.486999847369663 14.136485567171343
Sc 8.089562628140557 15.949491896346466 14.061161754023091
Sc 7.995414049062577 13.105979282293108 14.968675020338699
Sc 10.698146214928595 12.043507896760943 15.641221265771877
Sc 9.740072861484695 14.945211142837291 16.71387733732454
