40
Energy = -208.50186834 eV
Sc 15.194882342752049 12.523832237849708 15.991895592763125
Sc 12.622214333531357 10.559390002184312 17.189024329533773
Sc 10.00306401632497 12.280777804499898 15.804034477897428
Sc 15.324904339015312 9.619421820165837 15.961495273233933
Sc 12.628719861190806 14.272276764069922 15.882721612279958
Sc 17.13536016022164 10.783628175579997 14.08411575569902
Sc 12.639563904860077 11.494441028677286 14.597843833377306
Sc 15.145331284958251 12.574183598102513 12.934277434919759
Sc 8.278187859344326 10.55225485689392 13.90162322997553
Sc 7.378585322501175 13.399276126420263 14.195831344590797
Sc 10.575991187195587 9.144771729810415 14.89124261693113
Sc 10.031321822072657 15.264623096582133 14.356445857310979
Sc 13.193754906191154 8.019761588784144 15.187934805151603
Sc 15.224377373939236 15.11599536527574 14.120243096097422
Sc 14.289681290869881 9.792426581940148 12.995287176488189
Sc 12.819091725726366 16.8414026896411 14.023333696323554
Sc 15.833356552980765 7.691418171489037 13.401812843045168
Sc 9.800003500623749 12.739146194230536 12.792852346143519
Sc 8.981913685451365 8.703901872339461 11.647854448191772
Sc 12.519503295019287 14.136208397955487 12.845453695466745
Sc 11.258758120434019 10.337440416889782 12.172478782497723
Sc 10.928081857132739 16.58125027050679 11.632595820689847
Sc 14.145889488101515 15.823631460912733 11.180416397992595
Sc 8.22491013018674 14.92573540398519 11.58559630177956
Sc 16.113227115673105 13.537215226149156 10.366429953417828
Sc 13.467381470846378 11.616859286058048 10.606737204658446
Sc 12.233670534245807 7.525067815339873 12.366466150236562
Sc 16.53987507707268 10.517668791597082 11.022494215778579
Sc 10.909008046862166 13.892050892603928 10.065192673834797
Sc 7.230637616452347 11.873168558491297 11.454352598570063
Sc 14.467336911743287 8.529796208453071 10.335850044133126
Sc 9.503400586366794 11.011649451700718 9.75592642319129
Sc 11.594331781834804 8.861005237551844 9.626259901631787
Sc 12.137300893848717 16.436469454471876 8.836809316478824
Sc 13.717265010939578 13.884914343816439 8.487584034666519
Sc 15.030481820244098 10.964582955981282 8.35972858349951
Sc 9.212027166103677 16.267578810779963 8.912702417458206
Sc 11.92318601501553 11.479482905128533 7.992971710200976
Sc 8.124416656805131 13.53622410482622 8.820227090330096
Sc 10.747929399310374 14.270447813161958 7.20158039044258
