43
Energy = -224.61409879 eV
Sc 14.047851431533534 15.049011843189318 7.014815346073394
Sc 13.277166185248177 12.251311813528195 6.798634212677377
Sc 11.432785739865515 13.755649174885265 8.531454091893012
Sc 13.268229799591134 16.20505359584433 9.998611262653776
Sc 10.615336229624377 15.061975718966217 11.130036340241128
Sc 16.090905395304386 15.96417110903496 8.860397877770426
Sc 11.191626500646416 10.701284160284406 8.604593699265664
Sc 12.551391320644603 17.17695630256743 12.782985537759409
Sc 9.661302373343545 16.685457313471737 13.698651196248328
Sc 14.371193877852221 13.488768678199177 9.557001464146527
Sc 15.810740240013248 17.04363281695407 11.77989399691034
Sc 14.165269099366425 10.476199550244642 8.848886643133358
Sc 12.291960506132073 12.122943361329472 11.111392848966222
Sc 17.163052127187104 14.256604181921915 10.938400473942721
Sc 10.934265722536692 9.371320533273606 11.411064134990488
Sc 9.433446483390135 12.0597268657866 10.808828843653428
Sc 8.730718844096947 13.834118816063924 13.317550889302247
Sc 11.552784311398716 14.44654825028699 13.813898066528328
Sc 14.463840159566393 14.581492719986203 12.579794780931952
Sc 12.015066148308003 16.612502396479634 15.9227281412765
Sc 16.29334599206944 12.953836535605806 7.81672572822073
Sc 16.110306374365567 11.322117595113772 10.9229348352524
Sc 13.947398968419872 9.40248265508578 11.565388777169478
Sc 9.549021579279664 14.664910013647258 16.172840375662314
Sc 14.114043680753682 11.687066606867983 13.7549123469621
Sc 10.783496144428124 11.342572655033251 13.60708642989925
Sc 8.612449718700667 11.753343116182922 15.584070868796005
Sc 14.737769139026428 17.147086641058873 14.751174592291987
Sc 11.640290316583627 12.40283945498085 16.253764595837033
Sc 12.749315697402457 9.008429391887942 14.183579605421897
Sc 15.024851613535073 15.988800102712906 17.56142685982179
Sc 17.110155661116096 12.50227194652741 13.325633394693307
Sc 14.017605335036821 14.19450767633801 15.655524338717816
Sc 15.94781438899706 9.575760907530581 13.955988929356465
Sc 12.13275889964178 14.499185113210197 18.2779999594198
Sc 9.552932677758262 12.263191415256111 18.35318313499357
Sc 10.77168507502579 9.808094872198623 16.658760831294305
Sc 13.955210081792835 10.389895608602947 16.656626308901757
Sc 16.75748405686957 15.118526952268178 14.61623028587032
Sc 17.500478855054954 14.34267815191649 17.505432937489115
Sc 16.377371052624827 12.098895807792191 15.989292303083529
Sc 12.22442540195103 11.323259976932844 19.034494259325815
Sc 14.80670730336593 12.99041248855134 18.33042907756747
