46
Energy = -240.22309928 eV
Sc 18.805994160931153 10.965754409445248 13.779577227117882
Sc 17.95409551351062 13.424625333879293 12.10614502544462
Sc 16.67635716955409 16.176068222382987 13.480144067293695
Sc 15.396736609868853 18.15259634569696 11.30118052092087
Sc 17.766510968246273 16.03131951844605 10.693221624303213
Sc 16.7715147527847 10.525278758296581 16.295214975886164
Sc 17.499028885919323 13.66494330110994 15.221399857014976
Sc 16.900745129268813 8.731278327884098 13.762458936620385
Sc 16.908332510444094 10.5887862641464 11.099248727679642
Sc 16.76567314584429 13.231747769834941 9.078919713605345
Sc 14.284707051691058 18.001733763331316 14.27556358404355
Sc 15.358420029966457 16.048259860152605 16.407666069500966
Sc 15.498664694718197 13.064467767250122 17.33379598574737
Sc 15.048580937891142 13.357192630040073 11.325065632257553
Sc 11.543668904990936 9.60312071144408 16.923063786607656
Sc 13.923624511320849 15.9371389587431 12.314178746749853
Sc 15.312683425786325 15.840564619033907 9.420772334892066
Sc 15.968273915034105 11.522557467564415 13.568464344445866
Sc 13.55584079766156 13.802973569345726 8.584237320569336
Sc 14.29597776573836 9.088896305438421 12.330132162549381
Sc 14.381390559323975 8.413906757561213 15.70774943364561
Sc 14.446801439272784 14.055168440581024 14.605256826001932
Sc 14.19556223555864 10.462221206733558 18.19275321965031
Sc 12.545862817238866 16.884417069119518 9.77144753911326
Sc 11.854124356900357 14.29523707149723 11.046828564194822
Sc 12.465876338381818 13.335172553281279 17.009779329698784
Sc 12.246155241065296 16.305009273295948 15.769969953117291
Sc 13.915869638687031 10.943642457506861 9.774607869164061
Sc 13.673879530609018 11.14551510764846 15.42658182552402
Sc 11.748687397379534 8.939762235537037 14.0442751103352
Sc 12.691321888057132 11.746376042215978 12.521884415192703
Sc 11.313832369821577 17.09979194828139 12.659085159936346
Sc 11.546733534946899 14.225640555107487 13.97972574628929
Sc 10.943951224435397 12.00460281232032 9.319325614009937
Sc 11.194307310263856 9.619551514808247 11.178730728110652
Sc 10.522193368489695 11.681985421031065 14.920476375333587
Sc 9.621467273613229 14.316004321095143 16.34680609750449
Sc 9.445296837353991 12.540812834163667 12.044257128664041
Sc 8.455208272139624 10.231346139162582 10.041070447785422
Sc 7.577404228950351 12.68370273241625 14.451167782013624
Sc 9.300430938988473 15.702157482471302 10.64107874708201
Sc 8.725764319900446 9.82299203611307 13.248985101840915
Sc 8.818189529463709 15.375528367901437 13.610128886619316
Sc 7.940642497747824 13.162895830564437 9.56585890983088
Sc 6.491489950457835 11.53617890698269 11.784402240844274
Sc 6.614270998378138 14.479464636749407 11.946572547317903
