43
Energy = -224.95151741 eV
Sc 15.515820599494587 16.69627433774754 14.50270264181976
Sc 12.974388624031135 15.490027583536364 16.17723434336075
Sc 15.638626132453238 13.756271132472778 14.661008018114998
Sc 17.179889503934078 14.936222205634055 12.330023760579671
Sc 17.488461575135336 11.633349879215857 13.08197007367729
Sc 16.31581904248786 10.817991024953958 15.685625958545709
Sc 12.829145987180551 17.897609560849546 14.162174404207693
Sc 14.780993719425158 16.89238365671439 11.542650217277426
Sc 13.518243295417813 12.3418338644554 16.331431588411682
Sc 17.001178263689926 12.582169035523604 10.396894947438353
Sc 16.32393006343088 15.219808963237762 9.328209535265978
Sc 13.067362578565561 15.157022148469618 13.420866149461204
Sc 10.332582327611282 13.55710680184043 16.14600241624708
Sc 14.563411859819828 13.829751070168602 11.312773095907612
Sc 15.658209170003534 8.649828761094973 13.454046873957543
Sc 14.545568539700435 11.336397213624588 13.286820031893171
Sc 13.760473344560767 9.217293598688645 15.728970797214414
Sc 15.58577433157844 10.107239439101345 10.541627891311302
Sc 10.407695779641973 15.998548060881749 14.266413310715308
Sc 11.719980360949293 17.145162771519807 11.259504861754138
Sc 13.228747334010274 15.380352133224388 9.087627182924205
Sc 14.57159807695983 12.519116184923835 8.586865155785421
Sc 11.203364233157217 14.168184562936597 11.11189176669266
Sc 11.164525900153969 10.539394333151717 16.421502490175243
Sc 12.688321549977811 11.388967785834746 10.82477029875576
Sc 11.706530667839026 12.537100916677513 13.909270460775542
Sc 13.447498820153148 8.281237276243457 11.344673259888546
Sc 12.896159608424025 6.870763418935548 13.916020659088836
Sc 10.163237696069586 15.761842252169536 8.823288752770898
Sc 8.901278295052375 16.129478860668396 11.532669123234072
Sc 11.898309425772979 9.673787371899174 13.42563440284105
Sc 10.162563958252212 8.011505503102317 14.919050805703034
Sc 11.379311335163703 12.856848838547762 8.355468926469802
Sc 8.75660568166213 13.506146005744688 13.119198445878654
Sc 10.567100654405298 7.551941213101208 11.755528275920389
Sc 9.761099594534208 10.67211696604415 11.435254217016228
Sc 8.97127381700125 10.817405702862025 14.495916559300605
Sc 11.381125303432055 9.366161803882012 9.08106860070207
Sc 8.410535475735566 13.596809739624051 9.985478527802016
Sc 7.916463048780725 8.535336475993118 12.766582027948138
Sc 8.914870622714078 11.111193321295017 8.627692291289595
Sc 7.0188452985389675 11.097450659911269 11.302599929131548
Sc 8.245182775292845 8.575036737273724 9.846756727539525
