49
Energy = -257.24036911 eV
Sc 11.049016932899777 8.462641482512172 16.45086397662811
Sc 14.069268716086437 8.825699429775431 15.204699535902835
Sc 9.319149166290764 8.26715469130697 13.682727963812756
Sc 12.027044568622488 7.188217170109134 13.7925556292853
Sc 8.647110371983997 11.03663808250665 15.009031963052337
Sc 13.61033044398509 10.973043320628356 17.25071489084832
Sc 10.767646405181969 11.550720702965 17.049192335452563
Sc 16.666566296079214 10.242611180935594 16.82157289135365
Sc 11.474675749545709 10.14316232786112 14.275824355230137
Sc 16.913751136821524 8.484086005567919 14.384059231213248
Sc 11.471181998499357 9.03889857474373 11.253843037777226
Sc 14.578280910391145 7.995487124057194 12.2293220196772
Sc 15.570350300849281 11.510313461447415 14.479494809623965
Sc 10.399269532850868 12.623516274298236 12.91246053281933
Sc 9.707525619873667 13.91280286390724 15.57206223727015
Sc 8.46936663654921 10.6688844653614 11.944536176968551
Sc 15.674933929840126 13.162401220554433 16.930907893459892
Sc 12.771058874581465 12.856007706936838 14.99654035416445
Sc 12.286591438879524 10.457231114809098 7.781028245170596
Sc 18.57188644216302 11.010308990662095 14.469000561716978
Sc 7.5859275608824195 13.507151682420425 13.274004478251157
Sc 9.546236864473519 10.5265158641618 9.069795854047516
Sc 13.686896857680019 10.7969752018699 12.507849673437473
Sc 14.472697743248776 9.984118222963946 9.797868495493153
Sc 16.895257643235116 10.180265273404943 11.991366772202117
Sc 12.616970907911272 14.046106041447224 17.48359493136828
Sc 8.91755776607371 13.321131121041196 10.229043017108406
Sc 11.88178659926944 11.949893237057879 10.306288528067146
Sc 7.2241352358066395 15.788945507800124 11.31491973395974
Sc 10.645523300294348 12.998936198883747 7.581062570037636
Sc 17.4591194810603 13.846273770949606 14.412717350436859
Sc 8.344438592086147 16.598549747575042 14.163085896457908
Sc 13.055816316115228 14.33183932978132 12.34798028889466
Sc 14.828790269463212 15.234831430148189 14.852974764732101
Sc 11.797821680651069 15.894479960372715 14.864012206983384
Sc 17.03575784272371 11.581037627542624 9.226665047754144
Sc 15.633388967673898 12.97811626129743 11.514265195469669
Sc 14.208923429344724 13.035710729335339 8.673165835880317
Sc 10.152355775813305 15.656493341757809 12.153870173414646
Sc 18.531889701786803 12.875227564114624 11.725814525235018
Sc 9.205334973228505 16.27255205850446 9.080763945647528
Sc 11.693959201201407 14.824779746910469 9.643571530790778
Sc 8.701521095103827 18.301869618442257 11.457864869387173
Sc 16.559725477283358 15.751979344766701 12.19684222014118
Sc 10.815039422360215 18.438939847902706 13.465875424994628
Sc 14.487213220742502 15.92608652596926 10.071615990002298
Sc 13.661002144417902 17.24800648354323 12.76980339238907
Sc 17.136769732891718 14.515442138054532 9.395291220701308
Sc 11.685301545915566 17.751736560152167 10.5379901268617
