43
Energy = -225.09086385 eV
Sc 13.075486750453216 11.464261333636614 18.31477431783352
Sc 10.795210558382013 12.530290024677628 16.285130558644436
Sc 12.96607892939577 14.399274210643021 17.278412311601326
Sc 9.004435797319116 10.000125572669287 14.932972029050932
Sc 10.21455520076725 15.50433473694489 15.478441689351337
Sc 8.380154191519853 13.29915720854336 14.307501337259103
Sc 14.973031831595918 9.583506406093315 17.011741759427963
Sc 12.063426396805104 9.771630253735523 15.73373327370826
Sc 16.06491074348996 12.509981631161544 17.442509780423894
Sc 8.200069850687413 16.22733963311756 13.111240104362091
Sc 12.992276205895616 16.957136177728497 15.437022999381005
Sc 12.50147141171313 14.245384944558444 14.053911018302674
Sc 14.041586859151009 12.004397214108767 15.53523693112032
Sc 11.33332791620763 8.576119368477526 13.19450667897432
Sc 10.729727206813209 11.53773385492219 13.341163931212169
Sc 7.074427581773838 14.021359627785426 11.57070507920867
Sc 11.023032084645717 17.03556032180608 12.849290005386477
Sc 7.9374143387781615 11.143350934190876 12.292958017286027
Sc 15.291917486695654 14.881341335350243 15.531296606755344
Sc 14.465955211107019 8.683431661714998 14.004067501705626
Sc 10.299023128317657 14.228970258416007 11.856919344303714
Sc 16.607043266849644 16.069370215515406 13.237270477326947
Sc 13.89389569625426 16.807031338829603 12.588619943588096
Sc 18.135194698868823 13.721503911273393 14.893119978870615
Sc 16.81850994789362 10.725777715735395 14.852851815759326
Sc 13.547190705026107 11.1517493359234 12.7475144944874
Sc 9.984347760334458 9.587136164328076 10.708657974340467
Sc 11.815256335566145 11.971205154716083 10.438437456042376
Sc 16.108747851165578 13.020200848290413 13.057089563991571
Sc 8.893792572256748 12.327263339975856 9.699524243295992
Sc 13.897726826091956 13.944046074001516 11.340284727302405
Sc 9.005172885749824 15.968473813986499 10.13765423529115
Sc 13.00334472438613 9.009474917592971 10.719547334467787
Sc 18.608153708578982 14.608870901920978 11.744846477790277
Sc 12.304406981690075 16.177183893118453 10.057950389672472
Sc 15.875250445687502 15.871321969551145 10.303791271573367
Sc 11.540503262397564 10.917508634967819 8.00955484118058
Sc 18.69246860751577 11.758576565498746 12.525921307476594
Sc 14.453044645092609 11.17171884301584 9.37863105599738
Sc 16.144245518241156 10.111367030462338 11.672428124111509
Sc 10.947878686753148 14.082054393710658 8.538464753954166
Sc 13.932250922418689 13.907773223345076 8.407396867057606
Sc 16.76369151698635 12.900182512770572 10.095250778202162
