43
Energy = -222.89003227 eV
Sc 17.894978494318416 15.320205562528539 13.151709253973145
Sc 20.09566997085756 13.68250386611949 14.08541278623243
Sc 19.561248419879185 17.53305249143005 13.46531353853172
Sc 18.818334701469844 15.987659858239374 15.83427596049508
Sc 18.96849593454669 10.674562322166128 14.525127507701466
Sc 17.24681182846318 12.346090884009646 12.869507606638452
Sc 15.753846718740403 14.757663449455142 10.951341745354123
Sc 16.987924608330616 17.62702934237644 11.417225869015441
Sc 16.346515156344136 9.463216579469755 12.799898667575924
Sc 15.133408398868719 14.606375318979387 14.142420062351613
Sc 16.565627172050515 17.566420176006137 14.501175559829418
Sc 17.5946044312022 13.24557294161588 15.7957741115691
Sc 15.794609329929035 15.688797065324076 16.861987807914296
Sc 16.194562666322522 10.52642795782383 15.541613858451313
Sc 14.956066843685859 11.770865914319447 10.649273280828913
Sc 14.30072736146947 11.618124063498978 13.599893891910199
Sc 14.709320174450173 17.07369309208762 9.294232711892697
Sc 12.79739586534686 14.014741514426463 11.86071065635659
Sc 13.584417202488156 14.21392503381486 8.866079608387007
Sc 14.11189529132092 16.93092057995681 12.307918843885563
Sc 13.155847554509085 9.460497742757035 11.811556811001507
Sc 13.985195570726496 8.690799563578617 14.592996474823549
Sc 10.57775038862661 13.885306271439248 8.775606820703748
Sc 11.852395469178823 16.396081696970278 10.073155858003831
Sc 14.573691790399876 12.871726946108145 16.702620205070684
Sc 13.35710705257901 16.9435250498073 15.459959271285058
Sc 12.232573912731562 14.106309495968112 15.115079827402027
Sc 12.171537177173704 10.975838310725926 15.742225369344638
Sc 11.201405073095984 16.42106915914549 13.330049740265565
Sc 10.951433521490936 8.755880322122772 13.921816008236462
Sc 10.296205499327694 9.143139375337748 10.805085994714316
Sc 11.00881120381067 11.621245592203291 12.84563515752796
Sc 12.011230973480863 11.559102496324229 9.857251410643041
Sc 12.787812808191406 15.18187544248491 17.86669982631739
Sc 9.699313632169314 14.56909392823164 11.44071953666431
Sc 10.471445674813552 13.179431267833492 17.36010293082366
Sc 10.254400235129763 15.998221213820191 16.44650774238903
Sc 9.069209092856617 11.21990115530443 15.511852668857442
Sc 9.540442966375032 13.980067660769565 14.306080821101368
Sc 8.420596786483319 10.02164902586261 12.875679503230074
Sc 8.907898683743284 11.832792884398733 10.523746364111352
Sc 7.613857856097936 13.85827176388241 16.33403719797992
Sc 7.2875604728652075 12.758193220140225 13.198242538446944
