46
Energy = -242.07961886 eV
Sc 11.565473434205172 8.647755900599819 16.713312267884856
Sc 10.361997883835148 7.05599624550142 14.439151178490736
Sc 13.506252794268498 8.052392956564443 14.073244777415544
Sc 8.788276915679603 9.724302291822482 15.663270155345803
Sc 13.901722930757623 10.555885147967485 15.999091495297028
Sc 11.567936943838903 7.2047383065538115 11.548341832409504
Sc 11.070291510385903 11.761016602786926 16.506839909253795
Sc 8.875077517494622 8.721909706123366 12.31823006620495
Sc 16.199937242827342 10.10588130044963 13.983969676831396
Sc 11.172164871576822 9.832613764193786 14.045038801988277
Sc 13.549784343591922 13.002559719507204 18.00128065079559
Sc 16.038922243478286 12.870585467349244 16.26838430169385
Sc 14.40853360936724 8.876163264063518 11.12449116051393
Sc 9.584778515451722 8.698583735101959 9.266798794556623
Sc 8.012183040461007 11.415017786487057 13.288054389819717
Sc 13.731484839631936 11.199549247525688 12.969884040336284
Sc 8.627894751127691 13.234923884304628 15.564334799770334
Sc 16.28326146739188 11.480854307657639 10.993132517458623
Sc 11.44457078404738 9.93550495502986 11.048801635367687
Sc 11.461733551964466 14.972050693130491 16.869327646902025
Sc 12.488253195734101 8.456339906830834 8.725214257197496
Sc 13.232930740173472 13.435374473717072 15.09476312954593
Sc 16.100171997654943 13.085107173510123 13.411660386337347
Sc 17.253639596092558 15.526132353806622 14.614157674181845
Sc 14.321241405355769 11.027455064808333 8.753939069697028
Sc 8.661094911084739 14.41097605946943 12.236332066583012
Sc 14.649998770027459 15.704345934915382 16.655895110821014
Sc 9.197676787118507 11.807308150338672 10.550562733635811
Sc 10.700157155727071 12.636572275162443 13.36167906919745
Sc 14.775253016301933 14.392931639513453 10.988247051811012
Sc 11.224442011875627 11.311306502727863 8.203749235424981
Sc 17.78331502169402 14.423741617517006 11.316406766775252
Sc 9.924745635831364 15.703831997267597 14.436779744392888
Sc 16.55154478379707 17.012958109504854 12.074941377256353
Sc 12.329363190378915 17.38510160093078 14.842512571211584
Sc 16.30837889190487 13.537840396957113 8.68092846465064
Sc 14.442187357620718 15.765345711377998 13.682736133965113
Sc 15.385776432817055 18.176839287289937 14.664697142129985
Sc 10.453802036465571 14.512255606401277 9.560269281651339
Sc 12.449616436700467 12.523074659297338 10.56527413450714
Sc 13.348021842156463 14.027229171964068 8.15839483327947
Sc 11.91727324300318 15.042370211495042 12.284068797358398
Sc 15.709657237730072 16.508687719964556 9.198443104377175
Sc 13.734384339203299 18.07449733609299 11.91760150884836
Sc 10.558728998357044 17.34479169786633 11.846590675232704
Sc 12.682771615623208 16.482495694918136 9.713383086717753
