40
Energy = -206.91476464 eV
Sc 19.529700825863504 13.87198982627169 12.604813261169017
Sc 17.84031263274264 13.509411014566172 15.04009204783009
Sc 17.429503060440023 11.635491362889095 12.826001682327494
Sc 17.10734476834086 15.636522346336422 12.925145102927571
Sc 17.05811917238171 16.446915365879466 15.841692747782362
Sc 17.26491765097601 13.707549486774074 10.522658642396314
Sc 15.276135409379874 11.414380939196876 15.179455314484784
Sc 15.42059364474917 9.098428751806402 13.282424686884019
Sc 14.995921364440358 13.38700586058533 12.387131236131713
Sc 15.128461337391595 14.441846915079939 15.193585521453699
Sc 15.468473346041083 10.830566911483977 10.642003212632702
Sc 12.61713892744772 9.377431326233594 15.022021741187118
Sc 14.701205005749896 15.95389539504379 10.899878381882216
Sc 13.943935168176735 16.519831579382046 16.722389842670452
Sc 14.391131266419647 13.343618055867347 9.096717862806733
Sc 14.677245826807038 17.31737544868379 13.814746271707383
Sc 13.659056651919107 6.689971492642742 14.306866174906526
Sc 12.411117035392339 12.445522272589372 15.301573116072378
Sc 13.149483069928882 11.060113647771443 12.686150478165596
Sc 12.948819908486046 8.188708176425878 11.837159228233757
Sc 11.171065811178554 11.562047214443432 17.59426995713036
Sc 10.752100958499284 7.417034518617149 13.858230355806393
Sc 12.233333126925631 13.744181600219868 10.92294023493306
Sc 12.636385622627428 15.107885985057493 13.911057344858373
Sc 13.956680438099855 13.385658512612304 17.672982821338376
Sc 11.950643792280317 15.729279589223738 8.906907589979264
Sc 12.466869482111589 10.75810916797963 9.787841673129757
Sc 11.773924776985561 16.942741596220323 11.873316549794138
Sc 11.639688626662524 12.992700950786121 7.85204124450885
Sc 11.79012680256935 17.713108528979966 14.982561090824342
Sc 7.964619027354938 12.521413626152384 12.826664770131432
Sc 9.781305326976911 10.485994681412732 14.895443492125663
Sc 10.595595193792066 12.856564008876724 13.03342849580416
Sc 11.337950771321813 14.970726502124563 16.78302601017996
Sc 10.365148642214844 9.9091072694992 12.029398639094778
Sc 9.220224357589176 13.172687416554876 15.738338720136225
Sc 9.497976687155665 15.024027326586612 11.032125419735108
Sc 9.69987496606234 12.212114782119889 10.016629064874635
Sc 9.694605364449071 15.663891031795401 14.084730853329974
Sc 9.166922529156164 14.592425136852466 8.061535746059631
