43
Energy = -223.12090655 eV
Sc 9.830896302828638 9.648079329746691 17.095830217472358
Sc 12.226793562401527 11.405708573879469 16.733360340935842
Sc 12.665811212405643 8.461528140448586 17.070212895867535
Sc 9.267868406365944 12.625182759483463 16.15314693997868
Sc 11.3725859192799 9.179969874557555 14.537039724923915
Sc 8.631391648412649 10.311794302508705 14.414291304522438
Sc 15.033571804849359 13.134032890040547 16.32772671075392
Sc 12.025610465997739 14.450068326677629 16.09607865865426
Sc 14.409581438714614 8.059760238939024 14.3982974674874
Sc 15.283202726409362 9.968058851384589 16.60116929465327
Sc 17.496240772711452 14.822925146259864 15.796494003821929
Sc 11.168518657789475 12.406850642588902 13.91896184030676
Sc 14.79952805816717 16.12585834290388 15.874085438790388
Sc 9.576265436103744 15.32263671349496 14.374313199917447
Sc 17.75940450771033 11.859847345941946 16.163641808511656
Sc 15.976275635646962 8.198332294252234 11.597445928694896
Sc 8.413788737131679 12.938215958466568 12.95620055364379
Sc 13.894753919633121 11.007965894296595 14.230103289778356
Sc 10.175037152883554 10.470292378494365 11.709079821737607
Sc 12.90329943986643 8.84504933666165 11.675565281793332
Sc 16.768620379862938 9.904161887593743 13.903277981033224
Sc 9.436829520719051 12.988388542867082 10.129669765305616
Sc 13.86362016844718 14.259839232657225 13.545804447032227
Sc 16.73892128133977 12.921474318414159 13.53940516855156
Sc 12.293468698504668 17.081381808396593 14.37635505138646
Sc 11.973036171360357 10.286567718465573 9.121456962486338
Sc 14.92007354295756 11.037086971065515 11.515772555463242
Sc 11.199533224715541 15.198503503745854 11.824572457616338
Sc 15.008868301038651 18.432780982678334 14.02461567141769
Sc 9.918891346950513 17.93564762235946 12.575801079705515
Sc 12.495974898871163 12.594678675398093 10.87897680068473
Sc 16.489493430798127 15.970402978401621 13.23154036808264
Sc 14.926209487088745 9.224546509964126 9.179143008993103
Sc 8.31954670879857 15.682175594549184 11.414988037308058
Sc 17.34448092693623 10.898740815796513 10.5306076706694
Sc 12.585428149354577 19.397079469681614 12.513028819786415
Sc 15.495830799004397 13.983588355637227 10.847558599164216
Sc 13.97070495579039 16.876771579274667 11.667856913165032
Sc 10.17836845944133 15.577431215435091 8.991289926894234
Sc 14.434588343947876 12.161284603665333 8.628285131613094
Sc 11.505417334127934 12.95034439409555 7.938683471485156
Sc 11.528480330486552 17.916390004219156 10.077766352182353
Sc 13.140392760311357 15.157220889374095 9.189147760164774
