44
Energy = -230.37530195 eV
Sc 15.783332822616106 12.939003817579295 7.941341946090385
Sc 17.20685151574567 11.73935925392446 10.567945663216985
Sc 17.135001937347706 14.69629623462215 10.169422407296318
Sc 16.089694942723337 9.837077928980039 8.538174938550906
Sc 12.473710758673208 14.050256855463612 8.066988691802445
Sc 13.102790319187552 10.992609228470837 8.455966915714406
Sc 14.7955972632111 15.75763034402427 8.827837823548515
Sc 13.862427205741522 8.068084964743166 8.975807445014688
Sc 10.018284068900265 12.090381291050258 8.829870598869224
Sc 14.468818376341208 13.189232001649904 10.420768843561149
Sc 10.812197801024357 8.809773432919155 9.371885350329176
Sc 16.340520259089924 13.527761727265396 12.961129125089561
Sc 16.065862867937405 8.10491552898745 11.277729762130738
Sc 16.60291128704872 10.620147620082935 13.332114872771873
Sc 14.499859133802806 10.25751312717116 11.090598188816823
Sc 14.300975494688556 15.692833504097239 11.9481809202795
Sc 11.324639229548382 13.978829539335168 10.893767903538544
Sc 9.71869300828159 15.296705820307242 8.78832840487399
Sc 12.743700771180352 7.942581417987527 11.735648247197528
Sc 12.192769649823205 16.72102155373062 9.985760638022908
Sc 14.28112935812673 9.105847384575144 14.126457364100434
Sc 11.52177036883908 10.904589092000881 11.198128160718948
Sc 9.866877647441763 7.910060220634841 12.416973977576308
Sc 13.53663554747151 12.184913289453318 13.25935367620901
Sc 8.215606459490557 13.55945209851384 10.93288044274862
Sc 8.489777452788415 10.416432456427701 11.085674138300034
Sc 12.04695091828306 7.058007086431916 14.657710554776415
Sc 9.774258833866481 16.55405463139761 11.688543079414742
Sc 11.31688557305446 9.933403342516971 14.096944085632268
Sc 12.338199850000496 17.431185184497078 13.45527936157173
Sc 9.621098613173881 12.329865516955701 13.336702362645347
Sc 11.274787865215174 14.762465410364678 13.83729391892417
Sc 14.925500313791856 11.63751861852822 15.738776399854702
Sc 14.199558335227387 14.713149277497 14.915933423821471
Sc 8.013872250281565 9.61434473226391 13.939916920749486
Sc 7.95746046464197 15.106872896569342 13.429911375170533
Sc 9.67553893776159 8.129504461449937 15.909545747295656
Sc 6.930015820019663 12.381359151894083 14.016882866308066
Sc 12.41686756515901 9.497060112285649 16.700000718595454
Sc 9.65930174119913 17.136874294001178 14.798001389021566
Sc 11.970364717901916 12.63243269588651 16.008825373402843
Sc 9.168802366592436 11.124063624648485 16.206359600733272
Sc 11.849645547665387 15.951290490075342 16.430599789229927
Sc 9.127778930876747 14.263505525462056 15.999713909739498
