45
Energy = -235.62777719 eV
Sc 14.622880454174405 8.277997665388122 9.62936201695396
Sc 16.370640716123678 9.800372240065448 11.847653588533863
Sc 13.665715665648804 8.498501598803486 12.693116256853626
Sc 11.70344870972931 8.73967151832939 10.54174923281049
Sc 15.68491318352368 10.780196317544618 8.277392239970403
Sc 12.463070115870797 10.191687248807884 8.100537728598693
Sc 17.145007803237974 12.212895808954219 13.547551312980357
Sc 15.992288149300323 9.145686397895137 14.918556889980207
Sc 12.678480055451306 8.260446214855804 15.455503143607356
Sc 10.498727020652364 8.990686352493473 13.367290802640722
Sc 17.165983048943577 12.40554812711527 10.552261903668928
Sc 9.993884743454363 11.016862952675103 9.822977975464998
Sc 13.98379845662756 10.975483556047859 10.618575187370055
Sc 13.579337725085763 12.413948712344727 6.577134343675035
Sc 14.254246986981945 10.026993980944743 17.148952919745824
Sc 15.202302095591898 13.765149792124502 8.831669408956992
Sc 10.528914314360724 12.899406546915792 7.105922213513991
Sc 14.743888012698307 13.59608014981239 12.033531052274565
Sc 11.804732989273967 11.049880284572405 15.702586868637747
Sc 14.28503744170718 11.133761443152638 13.989120998327003
Sc 15.853144824464977 12.35256996116536 16.34858396341561
Sc 11.627398059306723 11.450912592259678 12.40045597038124
Sc 16.57255523035153 15.502031534177963 11.293512956783896
Sc 16.061879580629295 15.035405230157012 14.539442845916977
Sc 9.0064564203903 10.390204661820254 15.631846296008067
Sc 12.225923407085146 13.154729335320075 9.34841729465978
Sc 8.585224037309276 11.593679752656003 12.815015700350093
Sc 13.076831233992765 12.676530168462 18.003820409973045
Sc 10.232852163925811 13.3488701222227 14.8234674983725
Sc 13.378248439683231 13.937743099710012 15.20558936802694
Sc 13.909326118136297 16.64880643047525 12.841869097329269
Sc 10.508523859637732 15.618729932246252 8.634090784603066
Sc 9.42280250554403 13.796243421457412 10.737544220318973
Sc 14.91826864537014 15.009018274051375 17.574143178396987
Sc 12.810624345728804 15.130943915319873 7.002028448413219
Sc 11.906613616389226 14.378118493239088 12.407831413686893
Sc 13.348390696129714 15.937974981643995 9.991921289554474
Sc 9.742153065621672 12.744975723567004 17.611913223311287
Sc 8.523231304119726 15.171034501234143 13.239664532936233
Sc 13.80833105968718 16.97270473586402 15.77980139261688
Sc 7.388572167627909 12.96937376942775 15.448492460417357
Sc 10.673974382900017 16.786370253025865 11.448346208710953
Sc 11.683368523735043 15.2923252665945 17.35110826693085
Sc 11.004745401663145 16.571741651635808 14.51380927884681
Sc 8.73205203879225 15.465119377845507 16.348868426813123
