46
Energy = -241.01928548 eV
Sc 16.743895624935472 8.989085118944072 11.38761574169192
Sc 16.164264031148022 8.468862998092582 14.435181941413093
Sc 14.592885805031855 8.896497555358348 9.237371652726372
Sc 14.107955126322448 7.921264036358751 12.316592499175734
Sc 18.596050507747066 11.33203553113522 11.69919789988045
Sc 16.452636657028982 11.318237420019402 13.761234359472315
Sc 13.372456848564203 7.864250762658204 15.860060557947444
Sc 15.366324226127546 10.494737685750554 16.74829734495036
Sc 18.463068413445843 13.556581753233226 13.723995024731725
Sc 14.454139461652106 10.85214206526832 11.394155800239265
Sc 16.47116925906814 11.263492820781343 9.289405248678356
Sc 12.597561160686407 10.306458604204922 17.695777113741023
Sc 11.754701538914452 9.40186991132362 10.562241233332351
Sc 11.461083319779142 8.482032267890885 13.408021811436784
Sc 16.22587611029971 13.369050502978785 16.16193003482699
Sc 13.117155207952488 11.782257980989513 8.952736845558956
Sc 14.289542474834015 13.561653786015677 13.749730632954698
Sc 16.38712224078013 13.519136388033246 11.482909345449992
Sc 10.411956880219115 9.311924097887244 16.002071150392045
Sc 16.355581321991036 15.654180958663986 14.048851975854916
Sc 12.96978583282331 12.70394496604156 16.07657332307514
Sc 13.562902983314887 10.30107679591884 14.41549223863489
Sc 15.098477947484323 14.192631654522328 8.685896852842742
Sc 13.244090427496333 14.442461351594647 10.95880882458783
Sc 11.76170880832942 11.786429446068873 12.397654446253236
Sc 14.306717681744148 15.510936708632563 16.36116982722941
Sc 9.215137365214177 10.09321686916489 12.569248737202171
Sc 11.279192619786636 14.356359157207871 13.844084242497422
Sc 10.164652882124207 11.83528897185209 14.902908906500038
Sc 13.675880518271844 13.16979414081385 18.57566037087392
Sc 15.396512337998344 16.466519556894706 11.127470621351128
Sc 11.640396748147097 14.432968009495617 8.313884879621124
Sc 10.146000077003457 12.309598785272916 9.995491096230403
Sc 13.440905904466884 16.726534469254943 8.75268141727594
Sc 10.507920770258652 12.486954879929502 17.772405054581895
Sc 13.369872881359408 16.512710904140533 13.615807085041997
Sc 10.32181930983669 15.374622177766238 11.195209010694493
Sc 8.673575480778423 13.154452314335959 12.553419326130301
Sc 11.422427984832323 15.340376997879941 16.64542960072503
Sc 8.781313264476532 14.493945166194406 15.414448456443882
Sc 12.107265772101586 17.743188328000176 11.188075815579383
Sc 8.141484919081655 15.06641302060408 9.711513754641029
Sc 10.416805134194828 17.112697210667907 8.69971585506244
Sc 10.19455599827607 17.08152552344002 13.894602316756176
Sc 7.640513671076569 15.941690129389123 12.7622355522578
Sc 8.808556161600983 17.923073717636164 10.998404795141507
