49
Energy = -257.85760109 eV
Sc 14.68516460048131 12.194266807067505 9.11979197459077
Sc 11.985350698164405 10.576455206348983 8.833720452290985
Sc 14.326750748842393 15.277405814510608 9.061480551180146
Sc 12.186718414504538 13.345230704402336 7.572109010231601
Sc 11.962524035778976 7.64434186991179 10.062014863257696
Sc 9.314233156926571 9.421171538426824 10.241396314421252
Sc 8.901052815768011 15.0661748214257 11.066690419765603
Sc 9.693843678259535 12.644045439218754 9.118729891577141
Sc 16.539324608226924 16.95426388963122 10.637327144900032
Sc 17.09513389562949 10.906430320736023 10.665672152532384
Sc 14.471405195809739 9.421229169324617 10.480895700443376
Sc 16.44051380003868 14.019571784422888 10.974132624052345
Sc 11.320191177969228 15.667445026244852 9.28879973138419
Sc 12.196233015827298 13.11627158399498 10.588879205081087
Sc 13.765323141537523 17.938813113350466 10.696337874865907
Sc 11.653811417482594 10.05043980724939 11.86747036279591
Sc 10.329965974914229 7.309332348598938 12.402204812728096
Sc 13.979496866056165 15.44840859413827 12.121707566428407
Sc 18.450540339937053 15.622648931682138 12.789281856708076
Sc 17.372852962238742 12.273711481919326 13.268606043612403
Sc 9.29119869438065 12.043985804099426 12.148709834689303
Sc 10.89372983271865 14.407389659360447 12.958527806398159
Sc 11.13905269667785 17.1422932823228 11.787227615441177
Sc 16.285513145546382 9.44570643498657 13.178129903901471
Sc 8.51964448070856 9.494621553656328 13.297351346553807
Sc 13.387924691615089 7.875276957202245 12.907139913379291
Sc 14.479450374024754 11.86365209548132 12.363220230185549
Sc 11.906238081499914 11.943381152522159 14.246059779063458
Sc 18.868772514922174 13.798244175803754 15.346907301703784
Sc 8.13146335967306 14.174632278651748 14.150281556004987
Sc 16.162670432628445 14.883314154209954 14.32510009241046
Sc 12.987262905246007 15.100087470411475 14.938479947843335
Sc 18.046557904272472 16.64770055902014 15.617365387528501
Sc 15.921030842985978 17.68652268327342 13.434825360484986
Sc 9.850239483378113 16.741303668923567 14.562386205733853
Sc 12.88201461403385 17.901229798004888 14.083759349619964
Sc 14.64097794778103 12.577532861057655 15.542514972651933
Sc 11.072641015706349 9.07466565245424 14.917165910430949
Sc 9.148869154728818 11.54265660717449 15.47314715994587
Sc 14.157655201742303 9.74998097344719 15.371078460232908
Sc 8.455303414804389 15.463518875412896 16.97360472179612
Sc 17.153938466018595 11.108054030459455 16.000174166183978
Sc 16.583182620504903 14.10307272030048 17.292174405527014
Sc 10.660792100683748 14.019495717953754 16.07889528656515
Sc 12.14383335996804 11.388027692375982 17.123813828085414
Sc 13.46973359477355 14.26598789382003 17.825485083231317
Sc 11.630646436420895 16.819559559529054 16.989409197859704
Sc 14.897285113290263 16.82125502779547 16.384467328833203
Sc 15.042094777194166 11.416725147535697 18.140285035830924
