43
Energy = -222.78735646 eV
Sc 15.682306665811746 7.833195165133736 12.126523215455006
Sc 17.071857833522277 10.529981472686078 12.188887860625282
Sc 16.98029940609301 12.664035045273256 10.120253128374632
Sc 19.504755319866554 12.17542295222801 11.924775824382543
Sc 13.766134689237553 13.024210493854383 10.13046092603628
Sc 14.706653795060927 10.178813907669129 10.27598829232291
Sc 13.666352926071248 7.35454115987179 14.375810833862541
Sc 14.067518404404069 10.18880503234384 13.244539815490175
Sc 17.76399617105738 14.57045975562303 12.374080884076475
Sc 16.29585652511758 9.358495511776352 14.903943109646391
Sc 15.557414676594645 15.51568976754523 10.533946707951133
Sc 12.750380371302898 8.031013536573768 11.498281544290093
Sc 15.216508034699041 13.137249652347554 12.709940997835396
Sc 11.6065968285506 10.986475821015093 11.08546712592837
Sc 17.079081935587645 17.713230498295797 12.67495680160771
Sc 12.27849852195214 15.077060763663022 11.910397645731877
Sc 12.728995868601437 16.296552271892985 9.338514294479966
Sc 17.732109540287507 12.32844547977272 14.461855015169819
Sc 11.310364451144524 9.313366781710599 13.948166821453885
Sc 12.087697021555593 12.464095870953907 13.580024310174926
Sc 13.576575091175314 9.47614903861516 16.432978283235578
Sc 14.874208987082259 18.462452831434025 10.581730004837828
Sc 10.86012548385149 13.734972652377998 9.589679825927634
Sc 11.598527290182263 11.403007832497535 16.20899710249359
Sc 16.302646015749026 15.16768730337189 14.962334228089947
Sc 9.101635567125795 11.24560133448146 14.871332025554294
Sc 10.280665058596645 8.97475062743614 16.745875327774293
Sc 14.543229016896108 16.77592321862377 13.098554957972013
Sc 14.770384954873204 19.746219286912375 13.279904407681986
Sc 14.666515132855407 12.333766170006822 15.608284802656863
Sc 12.940972037361936 15.00614028132349 15.074142587268746
Sc 9.887455210197727 16.32737690339648 10.743643281876679
Sc 9.594678508316768 13.654564205412823 12.438676182025509
Sc 9.45378577400725 12.018862051699925 17.895119181420107
Sc 12.120520642701406 18.17520741357145 11.848508920323171
Sc 15.73612805994328 18.143781705501265 15.614618842224084
Sc 10.373786835094647 16.481805629111797 13.845871503510446
Sc 14.424857748085945 16.08990467954603 17.318943413406338
Sc 10.177211420783559 13.979046704084036 15.66096638277155
Sc 12.451390511409407 13.595525780710386 17.78335606623429
Sc 12.74156886757778 18.07132709583229 15.094307729970726
Sc 11.40555365132884 16.494869205864173 17.326057028519365
Sc 13.471935854262679 18.869693863578995 17.767659115233723
