40
Energy = -207.64731912 eV
Sc 14.258051157969645 9.024104597005662 18.736395578422105
Sc 15.520246206283463 9.983010090367106 16.156380853939325
Sc 14.31143066531442 12.058871132610303 18.022226626739066
Sc 12.78445015381043 8.606192358941225 16.075297554935574
Sc 17.186423728335747 11.015243591219187 13.604162264260967
Sc 11.850980142034485 10.496982680304482 18.112428469091256
Sc 18.822410959696867 12.150155348840956 11.333977665302154
Sc 15.912673820910719 13.083265263321413 15.548422921089358
Sc 14.570107371546875 9.145722046802126 13.350368080738459
Sc 13.866492700986429 15.092812837367003 16.647788244781456
Sc 16.895154132430275 14.009071366755506 12.908425693602458
Sc 13.09398276358527 11.5175920744723 15.18844447575995
Sc 16.44502052573823 10.323223340860816 10.73469206935198
Sc 15.731577541389447 16.494318690510354 14.654321891958821
Sc 11.446135641161044 13.379793761628209 17.185838126219643
Sc 13.445182514257167 18.057697563760367 15.910565087032627
Sc 11.389655324205364 9.443188838839038 13.324697001914336
Sc 14.619241969305351 11.93485701282864 12.321426511418524
Sc 10.095361504826549 10.83828780728958 15.736427740102805
Sc 16.4097908040589 13.402322589601724 10.002073729489583
Sc 13.402782841136922 13.898471706388309 10.457475053325876
Sc 11.303215718960928 16.1084206777194 15.290154964295848
Sc 13.731746938804084 14.569193688999379 13.613099367803393
Sc 15.346332956482579 16.081639303685243 11.272161557653442
Sc 13.29761621881612 17.457680348262507 12.99261709471593
Sc 8.81542404597467 11.584067067881984 12.938261744994568
Sc 14.489968509980537 11.740140039504542 8.721220573019824
Sc 10.782967978291204 13.405541926741387 14.336876274279186
Sc 11.542429866176244 11.903623946108826 11.809365487797884
Sc 12.53527459986397 16.934702234397545 10.02918589723784
Sc 13.10648781961067 9.709897986678659 10.56965676641342
Sc 9.822574523585141 9.91103523826699 10.605177143861445
Sc 10.256842886380731 17.604344139240574 12.890848111163903
Sc 14.282022459634433 14.913335769845954 8.053198796778302
Sc 9.174988752837963 13.166145642360274 10.319617696142238
Sc 11.162137326132992 15.071188040544273 11.84678072027167
Sc 11.498890168589268 11.759096014120228 8.779445843369501
Sc 8.476595565443608 14.971713366396063 12.89974236206309
Sc 11.18033584832988 14.784325107842294 8.575760092812544
Sc 9.206798961834332 16.510523269694104 10.29559218647932
