42
Energy = -219.26029007 eV
Sc 11.969974384717569 15.280969171923838 15.73151914159659
Sc 13.926998417460549 12.581406551275197 16.122997044581805
Sc 12.623578939202671 17.70528368877759 13.698006110563943
Sc 10.893036962610369 12.345895869051487 16.635215710499565
Sc 9.019113498708604 14.534137279902879 15.433997038197342
Sc 14.550354133479605 15.216837481315416 14.12388643147239
Sc 16.62241500296541 12.973610171728376 14.576100591752411
Sc 12.84327286200639 9.366079863689265 16.81044208189807
Sc 9.807615086708758 9.495896328064905 16.43931175312987
Sc 10.087913320822137 16.226071888646494 13.174576601005352
Sc 14.149963184426424 12.211674457210439 13.165212798371499
Sc 8.386302838433759 11.60965210734232 14.877921570174884
Sc 15.299871102006064 10.07656450557438 14.869109792013814
Sc 14.892415970750747 17.539416526171145 11.975894131999747
Sc 11.23655572897037 13.364758834911637 13.68694972563467
Sc 12.091028499243253 17.72913793712753 10.53090434420005
Sc 8.496150734306545 13.611752433905169 12.42453061953385
Sc 16.720481816426705 15.001152220032818 11.951943480627017
Sc 12.048316496667843 10.407977218954878 14.429142651444696
Sc 11.103320709393971 7.5530905773045625 14.86068153652318
Sc 17.09449079538815 12.002991478890811 11.76965492047317
Sc 12.694842117043084 15.408251313613443 11.730066842958864
Sc 17.20271356206628 13.675207135246172 9.21802986799634
Sc 9.816156503450648 15.294501106333414 10.284834186537841
Sc 8.296952345264708 8.514793060824411 13.831074594946342
Sc 9.854676370447317 10.580872254237075 12.344392060115142
Sc 14.572249731469036 13.374345073862209 10.507828278057335
Sc 15.044935228335719 16.059373533112826 9.347543915528812
Sc 6.868353081266748 10.911513287127566 12.232986630882232
Sc 13.633744403696031 7.976419108357648 13.302354502549258
Sc 12.847045588038636 10.267988889269812 11.275387665729308
Sc 15.681654686056097 9.436524246901463 11.897268525436793
Sc 10.8957132627882 7.672281975369563 11.793335164520764
Sc 11.448602812871709 12.828926204257947 10.687937046999158
Sc 8.70559225524232 11.817610875150963 9.788924601846883
Sc 15.493083556017826 10.843026079251638 9.268373969174121
Sc 12.287712562581294 14.932350676070115 8.583240489624446
Sc 14.748672736763078 13.444039146977623 7.532422193006689
Sc 8.08737244639186 8.768246543253314 10.675027814754856
Sc 13.567982858313867 8.178197215772363 9.774788734667862
Sc 10.650779154921786 9.404007387910838 9.355833876749095
Sc 12.610520644733848 11.34704033666833 8.231858868622746
