47
Energy = -246.06212009 eV
Sc 8.416246621877924 13.608412481629475 14.593343782865013
Sc 9.1977366830866 10.455913601145195 14.726435514641837
Sc 11.087985588257057 14.009024004683619 14.169522106327129
Sc 9.398931224199206 11.950071726721571 12.1580890502966
Sc 10.145019340908583 15.161125174000817 16.925609599489405
Sc 9.881495873781626 16.789780670871234 14.19850379293064
Sc 10.816618379923387 12.168082789455571 16.559993907153554
Sc 9.688593172422937 14.874438578277413 11.633103239694591
Sc 10.495919596307605 9.058618390975553 12.47361109653449
Sc 11.979343885123226 11.30881243039806 13.657948231768707
Sc 11.80922363915214 17.610141579388152 16.378179630479966
Sc 13.126522510803621 10.704370694990448 17.927492453803897
Sc 10.036684802672992 13.018237304587672 8.95415990535895
Sc 11.953545929345108 13.527375272039544 19.02856148841764
Sc 12.010282839163839 11.255205631287941 10.650180799358116
Sc 11.33911961585765 17.362669579969527 11.58665147683149
Sc 13.348726658252303 16.343419522554463 18.64135711608372
Sc 12.032066665323729 9.083852836281089 15.347321382355602
Sc 13.659694882000347 9.149721949013507 12.45576861351169
Sc 12.968325824587577 16.402616836707594 13.874475041060458
Sc 11.634907440029181 15.530379187752093 9.143036164605197
Sc 12.977332565098987 14.493487276264645 16.376764317671043
Sc 11.428486047279991 14.457480059335506 6.449904197555296
Sc 15.080153308461641 8.928702707670414 15.027841538247978
Sc 14.395596738325235 11.828670950541277 15.532544338053878
Sc 12.97013120452114 12.862639609547042 8.314379206257694
Sc 12.810780030730097 14.11216611355285 11.602331191271414
Sc 12.624878736970183 19.16992021655879 13.828896821017175
Sc 14.89011576212435 10.61835339706287 9.819656747722792
Sc 16.119519762668368 10.394415954340788 17.503478332874597
Sc 15.253945525571242 14.559455455192811 14.00201876361632
Sc 15.197201696295878 11.876620177805773 12.49469315879401
Sc 14.690563878244209 18.11127013624192 15.970753551806173
Sc 14.880126354004211 13.149240016016613 18.36416925629752
Sc 14.135584326861103 15.44523512570671 7.649893626977207
Sc 16.816343141905026 9.344346142210451 12.044926325660713
Sc 15.749680602385151 15.655018224388597 16.983548246224835
Sc 17.303435313950803 10.750703115615297 14.646745091966137
Sc 17.156114459988114 13.259790491573707 16.17594041765899
Sc 14.113246070338992 16.671000547432328 10.617582800030487
Sc 15.36294890247697 13.645657517849692 9.900074181258434
Sc 15.446898507327584 17.822630522151 13.103609639017717
Sc 16.76734548335831 15.520956048306072 11.582037986468427
Sc 17.686438041983145 11.869881013115522 10.565081377711225
Sc 17.517505126479612 16.308560144809913 14.656120555117193
Sc 19.506849196915695 10.705447346782444 12.63621547214479
Sc 18.032520239417074 13.342488113494378 13.222954883499806
