49
Energy = -256.01780886 eV
Sc 17.388674554808556 17.0084696750148 12.554687143966813
Sc 18.369874391727468 14.113584017511082 12.798599184446557
Sc 15.463324028868534 15.120755304034297 13.258081704579647
Sc 17.367953671152332 13.659204370403756 15.549848537804964
Sc 16.418241181182818 16.608718558068063 15.742498924186084
Sc 15.52060145891627 14.539227818818615 17.83342024235501
Sc 13.466654194507639 16.76691302546254 18.01720744310909
Sc 12.65044604920148 15.965409211692013 12.284559970013802
Sc 13.803562636235911 14.472341058196086 20.23451127426867
Sc 17.913060242123674 11.113951833373664 13.836315502889684
Sc 18.178916588872553 11.833829141267236 10.898627757010177
Sc 16.71164489738383 14.633598024430816 10.363896646028648
Sc 13.560885323390398 15.810550520789693 15.378366839699757
Sc 15.61504032952986 12.364669096861778 12.431048449288086
Sc 16.56649562920464 10.793424201899164 16.504708143264683
Sc 12.416484325129138 18.778669122558256 11.575065036312045
Sc 10.814167487783642 15.748236130852264 16.52059744583854
Sc 14.407137495394691 12.82752027194056 15.562868411781846
Sc 14.422496605097857 11.72971799919059 18.462569086325136
Sc 11.498259000320216 17.93535737257244 14.476409216052152
Sc 15.47996532164267 11.795773317830035 9.55343887161853
Sc 14.84796187012814 17.184437130849446 10.556865756832657
Sc 14.639985792860228 18.127725062043915 13.55941797059582
Sc 12.365439411757729 13.723168393152507 17.768054890382313
Sc 13.854731844584272 14.512284535730112 8.996951040371975
Sc 16.51074267293154 8.154819634830801 14.644374567031809
Sc 14.430017596951508 8.762638305836923 16.871587823027582
Sc 11.760764186562819 16.803645954789868 9.287343829111368
Sc 12.174036977831276 10.855910762550149 16.45331427126303
Sc 16.336542155866333 9.42503750338496 11.66497769716025
Sc 14.424277656197129 10.09600252946273 14.173828650820973
Sc 9.700973557653418 12.825697654016134 15.840888617553688
Sc 11.873142413415328 13.52754863478473 14.177828225063061
Sc 12.652139525288902 12.909265103311682 11.202810786543328
Sc 9.619655928489449 15.5524810345878 13.880502309277771
Sc 10.182252005847605 14.883734348398555 10.979807279314006
Sc 12.777889048779013 11.422117412357638 8.494469451097418
Sc 9.552618236075174 17.705504976184862 11.56456382638325
Sc 10.840625715258245 13.748539464741288 8.452771889485934
Sc 14.384165951201208 6.057378369237427 15.424157446645598
Sc 8.612224523916101 16.12401233375835 8.938422204194325
Sc 14.157972498398237 7.374984955060946 12.801785805607645
Sc 12.168707682084232 7.999115446615946 14.996040741260561
Sc 11.373116637808216 10.647864691954815 13.508682236347902
Sc 13.374960227536473 9.962362622650696 11.164072933898105
Sc 9.183154345326962 12.747970222210975 12.710285034925242
Sc 7.379957980123205 15.397942522403678 11.646577149290078
Sc 10.399235535531975 11.157983992596167 10.351804028396868
Sc 8.052348916481112 13.186766353528006 9.75112903447812
