48
Energy = -252.73395902 eV
Sc 16.50703710445051 10.311092590601918 13.240292410549058
Sc 16.869769816405064 12.961083887108462 11.41933924315283
Sc 16.717161714654498 13.278388416025216 14.480739958236885
Sc 15.661895393555028 7.501598146813801 12.106567526872468
Sc 15.681077623633008 7.900997246003341 14.978426082997384
Sc 16.447370918538148 9.634380789650018 9.96890452771803
Sc 15.918417395761294 15.95825803442786 15.509411875649956
Sc 16.174742885565067 10.595519949720114 16.509368607620964
Sc 16.035258130432304 15.942326799696959 12.590079903143439
Sc 15.294586589529224 13.786285463124111 17.406960060083456
Sc 16.097049502605017 12.411765234858436 8.562014844925775
Sc 14.006603825074743 13.878431868084107 12.510915488079338
Sc 13.587827908369029 9.339882358477452 13.264519541146575
Sc 15.454500346227425 15.07687270110505 9.646632692400312
Sc 13.041003633008692 6.741061869935278 13.727043606353126
Sc 13.595158425673816 8.385284646815972 10.153877587693056
Sc 13.451787057714965 17.244782909941392 14.149686697286215
Sc 14.312935507580281 11.206065617355373 10.972490334675427
Sc 13.304876032120964 9.116108730165303 16.297769854763434
Sc 13.23606490691613 14.627699898664849 15.41320262387552
Sc 13.727561936002823 11.424114800093417 18.194079637699783
Sc 13.850942387486961 10.675410815946412 7.8905402034601115
Sc 14.135705183749394 11.80172608880431 15.01493487378713
Sc 13.76912166733918 16.761896896776335 17.34062993884848
Sc 12.20718895323407 14.233889641316576 18.136505553227828
Sc 10.57462149717166 14.040465668057005 14.304506472085565
Sc 13.069457114421127 13.343645729134707 9.380669995122757
Sc 13.978545087009275 13.647535132884554 6.724933893294376
Sc 12.991209335487776 16.219631210069785 8.130634729228724
Sc 11.32050427282367 10.808110663113858 9.984582101477312
Sc 11.114203968363741 8.394687680765164 11.827980975973226
Sc 11.416835293244493 11.773378928345773 16.270100957345935
Sc 13.159939592247069 16.484764541494616 11.105053558386533
Sc 10.67714184155882 9.12184155145819 14.58159664787303
Sc 11.165411239805362 12.38655784928004 7.333485486480663
Sc 11.625002420524776 11.587999735404324 12.95313778217459
Sc 10.855175264321028 16.436390338604845 16.14155692714577
Sc 10.923183419895338 14.14682498242884 11.198073941619196
Sc 9.316653323195977 13.976178416830127 16.98105969475611
Sc 8.972456289265905 10.481347278482918 12.156119184262883
Sc 10.284955729837266 15.018437278159302 8.330026118781564
Sc 8.822110059351825 12.622835907995688 9.5832504900696
Sc 10.697382528796993 17.427650754088344 9.930539039800102
Sc 8.571182191712316 11.79870957787094 14.949827631689427
Sc 10.550118611684002 16.8403444408088 13.020583533253033
Sc 8.092450189948783 15.514217075806158 14.419629683409374
Sc 8.136223568212147 13.257378932284555 12.422207574240202
Sc 8.453593490883298 15.73751036152112 10.997789725524823
