53
Energy = -280.04765751 eV
Sc 11.755769293851984 14.555360203522586 18.88911716885476
Sc 11.607014923214617 11.661484798466294 17.247008776706096
Sc 14.525210319364371 12.491390417994998 17.985683407996707
Sc 11.666798628519787 8.48062177243129 16.378663645382428
Sc 14.725408768266393 15.533364986632282 18.50521527386339
Sc 9.800896736170717 14.02041008219511 16.105563248758173
Sc 14.137036633564652 10.035281212087028 15.967724724357758
Sc 12.616873217436757 17.30889043046016 17.593398953259104
Sc 11.80991824750496 12.358414584321936 14.408568869577046
Sc 17.085683365703478 11.168806996612206 16.174450194960116
Sc 12.82641657360793 14.573517663728355 16.407771748647658
Sc 15.60439517564411 18.07221567671369 16.92263103160142
Sc 16.92196805498521 14.155270517069225 16.967424145666815
Sc 18.068767312836545 16.747443956750253 15.33231197167883
Sc 9.694101856137491 10.183021242062466 15.091920868679741
Sc 12.437426055856402 9.642645627355561 13.567052061079304
Sc 9.230675171679671 15.990550951430246 10.635179101645152
Sc 8.478665143349644 12.49986070332372 13.7258462771106
Sc 14.905445409333785 12.730199213406904 14.916454070925864
Sc 10.281011928529214 17.06245670357793 15.742909044931983
Sc 15.322001379501026 15.846175472145923 15.151410550405512
Sc 8.743416187145213 15.491962616226814 13.501869808693943
Sc 11.69953707057679 15.307367962635446 13.850768394999564
Sc 13.724875610991761 7.139758758752796 14.834250959364953
Sc 16.573476565109186 8.457573022197646 14.407934104848728
Sc 13.13324427546612 17.940748585628636 14.671623333169164
Sc 16.072645916919072 18.47913479669111 13.96692581578065
Sc 8.017115199804657 13.1275956153051 10.557906441136636
Sc 12.349899662900542 15.166588790203813 10.48585952524481
Sc 10.47763722054656 13.360610553290458 11.780377067184029
Sc 10.921815989140285 17.661743286274156 12.328836430377821
Sc 18.196747845090908 10.90845784907433 13.38764680172085
Sc 10.963024996429795 7.44697430829225 13.398891403631966
Sc 17.376321041010403 8.767133858803861 11.520603709946338
Sc 14.399505228550913 14.650095121403796 12.588281273800595
Sc 15.355084418937103 10.54793409231634 12.887788859075874
Sc 17.524280111217543 13.777318889045869 14.040800208144262
Sc 13.190543028577638 12.026539812857504 11.532404403559651
Sc 11.54897992850812 17.493826344174696 9.130194603965764
Sc 9.701363955880023 10.397039454515701 12.021749750004094
Sc 10.21891225324126 14.570884547368196 8.345275966439003
Sc 14.442376819724574 7.759289004510654 12.005655911620858
Sc 16.94448329750558 16.159344890538843 12.28903827304654
Sc 14.001900299111098 17.525961924272902 11.63695254027726
Sc 10.848793194248202 11.710254257492466 9.213309533023288
Sc 13.810639257053372 12.802482238345473 8.719907892696481
Sc 16.405158781183875 12.742409035173317 11.13141745829158
Sc 12.055025588728688 9.164462165718566 10.576534521227025
Sc 12.96218048077566 15.395067730107602 7.440906252314731
Sc 14.970358020868725 10.038245947865112 9.958402585147608
Sc 15.216487843078644 15.452210335367388 9.690989588633217
Sc 12.839873941814165 10.050151739424422 7.677522524328971
Sc 11.778835983713329 12.652593299474336 6.44935130084007
