52
Energy = -274.73143449 eV
Sc 17.862284817275686 9.617877898016575 14.26390111849814
Sc 17.37866462906739 15.115221080736523 14.369993585739989
Sc 17.718912203490973 14.937200088047817 17.46676615220477
Sc 17.649978009125 12.505044806243948 12.571401991510532
Sc 16.658186872352893 15.304736563252463 10.979667117068072
Sc 15.406627392692632 16.861859684952428 16.264389332072735
Sc 15.360995091072693 17.109632064361616 13.211751572262948
Sc 17.756799539785135 12.311626421410146 15.775802416330368
Sc 16.39863715979482 9.664429900394614 11.524363207177627
Sc 16.38910354955104 12.42227979202921 9.750978391693705
Sc 15.868811427292144 9.804720125810169 16.66926163667211
Sc 16.198392178786833 12.366143586856877 18.57474709836885
Sc 15.113947243569655 8.218804796049058 14.063618879501524
Sc 12.642081887484728 18.06650193322045 14.94382246156956
Sc 14.843907565257663 14.013884025901891 13.04354541336447
Sc 15.623083087893749 14.970073274777743 8.025087354497174
Sc 15.226116681366507 15.374773266619915 18.961637758615645
Sc 15.398094290048368 11.197446469307279 14.053780435211483
Sc 14.426888076280495 17.210196855276894 9.815568335965006
Sc 15.200169868065036 13.871981141965541 16.2974908319631
Sc 13.779743248438955 14.39601076791825 10.136233067259282
Sc 13.694131287589022 8.275666284156282 11.20455152765823
Sc 12.578549607159083 16.197723577588686 17.620216084716706
Sc 14.821688531180767 9.722439013609298 8.898829290826896
Sc 13.85161016968296 10.23000689719892 18.910453501059617
Sc 13.147737214155864 11.546956212030606 16.141829205203262
Sc 12.867943060862284 15.200163253667224 14.990782739788756
Sc 12.760455327201186 16.43182595934011 12.276435690381163
Sc 12.8109987277969 8.69409295992966 16.41027791421883
Sc 13.9130784536097 11.420948423702615 11.258833940481573
Sc 13.869868433278594 12.384956170344195 7.8766254246015155
Sc 11.081690624777375 10.793975037540342 18.18076336123926
Sc 12.505288518419421 9.78348441966161 13.489403542348931
Sc 13.059343440383033 13.241679301904213 18.757498117243077
Sc 11.834614971979015 12.750599510155894 13.479667072794134
Sc 12.456760923692745 15.140882571902582 7.5379752570377585
Sc 11.20655621383577 16.595959803694527 9.864845560174349
Sc 10.997592524257387 13.242475931417296 10.244503013957114
Sc 10.019400157271724 18.05683689143481 12.794467740574735
Sc 10.022417348585579 16.30820777813096 15.360082690459627
Sc 10.258672566488444 10.589531266181545 15.297125363211133
Sc 10.774443240980819 13.496196096073309 16.522809124307802
Sc 11.726412216684212 10.301106344294066 9.539081941467208
Sc 10.16343686539951 15.198166386601478 12.564710986112155
Sc 9.768211508341249 11.024783673258277 12.027153431266361
Sc 10.938372981470458 12.431006207708469 7.257356460834964
Sc 9.18188093479729 14.660145893576415 8.383897181170026
Sc 8.289370903259053 16.66035512571534 10.613943325929815
Sc 8.752872010167737 13.212726838937435 14.261411654142963
Sc 7.586179340171614 16.147704357545123 13.445831327828776
Sc 8.817645292788113 11.556171642802978 9.081043442647
Sc 8.008209924314961 13.63413651627769 11.217073689130071
