5
Energy = -19.88341174 eV
Sc 9.65456127454698 8.982902708674256 10.945983579695982
Sc 10.352181753744045 8.230041988124368 8.198108728922794
Sc 9.63159789307903 10.963520276815704 9.077556399885545
Sc 7.795613460072045 7.4730244522135285 9.371579100780973
Sc 7.738616284455648 9.522218734962362 7.578881040945253
