50
Energy = -263.6695376 eV
Sc 17.8370783512408 11.126099744862039 9.732195424369321
Sc 15.239739213414817 10.34729478003487 8.35337510278748
Sc 15.697646699806844 8.96485186309715 10.916086926399851
Sc 15.981739618924157 13.316260478394272 8.189594991439996
Sc 17.080768188230472 10.926373349226795 12.941078558451567
Sc 17.67853175783762 14.178341822786207 10.763398111614931
Sc 15.729229980469437 8.248154642380989 14.184624022065725
Sc 16.871403355762588 13.954403224610042 13.911472495729532
Sc 17.301659822047743 16.9417010327981 12.07523287658132
Sc 15.516319121075501 12.255201198640929 10.892887767352015
Sc 15.83840096192651 16.30246484605814 9.47326264664696
Sc 15.497889903696382 11.32539229185216 15.460822699158285
Sc 13.981482814126776 10.008471323226505 13.08720565746783
Sc 13.023553970238405 12.139513645838136 7.480782162461167
Sc 13.068828174454133 11.121676003090986 10.383906335856365
Sc 11.326118463760796 7.783250329833054 14.332778103027188
Sc 13.295344529307055 7.248837944754538 12.162727367544715
Sc 13.256452148609768 9.40479425144848 15.9370962269764
Sc 13.361372929504507 14.332229328458164 9.622555462523575
Sc 15.03394231775635 15.234318702615441 12.051144400943985
Sc 13.79617712368681 12.904759100670482 13.348573928400572
Sc 15.233291481895444 14.403827677777597 16.556349542150997
Sc 14.425533920801103 18.02811734580678 11.780052399798976
Sc 11.15328218364063 11.054134670754134 13.985653322249275
Sc 15.395805869572877 16.90942841779727 14.553403163468216
Sc 10.25038533822381 6.727196882846086 11.533438025724545
Sc 10.995357959062833 9.386521637993766 11.621887218018484
Sc 12.65153667925293 8.431784244154754 9.354159599116993
Sc 12.97367331767993 15.204171827171141 15.022941666715752
Sc 10.665632919731927 13.814994337509326 8.352428800911968
Sc 13.654948999583926 17.119334230088068 17.1155781880372
Sc 12.571047238370848 12.319146016484979 16.24523233679684
Sc 12.04608704015016 15.959790382830178 12.083271407186054
Sc 10.99926389003447 13.125323908676938 11.429181258885057
Sc 10.444961015753382 10.906431031314964 8.972359601972476
Sc 12.374735348165675 18.015531100905463 14.363423008691749
Sc 12.519132905989132 14.581358446665112 18.131906668753064
Sc 10.178797026453584 10.053378058701991 16.447980395721956
Sc 8.647059102068493 8.824459142701153 13.585642256533903
Sc 8.246920440823862 9.090632073664018 10.415197760393248
Sc 10.315794727126631 14.016373910901697 14.396076205038758
Sc 10.590772821210395 16.34148317883082 16.480150429005118
Sc 8.679008768763312 11.380188954428311 12.143775052630456
Sc 9.417692319646683 15.562027654421072 10.524225728367382
Sc 9.761341051946522 13.253873111095375 17.270617185966284
Sc 8.14130250507625 12.800302174690202 9.645019554094029
Sc 9.46459993191235 16.765157134103227 13.530697136689371
Sc 8.140986200413414 11.95424592657313 15.024622345993217
Sc 7.877670285296205 14.170276373398917 12.646816044829832
Sc 7.850930182429122 15.095005664916156 15.622236128846096
