52
Energy = -273.70333384 eV
Sc 16.762730120919414 15.479990983777803 13.684539663401681
Sc 16.957969770505983 14.007073380861385 10.961182049938202
Sc 16.817057769983993 13.274900333610402 7.995037605925579
Sc 17.736589775900686 11.004937055957043 10.55553301450824
Sc 16.19338595492213 10.390377686831862 7.829891445103345
Sc 15.165601647223172 17.81899594822343 14.440541847001912
Sc 16.487517986499544 16.249627792295804 8.92457605691733
Sc 17.1625142165161 13.466339844072756 15.863324899328232
Sc 15.820406567396466 16.08585887549406 16.9503857051788
Sc 14.813049386158056 16.474599568296583 11.552381919779604
Sc 15.907256310835288 12.411625830097156 13.377674073181435
Sc 14.71254580495534 15.187770292077937 6.584997932459241
Sc 13.925949239401 12.242875543277663 6.995251669047766
Sc 16.07087742250438 8.419638745090143 9.958558358701847
Sc 14.272427619709767 14.210421635361113 9.419225421361544
Sc 14.301830576737617 14.687912768815616 15.193254740146346
Sc 12.385998003213029 16.714378796678115 13.668878597867593
Sc 14.916417317105173 11.297524767388174 10.389709011705179
Sc 14.84095674228165 12.794362491564204 17.611963413078275
Sc 15.749924314048895 9.523067731993313 12.765452332020304
Sc 13.091574222020677 17.494480908300996 16.484576015524322
Sc 11.746315516310434 15.726870138380715 10.715683594946613
Sc 16.11484883924861 10.491381006432817 15.821065742495957
Sc 13.431541315569547 9.308095436255064 8.659945615276943
Sc 13.53606406993626 17.07089074740814 8.598466861159283
Sc 13.448646114079487 13.83762438645982 12.480225871807631
Sc 13.87626395874005 9.810028775505545 17.693831862112965
Sc 12.00695523804814 11.987652400050191 9.351864964364838
Sc 13.306232434910306 11.534578827041415 15.255219266197098
Sc 11.732777561162774 14.559769564849981 7.754784666249218
Sc 13.39986464016694 7.990623551593992 11.470399521842532
Sc 10.6046569364484 12.914933119479967 11.723534685671957
Sc 12.723939711035003 10.668374672706284 12.440442222239408
Sc 9.495303659693041 15.581576229802048 12.850082055554214
Sc 12.525651573200923 14.976516732067836 17.743330293165023
Sc 13.683408684741332 8.554362262098646 14.729757993959943
Sc 11.247361186530082 13.936157246644232 14.985242498143357
Sc 11.705538832283253 12.06142173560522 17.801882734836944
Sc 10.720926475920152 9.43262097100935 10.52103141725455
Sc 10.201154184457877 16.49625945302445 15.946050234664114
Sc 8.927879193376267 11.737933201870332 9.537108442611975
Sc 11.153267428991796 9.357184168887096 16.33820914424763
Sc 9.116611038711003 14.681035349376058 9.767016618485362
Sc 10.815787359591551 8.348666526623836 13.38894539689197
Sc 9.937425877141374 11.262834440216384 14.25603156552184
Sc 9.54979308002634 14.221430479888015 17.68013867812413
Sc 8.168165700998587 14.011923851420065 15.08037477386282
Sc 8.719065707068546 11.30814706205176 16.97536314631314
Sc 8.217431741965033 9.939457074139655 12.198342340671038
Sc 7.724623149262473 13.074854969400953 12.132925110055815
Sc 8.290556538174735 8.834085014707188 15.155605494142213
Sc 6.841059648899183 11.250411298784957 14.59829972878385
