53
Energy = -278.70957358 eV
Sc 15.98126442149913 15.781602564894333 18.33723920549871
Sc 13.451735506767452 14.224890935758454 18.35618078428347
Sc 16.66991162277467 13.118572800487453 17.287465928510397
Sc 17.122242525019878 9.792411488102989 16.889361495380868
Sc 10.202391167652227 12.444346973440338 17.692932714963476
Sc 13.827667682684513 17.15762699946941 16.683535092322057
Sc 14.523343622786893 11.242844626015348 18.429929391519515
Sc 11.073826055925618 15.266668858453315 16.35030184824133
Sc 16.713859563348763 16.68044113728393 15.514771273926314
Sc 14.697189437568007 14.546826099707218 15.65961417405494
Sc 15.247664292615047 11.188987608309894 15.536292391030672
Sc 14.473264872853573 18.529432962932027 13.789768564559337
Sc 14.35233643628474 8.461175328941605 17.11905755458295
Sc 12.629254001970969 12.47876481104689 16.094984767690892
Sc 8.572726049386885 13.576831839745822 15.021806891283727
Sc 11.440641510902669 18.453002734800112 15.30840967979392
Sc 10.226168649297625 11.099881490650466 15.03925965232349
Sc 9.537734029797708 16.410460082117552 13.826617337640434
Sc 12.597652763643499 16.22237620636219 13.845932613520294
Sc 15.511228165756565 15.87345446908377 12.836633781286254
Sc 17.314426437356843 13.844505257975538 13.941767223352118
Sc 11.71955523162192 9.805118172223157 17.436417478339905
Sc 18.220157207824716 16.91811721758814 12.758594830831015
Sc 11.107601198983469 13.673433403893512 13.627043457467828
Sc 17.335810886417054 10.664747692364102 13.650319351805331
Sc 11.792834366502142 7.270329967383621 15.675295833816294
Sc 9.698697457296547 16.846737948571196 10.896732660983757
Sc 16.358617307796692 17.767080951871936 10.5143864877186
Sc 14.512057050910784 12.824019389079957 13.206532559885996
Sc 15.684319019353394 8.261201166064694 14.517510266595375
Sc 13.472030583037064 17.028970935277794 11.000417879243846
Sc 17.25866742450388 14.889226128252812 10.628965500103053
Sc 12.920159882769518 9.706250771749408 14.5037658265086
Sc 11.542740393179832 18.73134167226578 12.345104740843126
Sc 11.558451686657037 14.628719043888934 10.774684716579957
Sc 14.400950635061772 13.988723863838171 10.428698774848838
Sc 8.731712053551453 14.070993412261469 11.640589772414707
Sc 16.5637878580036 12.016486303970591 10.943108771105722
Sc 9.061524239936135 8.768546852007162 16.152122646300203
Sc 17.879166570715597 16.26053430455239 8.145686241893573
Sc 12.204328327288167 11.513243671279476 11.992268162424343
Sc 9.243791530159431 11.161188287863201 12.268255080223422
Sc 13.090969429298458 7.255142416789006 12.870948377315667
Sc 14.732506334650674 9.736642394498492 11.872668809220453
Sc 9.50285406616781 14.876761314521795 8.669319521946464
Sc 14.904087156411494 16.195620845973536 8.430517054900701
Sc 11.705209722722648 17.020767293589824 8.693323279118308
Sc 16.104308549976356 13.501268335784415 8.074714742910967
Sc 10.437384291016311 8.50203728331818 13.317279025483622
Sc 10.551354004980892 12.033338844209206 9.526152870988211
Sc 13.700789653926163 11.270130151382554 9.337126139312668
Sc 12.63828801562479 14.026486916526979 7.989074355071598
Sc 11.724039930985114 9.121228202840529 10.604069157735221
