5
Energy = -15.90212363 eV
Sc 12.563929719220873 12.423300184677878 17.796395229034427
Sc 14.680965896061284 12.05842461538127 7.007565486144071
Sc 12.788483819983243 14.821546179602388 16.3986719092902
Sc 12.714067399107332 12.494564829735998 5.526784232234217
Sc 11.380451169321713 12.701399159849347 15.277868903480533
