51
Energy = -268.6404549 eV
Sc 9.898770595811 12.82546752657219 8.650019054776289
Sc 11.572176819599191 14.835465577628744 6.975634649965017
Sc 12.878568403202818 12.0142728884271 7.654171664139976
Sc 9.863803589336335 15.905426386563912 9.453126210039446
Sc 10.774545157987985 12.094840280023156 11.396076568453433
Sc 11.621975510427932 10.124005821098143 9.505446545542334
Sc 12.806639497586602 17.014492166370378 8.89393189990057
Sc 12.41130464880623 14.148488721596987 9.570679724791407
Sc 8.40549514852422 13.945223377374711 12.120788913440405
Sc 14.699713910433186 14.768448222591974 7.866432876837042
Sc 11.053522175630743 15.199730744604336 11.998471598528244
Sc 14.488368570403985 9.382702093384712 9.82459697358805
Sc 12.633910378201081 9.817898762367006 12.623551893040036
Sc 15.56455761158394 8.564829743723616 12.81280957323732
Sc 12.553642478637109 12.914106557355236 13.493491623340528
Sc 15.712493189369134 11.911028505150188 8.5295484114148
Sc 8.901247949011317 16.77778267166209 13.312062396793655
Sc 9.638917157376747 11.771826657882782 14.2346903072923
Sc 13.832023146963378 15.768247518059798 11.71695524666682
Sc 11.457042381140031 18.00758811490258 11.377746201615496
Sc 13.911405731515606 11.971097580082652 10.950860725793056
Sc 15.749872221201603 17.063890955272306 9.840383374188024
Sc 7.683843457730411 14.314061960746375 15.235933393692926
Sc 16.19372139499783 14.096311680366808 10.693354942687574
Sc 10.289088017163111 14.61787903282503 14.597317229062568
Sc 16.785810007073326 10.903053727801337 11.225953662414444
Sc 12.21903987491222 16.99072186680324 14.216779235253826
Sc 15.105823026972491 14.312021987712496 13.983796876756474
Sc 9.91208553219616 16.210973592506225 16.909000023579715
Sc 14.416280273858156 18.42212030609435 12.380343284140313
Sc 16.774711022063613 16.3817653040069 12.718052507433685
Sc 10.075018824447849 13.16685854172298 17.122789510180937
Sc 15.258544944425067 11.163145996786538 14.110770361927555
Sc 12.452269180264134 11.230710346413927 15.871400542716529
Sc 12.834337894415183 14.519569036523718 16.279041947908542
Sc 17.793726542207747 13.056841042885381 13.275055830093017
Sc 13.79697134679865 8.512364073168133 15.288380949717759
Sc 12.742368805658579 17.433784723318805 17.23786270813532
Sc 18.132851118808667 9.883831577016064 13.724426468134178
Sc 15.131147951556565 17.094460031357976 15.298416865209484
Sc 17.3884616343121 14.990538399516108 15.761701012880346
Sc 12.205089776046007 15.05862455907613 19.084622960915397
Sc 12.508839441606135 12.150282311288086 18.67650251986118
Sc 15.318717256930462 12.718240279579003 16.878744477685366
Sc 16.56758737765356 9.272788222360928 16.146376045393673
Sc 15.158883250156338 15.630359727626146 18.072922386335133
Sc 14.422603371355248 10.026661418909763 17.968642499472228
Sc 18.14212521507698 11.96048398961951 16.108850153334267
Sc 17.666325029558863 13.80629377310541 18.602511949048456
Sc 14.99000544088539 13.092715259059231 19.86188180587634
Sc 17.13173000287059 10.92255792623256 18.83875272495137
