5
Energy = -19.88214439 eV
Sc 8.878073689188305 9.109716653431189 11.167470550792824
Sc 10.6122671819243 10.34119358673143 9.333695726321878
Sc 8.20023803507843 7.276759405818054 9.27564905066194
Sc 7.749568162422492 10.08654448805599 8.593226578836985
Sc 9.93334166846363 8.562347015662152 7.384598204021901
