55
Energy = -292.34727197 eV
Sc 9.316086298801144 9.307537337294608 6.366902999386548
Sc 14.078944720365081 7.040877314725765 10.130779329924255
Sc 10.932854189246052 6.936712582844749 11.035542330552806
Sc 10.269247129106814 10.651158865281023 8.835577334813035
Sc 7.519450661444448 13.996182540590898 8.196650113254933
Sc 11.681126098061718 13.970767327219487 6.5121083737781555
Sc 9.265208474475791 12.326801309670525 6.451700414252128
Sc 6.093481599893285 11.672779768596733 13.168711515537304
Sc 11.613976423198283 10.011242888847482 14.161095396617306
Sc 10.354080607832993 13.696469861952975 9.211108813527847
Sc 14.241788438252998 11.225661712901651 13.369026894878552
Sc 12.893572578717464 7.3479407010167 13.41825481144557
Sc 7.281392148958015 10.948754043195162 8.266482965147333
Sc 9.00908572041677 9.407691734641237 16.142399435970177
Sc 7.223610560267961 9.083036129328573 13.900869158477233
Sc 18.21447263252369 12.333144826691791 10.364700337356
Sc 13.96254038802529 14.799955442989408 11.718880698051926
Sc 16.36061900959607 11.612464983442743 8.064049050629688
Sc 8.423941762997824 12.23312415195895 10.943019345895454
Sc 6.739386846501712 14.393375472365841 13.630756910722097
Sc 8.596102057130594 8.141174401422285 9.165206722843216
Sc 11.908714634215695 15.679617252136907 13.97183852344786
Sc 12.045474846540408 10.916435273726126 6.3509599746462895
Sc 17.287835123817523 10.673224969128325 12.780176294083278
Sc 15.344224319182361 12.182354642754799 10.849145789541724
Sc 16.184666151315632 14.415401344532329 9.224996285648658
Sc 9.861687456958277 16.112066192749513 7.86067684414602
Sc 11.730402359567481 12.696783311931165 11.911403973916585
Sc 9.024873941235684 11.72647425528183 14.068853687595015
Sc 16.444163024817335 11.661630664602761 15.479203718687302
Sc 15.481392210651867 8.307639241306381 12.622774338755068
Sc 6.530210033727027 9.700621231069471 10.974056333185215
Sc 10.25057903947271 11.697679688192377 17.18239224846831
Sc 9.206438944848395 14.425977206426372 15.769842511013533
Sc 9.517196419462367 9.452409757903121 11.809178059171188
Sc 14.287655973393983 9.442507112613193 7.919534294920305
Sc 5.823028107872617 13.263502807250493 10.643316038254145
Sc 13.085426239985331 12.198059453493798 8.963005968022332
Sc 16.899898870987624 13.636589020113862 12.83190119854597
Sc 7.836144305577685 6.9102506654398566 11.86409197860199
Sc 14.659197787525878 9.065083641440733 15.35985270426243
Sc 9.899143423750239 7.408691570871545 14.082274265934076
Sc 11.878815939380024 8.750768950831619 16.64767436667578
Sc 13.155467268207147 15.267526998307487 8.670512413883923
Sc 11.18403792592354 15.980977379077586 10.896878923487945
Sc 8.065938224965098 15.552085498325539 10.522267258987267
Sc 13.560008481038444 11.447178827318373 16.60949327248078
Sc 9.485445967673655 14.477949251001816 12.83995633528107
Sc 14.499947038181714 13.299041400874197 6.630211549253998
Sc 11.685188078298664 13.000401592851407 14.997771920933673
Sc 11.642482389494264 8.117783553042914 8.232338852855763
Sc 16.298674870427025 9.451983438200621 10.127893291487666
Sc 12.958433130244599 9.532913122932195 10.913916070267522
Sc 14.487585814222498 13.887252331459322 14.624190544871883
Sc 7.1261867598069575 11.931818404417994 16.12113066420898
