53
Energy = -280.03451417 eV
Sc 8.551297397642141 15.813350249061292 16.06690047593275
Sc 7.118900365237508 12.922721093146203 15.952040376858054
Sc 8.939309601456035 17.565220114255506 13.430927141112521
Sc 7.254643869889433 14.641668189638166 13.491617991739385
Sc 10.716405103830807 18.08070588574185 15.873729629497177
Sc 10.058356851634453 13.076635154709443 16.76245054294754
Sc 11.40398933089107 15.68807433046662 17.735272350972586
Sc 6.848109554359833 11.419428231881513 13.362343371059383
Sc 7.939756566984114 12.896769221363979 10.937101811371836
Sc 9.46241571003716 12.630780681915894 13.74956718157247
Sc 12.791215913186083 11.715010009256865 18.11145360797371
Sc 9.879418583716191 15.232443698635004 11.856483618512678
Sc 11.089096817677532 15.405626431361432 14.647501191466025
Sc 11.923648526590787 17.807775236834654 12.930631714533845
Sc 8.777180259072988 10.290741964625452 15.550443051273886
Sc 10.933210842063446 17.577550450489063 10.087150624148508
Sc 13.642936480592194 16.802648913988147 15.933031491363572
Sc 13.090657524334102 13.668072958829232 16.02847037705956
Sc 11.70684400294561 11.080644326541215 15.25076893326032
Sc 14.44028272380373 14.557165892540933 18.314103189995354
Sc 10.767687513158796 12.404501087390281 10.703129339936982
Sc 10.016184489805035 14.848543092181021 8.865009446484256
Sc 9.673398135195146 9.925620494049873 12.455143927081732
Sc 11.422192715179328 8.223019198568503 14.649375176831366
Sc 14.114788981915341 17.722723747927645 10.678515270927496
Sc 12.538640307328247 15.098591889073331 10.578043777942707
Sc 12.555468411477149 13.150556788102675 12.987677643887903
Sc 14.057524727938555 15.736428544478901 13.103598000779574
Sc 15.891568993392807 14.550565326409412 15.358800443346087
Sc 13.05671086831428 15.886403132118444 7.9857155717562565
Sc 14.714354776213613 11.506139707179008 14.436470228174846
Sc 12.704772773451356 10.149087238140964 12.4508707791985
Sc 14.065849950186898 9.255539861956985 16.299640916831564
Sc 15.670118826362305 11.941827496158295 17.108867208505977
Sc 15.901262549488182 13.3540515760828 12.500174228578004
Sc 15.70162916445109 15.186100776099606 10.14190658088618
Sc 13.978785322063747 12.40705872913698 10.273371972593967
Sc 12.200687083364823 12.795962247873213 7.897384586851694
Sc 11.717062710040993 7.497053540397973 11.707330077331374
Sc 16.773056415036503 16.409970254304387 12.891846840988428
Sc 11.917350839150654 9.84404634956699 9.542422926916592
Sc 14.367060389259755 7.904455203485485 13.503723625720403
Sc 15.04289119425202 13.546574767504953 7.594675694515078
Sc 15.677945696965844 10.276364709002918 11.722238778867279
Sc 17.896246665505714 12.459839515461539 14.546237156549621
Sc 16.888766061427134 9.50041448278212 14.600182564348739
Sc 14.409366700097735 8.083826277168804 10.210671388737772
Sc 18.556348456234147 14.094859803444546 11.713480027790274
Sc 14.701324748554157 10.483945379130551 8.1979773311171
Sc 17.10180136512066 12.301428828064811 9.583174694789891
Sc 17.16058261313196 7.777333730363406 11.967855715079304
Sc 18.49820483198628 10.788159298476922 12.051562201947503
Sc 17.31507845308502 9.27589332619747 9.444006913288467
