50
Energy = -264.81777903 eV
Sc 11.187657140734322 16.31402744968306 9.429204143615737
Sc 10.567995642290482 17.764685260229232 12.175352363447619
Sc 10.032134739845644 13.072852875985998 9.103840164736754
Sc 13.498761011242166 18.72099832664491 11.131470578173039
Sc 9.623434335685312 14.761117853920728 11.617223847577634
Sc 12.184883591902732 14.161589197318948 7.182630276406008
Sc 14.071748628219149 16.390262611771902 8.751965325143775
Sc 10.138841527652366 9.271833896896426 9.898754580825006
Sc 11.192838107533012 10.937082202928265 7.435839199464929
Sc 12.886773624356133 13.904277937359803 10.004658733964165
Sc 9.424470665228277 11.678460535318893 11.741802880229471
Sc 12.810308487228 18.03327753277324 14.295063663579457
Sc 11.420946659780546 15.51869593087334 13.786735578021911
Sc 13.420159106641623 16.132003020920255 11.75246276843322
Sc 9.552984848667203 13.28232829432887 14.375779502631838
Sc 15.785996262880209 13.829678761435025 8.923382152707852
Sc 12.298842990334865 11.079703117151604 10.312170805724493
Sc 13.186501360949185 8.82626289603759 8.933445964666348
Sc 15.602739940279637 17.571021461317308 13.57774322088243
Sc 15.54025974602134 10.850516651420092 10.00019674263983
Sc 16.34172985072635 16.114846361273663 10.826949411817612
Sc 12.093184106324722 12.888193010699574 12.768414090728498
Sc 8.693979651009625 16.19601670565329 14.522562553461954
Sc 12.264892739276986 8.392297350435877 11.82941965761973
Sc 13.896764172597148 11.768507519904674 7.731513019029049
Sc 10.303779757790798 9.565469738727797 13.648994367340904
Sc 14.32720867184831 15.051405915638814 14.335447846907895
Sc 14.217056166851744 10.604546395501847 12.901905569913053
Sc 10.888802910081274 16.823684806943934 16.589788095456832
Sc 15.397333182462887 13.313909049803808 12.046122449378608
Sc 9.086957720462017 11.079052307821772 16.197478030133404
Sc 9.284642442491467 14.277879003255238 17.22760175877818
Sc 14.933493618598243 12.314151889110653 15.385164914698786
Sc 18.068785935705005 13.24021208278937 11.08494469566896
Sc 12.14110462547607 14.069319514960455 16.31699466086035
Sc 15.234148713193902 8.208763131638268 11.771470879568502
Sc 12.036191991002413 11.192572367808234 15.288449888867317
Sc 17.3944012302505 15.187032267424035 13.44167044991056
Sc 17.214305170296377 10.515317914153167 12.353075509933284
Sc 11.02875163664673 8.93696571305887 16.77180279599748
Sc 13.359547535134368 8.40572895889819 14.708562291129953
Sc 13.917697743915149 16.46318973179528 16.998462126945014
Sc 17.74361323904821 12.444669816905872 14.45273703519486
Sc 16.56005908724764 14.649194932191175 16.39583096631416
Sc 11.726021516528045 15.069452543080669 18.95490178209817
Sc 11.344279549861401 11.87186881593113 18.192072101344888
Sc 16.249873055827962 9.618582205177253 15.072795620624968
Sc 16.91026425641064 11.676450219641339 17.410796330982155
Sc 14.354473236507411 13.318815619447424 18.199261888933318
Sc 14.040231744983194 10.186501385533267 17.349617427121274
