53
Energy = -279.59554032 eV
Sc 11.778901941925968 12.651073637061428 18.90943017183925
Sc 13.417317849915591 8.069352171009355 15.768768116880993
Sc 10.180600434442246 9.396270603946528 16.57497924758096
Sc 12.4639087673063 11.05750339883967 16.450318194758243
Sc 9.410237139585469 12.593805686800641 17.018083925240255
Sc 14.909657692665546 12.525092771523214 17.487268112558613
Sc 14.983031564469936 10.865193167053539 14.88291240503725
Sc 13.791861866510368 14.97680448251593 18.788915372874506
Sc 17.385142628552842 12.904875834649161 15.076937031841618
Sc 10.668520613137849 7.085437310774711 14.566712508448425
Sc 10.784181512778556 15.546364578208399 18.03244369024477
Sc 16.57643294421863 15.055719169994646 17.38737679703559
Sc 12.990357841708695 6.848182326146318 12.8279891961475
Sc 12.091597602078552 9.571600451118524 13.846199899168294
Sc 14.898575885969418 9.158739374883817 12.420199494606756
Sc 12.259272712573814 13.941898580678856 16.301916909941976
Sc 10.384129468050986 11.92972274686608 14.358119032672878
Sc 8.755568037392527 9.454648008765076 13.914246813029536
Sc 9.167205920131945 15.054536966880697 15.308875443009283
Sc 17.27297098178021 16.153949599749847 14.588670410666076
Sc 17.86381901572942 10.486725316369922 12.712028030005676
Sc 18.435227987757166 13.767576712655657 12.37882129268783
Sc 14.270686524496124 16.83097566477885 16.48414687816695
Sc 14.940602059658548 14.47213924617285 14.929721921805067
Sc 13.0124299466433 12.929157411430468 13.368315685897635
Sc 10.6178285279327 8.326969186960161 11.52814037872298
Sc 15.760709539955444 12.180119643498113 12.36892874133958
Sc 12.051323221842871 16.12823023084896 14.336216962398256
Sc 9.553993649768868 11.21271300855253 11.540688667705327
Sc 15.819516859105274 15.175720809751185 12.101064885153074
Sc 14.522705756875704 17.460052381897913 13.349161354957928
Sc 7.654529749186063 12.704382181677849 13.771693895159524
Sc 12.630611120027524 10.946531024089182 11.123051150971783
Sc 17.734708004318687 12.121042768950753 10.035553101824567
Sc 16.06254337975495 9.802897394479725 9.782710740164873
Sc 10.055044284552935 14.409460456891733 12.574060968161858
Sc 13.253821451262382 8.225727079788573 9.969141125110344
Sc 13.775277332567839 10.558545515851373 8.139454325203495
Sc 12.966786340888428 15.236941989683286 11.321208254197177
Sc 9.587354060683618 17.50852596604979 13.350510907192303
Sc 14.56653157088902 13.016324439609335 9.850025051683117
Sc 10.884576533268405 10.482568605911654 8.795515383571166
Sc 7.355674935386246 15.661769612545596 12.696336397034093
Sc 17.166638671767107 14.936108670147242 9.51117188305927
Sc 7.967305283141382 13.611093826471924 10.53636438831424
Sc 14.81196838627529 17.293168137745354 10.129438590959458
Sc 11.96527053210453 17.93882682161868 11.449651463128871
Sc 16.026091258813732 12.536482876035691 7.445934054743564
Sc 11.05967094304238 13.393505506021969 9.853600403099653
Sc 9.49853940004679 16.363574586270015 10.47315872878715
Sc 12.640762573218671 13.133810883802251 7.339349765600984
Sc 14.6265727863246 15.269119420376333 8.021203238815858
Sc 11.982638797763098 16.22353158718639 8.655367377127689
