51
Energy = -268.61482779 eV
Sc 16.00640653839149 13.519212831574997 18.369104256990795
Sc 12.904431637888301 8.43413885908027 17.890197991873727
Sc 14.46854497870111 10.995085111213726 18.08522768977047
Sc 11.020626598153806 11.227374411270967 17.704108283902226
Sc 14.580486568433864 15.939482495244523 17.172233039728436
Sc 10.451275830184603 8.804862523849277 16.059121320734064
Sc 17.010255034293507 11.58551764020207 16.21673709533104
Sc 12.804843018984684 13.667115587392331 18.233814753661242
Sc 15.36285722083686 8.706955296530971 16.00048719213869
Sc 17.12666282377911 14.735017378672524 15.741605454860766
Sc 13.18537679624205 18.449800108457254 16.090800859155152
Sc 9.125309924734271 14.026604312992545 16.85908752826729
Sc 11.424641046124025 16.23362530635308 17.09310611339474
Sc 13.093063216960774 10.278272087954056 15.596669790079874
Sc 12.619215492002096 7.105263537432227 15.246201293347312
Sc 8.86231322451965 11.207134549109703 15.285069743981625
Sc 14.505015202599825 13.085918965139435 15.692306632568531
Sc 18.04169864805841 13.01898998314911 13.315917247380842
Sc 13.040419255889537 15.692070371403082 14.56921477824658
Sc 15.938005720428738 10.666320432443712 13.466426398587371
Sc 10.303412864491879 8.13252917194021 13.15057293626177
Sc 11.353261271601234 13.225690501512554 15.443685520929359
Sc 15.651263004483223 17.28683358684842 14.592310052232072
Sc 13.458346624668845 8.768203018657578 12.938610946480468
Sc 10.065395109086236 16.026837558471794 14.426112295012786
Sc 11.140190206181975 10.779106780474732 13.569329414632074
Sc 17.195613335037685 11.782947465182039 10.453868936909679
Sc 18.138965523092747 16.09536076637264 13.162354180114587
Sc 15.540122404796817 14.53957727703528 13.001583671765447
Sc 10.514686117489784 18.758222722204135 14.972574551989203
Sc 8.413108584644931 13.645871884067908 13.69938436131153
Sc 9.130957944222713 11.610789651124424 11.60179589453275
Sc 13.19673630891846 15.651799673946947 11.259311170869317
Sc 12.926813414128162 18.227239815793006 13.090336847965105
Sc 14.64295064624924 13.138601838194104 9.840437986812137
Sc 13.534899496607558 11.987176909683606 12.384368341262771
Sc 9.039233389600495 14.643274901094358 10.660093490627945
Sc 14.761174893301158 9.959414256734375 10.307792365943216
Sc 15.702128174827514 17.35034210374869 11.519814183148691
Sc 16.727377512160555 13.763073384843402 7.770710519916531
Sc 17.29033730234937 14.84671778195201 10.575271480678333
Sc 11.14289769779817 13.867367627911406 12.516104530939876
Sc 10.574342059824739 17.106056725672484 11.604138869101368
Sc 11.528638660558947 12.912918846000562 9.747939866724908
Sc 11.557385600891797 15.835189148640637 8.816849764121972
Sc 14.819282373971864 16.070228556569646 8.739926877787497
Sc 11.68168824163361 9.946856927361852 10.783506298144301
Sc 12.930486824367676 18.262366260395833 9.90580838520054
Sc 13.618335037662263 13.629450905141498 7.2224151432924515
Sc 12.843347651209227 10.81036832694447 8.105441135306432
Sc 15.722795550724776 11.148589969824393 7.620869895098285
