55
Energy = -291.47752261 eV
Sc 8.923879667025444 11.340020683761443 16.23296329632893
Sc 15.705107345761672 13.665646061652538 11.439037815411623
Sc 14.404070131876837 9.412545316949585 15.460209190457485
Sc 11.222616710515714 11.880278977347698 9.43930649711876
Sc 15.843939518281694 14.044140674043122 14.727961815190483
Sc 14.408049448335605 14.815332957410778 7.247551230655278
Sc 10.616604884358036 11.298892524289519 13.62342785128785
Sc 8.463125727977545 11.675855195804035 11.354316310613823
Sc 12.944389239222982 14.757013158584698 9.90299486935355
Sc 13.899220404943309 11.411427737990731 17.95778513475191
Sc 11.124107295948502 12.696848139629454 17.74480106074592
Sc 13.123359448975268 14.768759888843682 13.165284466451473
Sc 10.302553676008744 16.271099051125674 9.881630191320102
Sc 7.891532426830623 14.835214977488697 11.754866907507584
Sc 12.9048879363098 14.946085584059029 16.458068872784185
Sc 10.520841992295944 16.579904227286914 13.086409710173207
Sc 14.207477871390765 12.178927980837912 8.959660256451098
Sc 18.78559158995358 12.40822666711464 10.754889064209948
Sc 16.345619263695575 10.66073616061785 10.272191300284367
Sc 13.22495884322761 11.511476276260652 12.027261823285764
Sc 18.537737835226327 13.460869763623991 13.36176927654752
Sc 16.146823130594253 11.216586437913032 13.55060028566591
Sc 13.235075508960218 12.210085673893465 15.134505968611068
Sc 8.897880609020042 13.742452904909458 9.122303518656084
Sc 16.688130104360607 11.337860592300826 16.61507537652204
Sc 12.725916265734003 17.08847749653756 8.107573323140663
Sc 8.522805300459762 14.358455815132846 16.993111353067267
Sc 15.481525873278253 16.366024277546934 9.660176963189553
Sc 12.92627680746119 17.414314706845712 11.307689034649586
Sc 10.741771353817775 15.56323005844061 18.805677700273115
Sc 15.57721236573562 16.63685937694955 12.801006901352727
Sc 13.105914510030988 17.50706037741343 14.718014351483252
Sc 13.143454187247851 14.135532541307816 19.522654836505502
Sc 10.531645839309151 9.53986319558105 11.174667012284104
Sc 18.400305663546526 9.842962235319128 12.360058461094429
Sc 18.33465239234871 13.948881876025387 16.330716105147904
Sc 11.455987865989496 9.857292520169416 16.236213500669145
Sc 19.20062123403586 11.108239690422417 14.93885595338262
Sc 15.554761349226343 14.043082249796498 17.79177257780565
Sc 11.391172284061719 14.41744218027704 7.438336947287791
Sc 18.135019728083652 15.446502707678937 11.137636463227764
Sc 7.880370875161082 15.965371150347138 14.59703443566947
Sc 10.620939620547558 13.752499668334766 11.710538642226924
Sc 8.865826245581719 9.312862919929058 13.816069561526607
Sc 10.39538264170892 16.848675735076057 16.199007255408
Sc 10.435938202408412 14.024693026247801 14.818185951973874
Sc 7.697343235980267 12.865377038097177 14.080148584246114
Sc 13.31694269108073 16.986702081646005 18.191033427864134
Sc 15.376789666973949 8.565566752753552 12.47892481779549
Sc 13.412863874213128 9.307742974344665 10.133507942645597
Sc 15.686079080131622 16.607353326569825 16.117007653057716
Sc 17.367559189589347 8.755332217919456 14.917492758736403
Sc 12.324860332895426 8.766725324194951 13.345725060123728
Sc 18.156675972327854 16.176676754694462 14.284490709890958
Sc 16.893925919232256 13.692033289956015 8.739920803183981
