52
Energy = -273.94111247 eV
Sc 10.50800958064254 12.196430219508139 17.853968257821677
Sc 13.830469737432052 12.419785515375501 17.90116266948802
Sc 12.05229582041154 14.912404722028091 18.656599475771174
Sc 7.650106125108232 12.605810770644629 16.65353794528196
Sc 15.401508125444506 9.772981228585778 17.802126454902947
Sc 12.44537916318216 9.982857027283144 16.47929060639028
Sc 9.446663758147883 15.171040907715977 16.977665265285875
Sc 9.508022280095076 10.647598792616357 15.353935439391648
Sc 14.631702943707982 15.321615088411956 16.926351424063643
Sc 16.661410627255382 12.71315104610536 16.85811256246013
Sc 12.09292661348554 13.786307359564317 16.011986758307163
Sc 6.901504698186024 14.992653887632308 15.0866254982846
Sc 7.062715757969546 12.102116013189782 13.64006686964684
Sc 14.806541005156806 7.997755537233879 15.459805809031366
Sc 12.049670737130377 16.868514379242093 16.02890295604284
Sc 14.836482655904746 10.95629041862487 15.17772052334321
Sc 17.479666539741817 9.701927010247063 15.460926524487851
Sc 13.109333246617629 9.003570726805792 13.08633866808836
Sc 9.44892852429018 13.57243246756357 14.359575071211983
Sc 12.097637943867612 11.739285866420683 13.81669548417395
Sc 9.431684898842752 16.692931897354658 14.176637508045756
Sc 9.583902223626962 10.707811945731992 12.284051480903761
Sc 17.341609821328163 15.433363114058904 15.118410788530037
Sc 14.777999947207135 13.854272537069903 14.315953117085567
Sc 7.743457153454609 14.909953180127706 12.115664015278643
Sc 16.35654555674757 8.454992444343103 12.802315873587805
Sc 17.494264618429508 12.51298412790738 13.98274629796392
Sc 18.89357684024894 10.337758152353654 12.7106447719991
Sc 15.443937126065894 11.170284691495725 12.109957907176419
Sc 7.651303985854269 12.287902834466182 10.544543602446467
Sc 14.493657865743229 9.435526628126714 9.856081154330928
Sc 12.069075216043647 15.375133171202016 13.338421123268619
Sc 12.261438726709203 11.009499274185508 10.920317106060162
Sc 10.421114442539265 13.534241063838568 11.338830781303798
Sc 17.461422043393092 9.797372253781807 10.239349558157908
Sc 19.35449355668559 14.743138565494771 12.864759774434791
Sc 8.741736240701412 14.653530420605193 9.067998411709942
Sc 14.726411107040311 16.97449537699486 13.932467124400409
Sc 13.799952829944832 13.609617657492871 11.112254591655773
Sc 16.34254147739733 15.18482766702704 12.046434847390096
Sc 10.24975178911498 16.58845693258696 11.098185680339379
Sc 17.935745117000405 12.853577552564799 10.894191966097587
Sc 12.032548165555323 18.354738782646873 13.164269186263526
Sc 18.049293884828636 17.507322440471246 12.930194412882344
Sc 15.88381449412594 12.033012138161254 9.063326973114322
Sc 10.158114735204816 11.958846092738089 8.863747931688993
Sc 13.394769481251037 16.592764439391075 10.984928649729238
Sc 11.855897674449537 14.7766485328096 8.970453534986493
Sc 18.470920192271162 16.004778663953626 10.196797113933387
Sc 13.17478283996886 12.107569683667007 8.323870012663017
Sc 16.073098801855334 17.859452541748485 10.724057459256619
Sc 15.397359695515771 15.139273332002782 9.053584875980155
