55
Energy = -290.28424884 eV
Sc 9.818673556565633 13.091365864987576 13.702698554860866
Sc 15.689129300813294 18.5688042183629 15.764114829212005
Sc 17.173265143444187 20.20514648236119 13.968612861340421
Sc 12.477915823518346 16.511625784818335 17.511021880491462
Sc 14.152136667997457 19.45216065399533 12.593495708962017
Sc 10.006285070407463 18.031460977875373 16.491590748098677
Sc 20.310134583052196 14.598973412287949 11.021076902717867
Sc 15.451138822286179 14.173032105861454 14.006755990075185
Sc 15.722096839334371 13.952852295527242 18.59815830881657
Sc 20.10780460941861 11.811996536743912 11.771417716941572
Sc 14.712516226048681 10.942819042919615 13.641532819849308
Sc 12.419305780531431 13.8104610016973 19.37414437308669
Sc 11.572771388397697 14.78644107409034 11.454437869039927
Sc 20.06117318104996 10.763581297769372 14.43550953887995
Sc 15.107302460598172 11.279155983821962 16.842014939566585
Sc 12.734943926908048 13.21414748767141 13.634393881622762
Sc 17.30465278084872 13.144977597419357 16.082190879263212
Sc 10.89474740677272 15.181262569729672 15.543001718207096
Sc 11.796816075863646 10.980250691984946 15.154787176666083
Sc 10.277565723231564 12.716631718486793 17.114631431679552
Sc 17.8638668954199 11.590576390623538 18.315631892535496
Sc 17.348027522776782 15.097795547655243 11.648717537674461
Sc 12.355145468740606 10.935061160728258 18.307238166806698
Sc 11.908289825585223 17.931271766019933 11.304488373602759
Sc 14.405819600275217 16.152762821208466 10.885248605235347
Sc 14.208501988767143 16.396528963946245 19.792629160627857
Sc 15.051241998156494 15.836287257936528 16.51007958651297
Sc 17.829723982106604 9.757398964408596 12.110025947361502
Sc 19.314848066242444 14.23278985546914 13.744673351203962
Sc 14.75027083229386 11.608121816680347 19.933497032789322
Sc 17.37918505177444 10.092686653261016 15.342546395903918
Sc 13.192678899241741 13.402681267367385 16.614496931468057
Sc 9.901332237694879 15.599073460048468 18.457028948216433
Sc 20.3334182863068 12.980505214868257 16.390089806690067
Sc 16.102908987585348 17.340016315367663 13.163055885182017
Sc 21.947413440132912 13.362329174254777 13.694753435612807
Sc 19.29991169004076 17.27577284408381 13.132354758591319
Sc 16.78783065559191 20.723469811759742 17.102512324267543
Sc 13.224119953045298 16.229013803387723 13.610400947370593
Sc 16.875004124006704 17.52982719774525 18.30630611328512
Sc 18.818132353209904 18.636190439678952 16.040162534873975
Sc 17.723190994364646 16.066689136879962 15.372361043907073
Sc 14.660672124186672 13.063410609476843 11.300781504220904
Sc 17.35091188890505 12.212451521515332 13.062815312321073
Sc 11.685166157952034 11.39014527306666 11.935528140169977
Sc 18.74078757570763 14.899905259067127 18.10757297796593
Sc 14.048077978616023 19.140485343610145 18.198934559736852
Sc 11.30139590867863 18.30950496978525 19.315679003887244
Sc 11.61614871942624 20.566745104053506 17.016242017688946
Sc 14.125439796645216 21.097776841871326 15.189149686596227
Sc 17.81997198277702 12.488570451673018 10.15702145392402
Sc 12.728571556405225 18.474402061127705 15.256911431432927
Sc 10.256210198417051 17.03968052157262 13.41247651075931
Sc 20.725759840995075 15.91832362546421 15.698251413121751
Sc 11.277186209890612 20.152139914976154 13.612287238129062
