52
Energy = -273.2510355 eV
Sc 15.390194528677178 17.057725493890818 16.962941140866217
Sc 17.185501873615763 16.117793088863397 14.323210747467847
Sc 13.325973561393312 19.128463547828325 16.50051072039742
Sc 14.295840574671564 18.362859085990355 19.375789605346387
Sc 13.377097960428971 18.51383319341244 10.976213150466885
Sc 12.222471631224412 19.671707966416083 13.54153033047151
Sc 18.10195687435204 12.984156005720909 14.179160914359105
Sc 18.059983190852474 14.525184998371046 11.698923561195851
Sc 14.29350546682385 17.423954449798366 14.081433131503584
Sc 15.88043375611091 16.538300226854837 11.580065467632702
Sc 16.27644832001473 14.032050720210561 16.58000228823297
Sc 15.675485108486136 13.186708894927506 10.713340658289516
Sc 18.18039212180952 11.4840640565052 11.293342466143239
Sc 13.35859978644213 14.893849868388699 16.037387638453982
Sc 18.466264448110326 9.820353042358189 13.821370335650002
Sc 15.03970556406373 14.175564876401067 13.532539416787007
Sc 14.209962745870003 15.835341825690803 9.27704423133861
Sc 11.443363964355711 16.89443442317856 9.17941068809138
Sc 12.258303353408508 16.760204850081312 17.998077878427914
Sc 14.630632495495576 15.22039957522067 19.05784503660649
Sc 11.349878218506118 17.083383961929915 14.870634067690512
Sc 10.460731076153005 17.79498588795824 11.932995755858766
Sc 17.02905545622238 10.962426665746671 16.32835802439239
Sc 16.326495981947605 10.707222358631267 8.820142467347207
Sc 12.782425244922917 15.854414547602039 11.992637175698315
Sc 15.882756692745767 11.131080975530118 13.284346158278565
Sc 8.791102231794996 15.611474863792806 13.648643137317954
Sc 15.083733282416322 9.121773403044442 17.715390533602474
Sc 14.078128114198407 11.797097523600913 16.04452250248326
Sc 10.123277243627976 14.871753418474745 10.869952538044101
Sc 14.980984084528739 12.015301499367812 18.803743532164063
Sc 16.630766012130298 8.818477549721988 11.54113717142913
Sc 15.175560641184275 13.346155426221381 7.855317714508463
Sc 12.668841740546748 13.108193598346478 10.504751624218164
Sc 12.241871381657258 13.41363542805446 18.43115151012907
Sc 12.820035738756415 11.447595345381739 13.183942056455553
Sc 10.012274784039791 14.693704376060657 16.526649903867
Sc 11.330281597480687 14.056677261007456 13.933698282010614
Sc 12.122014973600583 14.230747339715602 7.810091142737053
Sc 15.810618130919394 8.519865061679985 14.721540689686712
Sc 12.873704455127086 9.029878931391638 15.649676225513602
Sc 7.586387634761339 13.562401129095365 11.68850564867079
Sc 14.237665652189476 10.350006092026797 10.716265110702803
Sc 11.03514390490688 11.78442179008687 16.05766231336402
Sc 8.597400792386992 12.617603383149573 14.440340460857074
Sc 12.469601901503106 10.360190522880435 18.413426719148326
Sc 10.031169017730353 12.370819466847811 8.986389628523687
Sc 13.44357752462235 8.441585186803733 12.756651675265926
Sc 13.071193289943897 11.265445591279368 8.174583695975073
Sc 11.388982692255974 9.811504952063393 10.637760075016125
Sc 10.028813053437405 12.026210020453833 11.904615663463746
Sc 10.447605567143073 9.791578608178133 13.772782182048067
