54
Energy = -284.71415773 eV
Sc 19.206391916560285 16.92918575283603 12.229528024120265
Sc 18.425100224295058 14.373555569576524 13.926382875526766
Sc 18.25543175820304 17.23428874672902 15.231807951728259
Sc 17.365749132662 14.49647305946637 16.944969547507867
Sc 17.202673624269583 11.703944680859571 15.481326301473594
Sc 17.55791973317849 19.330176227995562 12.99769841095722
Sc 17.393104033355282 14.78147569086876 10.738939354689316
Sc 16.9100702236243 12.074247711258 12.310566638072189
Sc 16.255677051261394 9.187675685701828 13.603934724908836
Sc 16.809429195464865 17.887431497146945 10.342667348082886
Sc 16.454445155934398 16.529173913195475 13.001143821258255
Sc 15.791900230644476 9.402294756344837 10.156864730016341
Sc 15.387800781787659 13.986028138645503 14.524634842920666
Sc 15.233963129995615 9.686724284432911 17.037989760301194
Sc 15.533773529795251 19.2686502415446 15.18106335991084
Sc 15.49237653282559 16.570490938995544 16.29862467447877
Sc 14.836522520502093 12.782125631149528 17.31333818301342
Sc 14.19693745763369 7.659653272701271 12.188836946242054
Sc 15.034065866591252 15.603061975390373 8.846870177687059
Sc 15.559369420648986 12.555111985989011 9.433347754826716
Sc 14.329141027860949 11.13366095328481 14.736172593848778
Sc 14.607345471912636 19.610086099154646 12.290976090572382
Sc 14.404230200531197 14.126316803144567 11.63719429619193
Sc 13.423168215944429 8.262157462996619 14.932084558692624
Sc 14.189874727850118 10.771730854314846 11.844579402593437
Sc 14.148577473069011 15.545425899607768 18.72834208762323
Sc 13.86528547150952 16.999784541970804 13.983111352859735
Sc 13.922801754354149 17.060348651401274 11.09090313109085
Sc 11.56933207531657 15.173416680784579 12.846884309345203
Sc 11.680165420744041 12.168095173099472 11.462203330503993
Sc 13.22966121905215 11.00953486564288 8.868102414223792
Sc 10.519543296153241 8.037917059800616 15.805375908276991
Sc 12.146559128619204 10.704865004133662 16.856599535473645
Sc 12.24029974083162 13.215730499564335 18.868321816445974
Sc 12.722375066949908 14.816043006618541 16.18314956987815
Sc 12.216852894993421 8.69763553443572 10.289203021079897
Sc 11.291555003339006 9.609968042202079 13.165039918498561
Sc 12.67851966157397 17.89029106617575 16.491726270083372
Sc 11.226079566564488 16.531334559855434 10.224536258388468
Sc 11.180128418420352 6.8062588416604495 12.914070288996703
Sc 9.28209395564181 10.800376688312548 15.275241887875614
Sc 12.505158537168946 13.941336685293578 9.171988101998116
Sc 11.484021639159877 18.273953381502924 12.977583511054787
Sc 11.060316162977104 15.987542372522611 18.403521342038026
Sc 11.64235353882495 12.517689654756426 14.447324763455859
Sc 10.208329869753607 10.940737567736093 9.294008454837897
Sc 9.955296091002891 13.550711387583362 16.820720496335575
Sc 8.486147423642159 8.300914215466998 13.664890541807697
Sc 9.327926138884463 8.396890323536699 10.9046028939936
Sc 10.13939378855648 16.345799516600096 15.294084338730242
Sc 8.810485596079264 11.210581849152828 12.122104969810806
Sc 8.982028947634094 16.604924290581707 12.28741956359629
Sc 9.518353033505893 14.002495754102155 10.637600440145311
Sc 8.907879251541047 13.814710872176198 13.83850139962099
