52
Energy = -275.02224218 eV
Sc 17.39006472810646 11.533077746520586 11.313325986119118
Sc 16.149274263290334 10.541389140657671 8.337240671835719
Sc 16.10167949154831 8.847064953533472 11.121819443851455
Sc 16.56118868811465 13.823649152534092 9.477315028365524
Sc 14.18004012452656 13.18710028091527 7.433333782093557
Sc 17.61715238761702 14.47372795476885 12.6187923425902
Sc 16.02895390083101 12.283929936059618 13.949938665982154
Sc 13.814090593147368 8.313719380492005 9.449766102306105
Sc 17.064035615944203 9.518487798576995 13.917220124763277
Sc 14.762678914100663 13.997069638030696 11.806601987224546
Sc 16.491204091164203 14.104631442746427 16.21408646072774
Sc 14.533110397733365 11.458304062379826 10.190724640639212
Sc 12.750041096656002 10.487334977130729 7.7724535899163705
Sc 13.549405143329746 7.520993591742212 12.297008767778324
Sc 14.234139078758792 16.2033331273897 16.828229821640946
Sc 11.024058170808399 12.680522809377202 6.754358544444552
Sc 13.990423663306256 15.672150587855356 9.339334177370192
Sc 11.63583552262799 15.532246782457312 7.489064230509656
Sc 15.719268154755415 16.11140528636287 14.234463849840337
Sc 11.982935361706604 13.222802647575449 9.523858182228583
Sc 13.583838304127173 13.960595224547555 14.991550292798042
Sc 14.106473389460163 10.295597338936965 13.047829984757067
Sc 16.222542073786613 10.911886220425743 16.64176600773398
Sc 15.743199113875606 16.91865195667189 11.433605390604995
Sc 12.027722382276163 10.135678093193764 10.97164973077273
Sc 14.639305124981284 8.374888081990044 15.499206971830063
Sc 14.006175558873135 9.715743750383092 18.35867625862207
Sc 10.64530516152016 7.88749257943241 10.785066373470917
Sc 11.411709991667594 9.045424632314147 13.882812922252054
Sc 12.908553461190944 18.250930647154693 10.740579405431687
Sc 13.375865118446544 10.970814796597596 15.857025802150506
Sc 12.909578543356243 16.032568737401668 12.646871594269316
Sc 12.12266041991773 12.664189529813216 12.565227885776732
Sc 13.739571499560382 18.460511904188646 13.932274130841488
Sc 9.774706231515813 11.014201850559042 9.176998316024175
Sc 9.053886635486235 14.247868872812306 8.461260053701768
Sc 11.770418755240522 8.538410504718087 16.79433158455345
Sc 14.09247941499797 12.9854522501678 17.93107621476085
Sc 11.634583996011786 16.98276561935722 15.55972768141191
Sc 10.714629405443816 15.95152042982429 10.47868005749274
Sc 11.230841100961285 14.352801020297955 16.969186881093975
Sc 10.668683590724022 12.024185985027163 14.994307342432254
Sc 11.141378555856814 11.313468112731877 17.922038429200786
Sc 9.387615888299406 10.609169966521913 12.457128156132791
Sc 10.401793741775007 14.89177780923717 13.717435252592418
Sc 10.60506722729218 17.9477824482366 12.921027214397
Sc 9.317172709416752 13.308471648254143 11.281757816333577
Sc 9.035393853109442 9.96208197086129 15.808575388864163
Sc 8.072082622305501 15.926570761742095 12.321902608761507
Sc 8.560939303826595 12.844347402262672 17.00575943629221
Sc 8.592971787734198 15.732506105803767 15.627341088605252
Sc 7.928525542192175 13.12665721695865 14.015273008274463
