52
Energy = -273.37409651 eV
Sc 13.971224381018652 12.347086514334892 6.9962850735205135
Sc 16.62902111255907 12.058597953748945 8.383671691307827
Sc 15.292049460534534 14.840012925805885 8.077721574888145
Sc 14.307065688062831 9.712277959703625 8.753534580664214
Sc 18.835308781445484 12.658264377671749 11.092342004398102
Sc 18.236268740107228 15.173892937112939 12.68151835285873
Sc 12.187902300715622 14.600759902721485 8.266780724400359
Sc 16.15397978269508 14.04786738546527 10.832166330275955
Sc 11.267106322858883 11.61898730279351 8.341058600766377
Sc 18.899635700418454 10.477768937354838 13.165952864967293
Sc 13.91782062131723 12.319275299915637 9.961716631456108
Sc 16.509425228006428 10.498253499788392 11.002325080131126
Sc 19.466933792014977 13.224879226241818 14.586488550038597
Sc 14.352389107537027 8.401816899239227 11.70716430632155
Sc 11.940633367589925 9.880912435863822 10.682925163286257
Sc 13.591156331902912 16.074822794289854 10.457713151403553
Sc 15.643117919009287 16.592643898317544 12.642965194526884
Sc 16.814171493941668 12.564571067714214 13.434666750625729
Sc 16.27399729134111 9.185337255927337 14.035371658906923
Sc 10.550306444123912 16.281410468162335 10.810744080654905
Sc 17.92236981066731 16.300286708953045 15.345736183482652
Sc 11.200516349486147 11.249136920286976 13.119716395902831
Sc 9.224343649105693 13.995936712324212 8.970935766912604
Sc 11.274102340442125 13.457491695210269 11.021578889357926
Sc 18.286127921655464 10.785024593276201 16.03768126906911
Sc 9.113704520751018 11.479224013830812 10.744937069620724
Sc 13.754269180238804 14.020758590471017 12.79384611222583
Sc 14.202271699043365 11.067630472746304 12.894227905987476
Sc 15.499937061072409 14.710455293040901 15.136890999005873
Sc 8.325006033502286 14.33825326651402 11.868197576990594
Sc 14.79480071277201 17.87576696026027 15.25579803459901
Sc 13.138643872916003 9.293412093453009 14.932835718460737
Sc 15.30048649993287 11.440973206968614 15.913316410439421
Sc 12.484504896409096 16.691251855172013 13.36959396169027
Sc 17.572018701635663 13.628188507482987 16.95141867564679
Sc 10.352780302408377 10.178791363695904 15.762141381831723
Sc 16.028184527191293 16.22735853818443 17.732535771735797
Sc 10.407399436994226 14.270691291608141 14.04903640766676
Sc 8.3846365454951 11.921795590122665 13.875161698921161
Sc 9.286887349865978 16.962621090652032 13.6792269768573
Sc 12.487624330400099 12.601877928482496 15.522114947589744
Sc 12.79350347206566 15.711062036565107 16.48223144223383
Sc 14.570076274670743 13.308724559839346 18.129014625879204
Sc 12.510781958161616 10.910301704735359 17.760056600678197
Sc 11.4921252581889 18.324556715566253 15.842948573893928
Sc 7.486764036197083 14.63563188681025 14.826085733097555
Sc 13.76350075382288 18.337070405898686 17.98150763846273
Sc 9.686423934614822 15.835257299254348 16.54485240555063
Sc 9.38472742587111 12.78804853114145 16.623632859108845
Sc 13.667734503323656 15.725585684936688 19.597609469705688
Sc 11.476313442576549 13.876928773696745 18.48137204464
Sc 11.208319949678193 17.135806521135333 18.76128958501332
