55
Energy = -290.98135393 eV
Sc 6.6469680074012745 11.534624542525611 9.706102148485735
Sc 16.721179732863046 13.418120495814481 11.454765827409869
Sc 13.733343965550219 8.74548375952911 13.721431110552503
Sc 9.439876855520879 6.83423078676768 10.607129488687583
Sc 14.126720725311685 13.155741010251713 13.450048889705263
Sc 10.494824787320773 8.75093448914788 16.354378847393015
Sc 12.41201331614289 11.48513959091656 8.443001387594583
Sc 11.204539603240292 14.068700935004713 16.0845705255315
Sc 14.265059090149261 8.197758607971144 10.709512557414607
Sc 9.275759486408827 11.102674126582334 10.461805711174804
Sc 9.256796374553964 11.39089049169798 7.433945772611259
Sc 10.642904731412631 8.851449326806586 13.122797396309917
Sc 6.488796422670038 11.804356928863513 15.984288864489427
Sc 6.950863235343437 11.720595493760314 12.944509843069525
Sc 8.055858294494575 9.539556687369307 14.741809090025153
Sc 12.393163371012962 15.97650523518844 8.72227801702853
Sc 9.691286497587269 16.570181602534078 7.49442115132633
Sc 16.596783544235997 13.371192090147375 8.42421681212689
Sc 9.999315166683102 16.243738259096887 10.545431674955774
Sc 12.025594569296223 6.445539325081404 11.998358879023517
Sc 14.005796694749169 13.779587442243475 10.287496512747666
Sc 12.036597516579423 6.611442806376924 15.0290052878101
Sc 9.23523187815326 6.566705029750562 13.794341685657592
Sc 11.376149838014825 14.327370799481125 13.055288021358969
Sc 15.920187183919458 10.72106853092327 12.752242550954108
Sc 15.236289406942905 10.980040519464067 9.735775715006652
Sc 8.417054152775828 13.876364053019664 14.759044796129695
Sc 12.209499465172874 11.101800797371505 15.033391023957986
Sc 12.799588951246117 11.02236100855145 11.744095478303038
Sc 13.44772938514558 8.695120248853325 16.757931179024613
Sc 9.470324755612495 11.623794507747977 16.47653869712082
Sc 9.946008892475856 11.743216773512682 13.285335701238752
Sc 16.78128554023346 13.52521432533704 14.646691772932872
Sc 15.506489450306603 15.76120714483122 12.888958803877154
Sc 15.583977847040837 15.960416880241835 9.645391153259492
Sc 14.211827668830892 13.826302800192284 16.372790614913843
Sc 13.11647431258336 16.16392329997999 14.744414904791766
Sc 12.867033165832714 16.57617244411992 11.647014250345327
Sc 10.967600683433082 13.86999856710659 7.025583294545573
Sc 11.371984209251652 8.969836500502455 10.049054676823298
Sc 9.990060677477794 16.579282889431134 13.795229655955302
Sc 10.723781129478416 8.745899887107406 7.197766969854034
Sc 7.606904485766261 8.93931315934928 11.796109836791688
Sc 15.103801282423943 11.024103452366859 15.729569148541446
Sc 13.638515404568148 8.85062857233075 7.720436590510512
Sc 13.999415171324193 13.964246517799598 7.097023559088313
Sc 12.527968734270738 11.409497341086494 17.76558739059054
Sc 12.288503306676452 11.106589607098046 5.703483350951903
Sc 11.088942967712486 13.448811354066072 10.243709493406023
Sc 15.986656105299582 16.25210012878798 15.855016790872313
Sc 15.167487244488111 11.275706009362727 6.724857982921535
Sc 8.27061829548828 14.150518580803837 11.789393497184944
Sc 8.149512244889891 8.892206620521751 8.792076348220908
Sc 12.032112913697587 6.420830669976651 8.868335388362455
Sc 8.513231260939275 14.047196945247187 8.80250388103353
