53
Energy = -279.48120955 eV
Sc 10.70297289983086 8.516960641986232 8.851556704405631
Sc 9.529150914158432 10.792600370548087 7.207984477065339
Sc 8.136591509385761 10.179242640414772 10.061571995038431
Sc 12.64201200003283 10.464827755830505 7.488449500212881
Sc 13.17456743338004 7.737165226166136 12.761060062286926
Sc 13.265744480888488 9.661585808517678 10.370712455280358
Sc 10.55618315989371 9.077142932365653 11.859808384638045
Sc 15.786176656744978 10.875977292422037 9.519214417166086
Sc 15.749053010522545 9.641720347031313 12.639960729830483
Sc 14.070631036754834 9.157201984105539 15.380453534611027
Sc 10.769906431112496 11.352706891461258 9.77475512659048
Sc 11.374325866742703 13.420476306640385 7.571855411332272
Sc 8.56555412643643 13.263012403286492 8.947288006149572
Sc 11.074565762575805 8.482882077390347 14.790342172254894
Sc 7.194028434550644 12.764495918974893 11.63138863049038
Sc 14.351379508190835 12.890667466141672 7.812259939247819
Sc 8.143897453734914 10.052814443019336 13.322316448909124
Sc 15.53621015440095 12.542319588739966 12.20583271660561
Sc 16.55033195410863 13.808617132613847 9.629580538025994
Sc 13.190453372271152 12.918420089035482 10.459244545718395
Sc 15.644073578997546 11.751229128081224 15.266840633874315
Sc 12.727579193110547 10.829194828990195 13.179339380835463
Sc 17.287311831136662 9.435185533284146 15.509466239309237
Sc 9.973314526795333 12.364703148587209 12.632528833564036
Sc 18.134866604776324 11.462122365306072 11.284943579289617
Sc 10.150932538203946 11.120359127948099 15.403127397866747
Sc 18.426276204572595 12.05100453538214 14.218584442611746
Sc 13.167028182588158 15.532669833722306 8.8920176352694
Sc 7.466262200889247 15.693255033044252 10.201778846219616
Sc 7.674767964077508 12.71512617171746 14.82350857846689
Sc 12.154074103276576 10.179616822894426 17.58484373131641
Sc 17.881984221828695 14.43461856162898 12.40771610855197
Sc 10.543163719120976 14.816981922454136 10.863282868436281
Sc 14.895225481315984 15.626836211881907 11.485630433214528
Sc 12.558358036087933 14.382485403062832 13.15920397429311
Sc 10.018812265061142 16.28549549019192 8.563465904751958
Sc 15.344253665287875 10.60953221926526 17.951560895480043
Sc 18.07787985286547 11.930362024018777 17.133529384402802
Sc 10.436385851865724 12.847200213840866 17.854090658128328
Sc 12.793402979662016 12.50355993504508 15.833549542354957
Sc 15.253788380141364 14.746037079775677 14.531720096723816
Sc 8.367918287873987 15.268818940199212 13.016634311395691
Sc 18.066061434360574 14.833680204986676 15.583139729608089
Sc 9.348562983059388 17.71721466879245 11.262642655575007
Sc 12.325834944223493 17.275791627868905 11.22946898269276
Sc 16.83948643058375 17.098697255044858 13.614851572347833
Sc 13.824957197868253 17.385325164189368 14.13229694113938
Sc 10.261175790467583 14.137696015139486 15.143767184927421
Sc 13.309132090745242 12.814188602265837 18.719253946645523
Sc 15.791756287756089 13.915085183733796 17.513164499088965
Sc 10.853474830097479 16.82891462611778 13.860014798718298
Sc 12.917682891044606 15.3830849982121 16.57918286573053
Sc 15.817858062328218 16.871625267234492 16.470962033290252
