54
Energy = -283.54362069 eV
Sc 8.08338929211812 16.162405291447612 15.557772840737373
Sc 7.894153615107811 13.109934567148525 15.141484829680689
Sc 8.698280529234037 10.047383079729887 14.592934271563369
Sc 9.052584606798433 14.344583147131923 17.687637034940472
Sc 7.94467835644179 9.635189220812151 11.717159288158083
Sc 10.443431139849933 17.575496150967197 14.119144881053778
Sc 10.828521368104205 16.78002808183923 17.20143479197886
Sc 10.30485265643081 11.718215809361235 16.826460531944864
Sc 8.455911415067755 12.50403589695067 12.351460373375103
Sc 8.783541742970762 15.400818328001915 12.684026368852082
Sc 13.365299962622416 8.80416424549775 13.203416813327271
Sc 10.573955126367869 8.477023247403388 12.463393841474756
Sc 10.567630326892184 14.528668137137347 14.985716828747385
Sc 11.987193389115975 13.947491542912815 18.432929619782076
Sc 11.82368551319628 9.420169659113599 15.691443642169622
Sc 13.379244793627263 15.331510727271132 16.048304079026742
Sc 10.350814992407921 11.091545555866883 10.579105674107632
Sc 11.008073389571166 11.354414839303576 13.58072925395103
Sc 13.546758249868363 11.097264202272756 18.011297696101327
Sc 9.778730815855608 14.149074763066524 9.838788393841485
Sc 13.161673862102822 12.367004436328408 15.513344840145095
Sc 13.08357195365787 16.243007805376468 13.174606509605564
Sc 12.88398584814601 18.302761648066003 15.735630006735537
Sc 13.780419528991608 11.625106128583873 12.366834445599714
Sc 13.195673213774846 6.652963035574371 11.3359043236706
Sc 10.888321774210851 17.004104289733114 11.173224605953408
Sc 11.595370085270774 13.894573883054285 11.95554285979624
Sc 12.932611624367773 19.086140731398945 12.693591506991336
Sc 12.817690409127332 9.47924031895679 10.261432464280793
Sc 12.748684664330563 12.616332509695004 9.345900753592414
Sc 14.880884668240226 13.876136752298354 18.269626512069184
Sc 15.005269651503369 9.89815834107518 15.385249094753995
Sc 15.500688233674367 8.789212077381915 11.205056506518611
Sc 15.324974174762936 17.61065246489676 11.143073582955056
Sc 15.357817706522678 14.038851403001322 13.80674577512742
Sc 12.687910879957876 15.70152935812635 9.066438371415757
Sc 15.389036120897199 17.679489047927596 14.33113567613315
Sc 14.84539860867436 14.484366080631888 10.90512961167983
Sc 13.013377115753576 18.63825414983179 9.603489268925111
Sc 17.511785694885102 8.397264353351463 13.460209380891412
Sc 13.973656815184187 16.756793423911272 18.31952961487298
Sc 16.169686396377404 12.413625661909155 16.200890647897644
Sc 16.699530311781178 11.15927641235141 13.258491300764092
Sc 15.635605999222083 11.602753190465785 9.935498418019097
Sc 16.40233924403041 15.540061557394015 16.248735283054494
Sc 18.281967573255308 10.337974353998742 15.743115904752718
Sc 17.345668908764303 15.957352564237064 12.817625011386722
Sc 15.223108319150755 14.130723737341654 8.009492558496541
Sc 18.207495174095722 10.018550752800085 10.803694197658476
Sc 17.325710630157378 15.658891866623835 9.618670116976311
Sc 18.48230637584299 13.410600154601983 14.585600907769706
Sc 15.208842367982502 17.13114447598129 8.145663663775414
Sc 17.753594760898817 13.233348541559645 11.484638252841854
Sc 19.65655815447725 10.720061519771816 13.19309637355195
