5
Energy = -20.41296371 eV
Sc 10.240097432973641 9.68918612768424 10.214696565878766
Sc 7.4063029545855406 9.364571625579657 9.33742645641304
Sc 9.243104275153478 10.98849670223669 7.854253573992205
Sc 8.911056830916529 7.142097173724382 10.344969096392699
Sc 9.611239418435984 8.139889326682164 7.7461756863072875
