50
Energy = -264.41674235 eV
Sc 13.037930767462449 9.246690426487293 9.620133624838639
Sc 11.1132664822719 10.883931612762948 8.15837104705449
Sc 14.292654744134332 11.427759583313884 7.402373189658177
Sc 11.539453799032838 8.245063029317492 13.29679228314176
Sc 7.717573125933488 11.08001775758167 10.361778941914245
Sc 14.226854973944354 7.953573909207274 11.935792068222732
Sc 10.292937274186512 9.290616293663863 10.66478651723277
Sc 8.78031071745126 12.853707820402839 7.928198467511226
Sc 15.87429231745431 10.023977539533963 10.111586178849686
Sc 17.229346672762002 8.524143576518528 12.579696304894501
Sc 11.8361845176097 13.811851035395819 7.608241522941452
Sc 13.469423873565775 12.21909084671582 9.874361202358873
Sc 12.249159487020314 11.060248352965928 12.373259037886516
Sc 16.521829187538227 12.90125878006373 9.499009524223682
Sc 10.127791102678277 12.51055938758189 10.552531789121957
Sc 12.984121661341678 9.901213952415704 15.263971666730743
Sc 7.347656366726613 14.044714956460624 10.217241722484928
Sc 14.595978848526695 14.504861552262458 8.081127242675725
Sc 15.207876895544665 8.050854061056372 14.838096876821663
Sc 9.390273522206765 10.514471673334437 13.253380674422573
Sc 17.744915511460214 11.582813957892366 12.12886816325654
Sc 7.9639966436383585 13.149529954078108 13.013047806849535
Sc 15.136971359275062 10.463263999028454 12.976616711293646
Sc 9.889940593226566 15.414796273896222 9.438614502034909
Sc 17.26655075692975 10.523901788039888 15.125376404609606
Sc 15.162436637946724 13.421627632757742 12.260254484772675
Sc 15.743110374301837 15.892851572995912 10.37911398419129
Sc 12.830751346994349 14.968964803186172 10.727061589615015
Sc 15.13852121390542 10.210885446900924 17.343119733018526
Sc 12.873868902179318 16.936567844577063 8.803998741623658
Sc 10.772273245383385 14.27324069627882 12.820220828898114
Sc 11.495464782318026 12.52524957992464 15.436483042927634
Sc 8.513319250945923 16.0685348794577 12.335427128749998
Sc 10.138812312184672 9.602733043648973 16.024641814597064
Sc 8.474049161316906 12.038726179020728 15.902071769257772
Sc 13.441310501487884 15.12971984889886 14.071830627684358
Sc 16.900303806961297 12.674442631759849 17.427818410870614
Sc 11.00525798156435 17.3390745110465 11.29413901509692
Sc 12.059736271626603 10.66586318509753 17.937553911890618
Sc 17.428614290251517 13.592811661347332 14.5420610433529
Sc 14.80981312462907 12.462073842069675 15.325336897603258
Sc 13.766376874541217 17.53483926994319 12.176034597563323
Sc 16.135172574577176 16.23408751730754 13.524663061040428
Sc 11.164629511281019 17.07579833671709 14.214137847213657
Sc 9.311451103706517 14.884357666442632 15.425562123074396
Sc 13.684594999987677 13.105234596340829 17.97835236235396
Sc 10.343757785540475 13.1854168974495 18.034804491068915
Sc 14.042085735236089 17.76804049112783 15.233391696353351
Sc 15.429416648133795 15.237547733020348 16.40442966830492
Sc 12.149884311930734 15.48639563047338 16.718059136720836
