50
Energy = -264.62810485 eV
Sc 14.466619509899939 10.926669912857268 18.52679430719306
Sc 14.712081639786058 9.350470265073364 15.705255532434842
Sc 11.78958565058543 10.023526732986683 16.99803010275275
Sc 16.6334844839986 11.882038696621484 16.238480616260787
Sc 18.428381981272487 13.484621070981541 13.701339573564693
Sc 11.89449107170735 12.798100227503607 18.396577942079595
Sc 14.768370648560417 14.078700616716558 18.082900561352506
Sc 16.62792573353104 10.250901690375361 13.402292054405855
Sc 16.921775046232273 14.907909619572896 16.0763874429597
Sc 17.682011291823464 11.853782178499813 11.16019428496371
Sc 13.975435392015688 8.274883240343158 12.413060467304987
Sc 13.675180240060469 12.121911406031687 16.09842411508991
Sc 15.462397920645564 9.815654656424837 10.306844475857414
Sc 11.980373531484606 8.564351044174506 14.52568436742282
Sc 16.3378465584514 16.31447592836828 13.567319270211
Sc 14.624092608994328 17.389395641578272 16.414652646341807
Sc 9.501286052673763 11.822713987248259 16.778751814046174
Sc 17.224297417692505 14.69035499273951 10.851140649047734
Sc 15.72644776897661 13.312063295871543 13.6356881617302
Sc 13.73319569492654 11.111267139332476 13.339067993459738
Sc 16.16549603277254 12.290303343622613 8.256320804970635
Sc 12.122845588683813 15.699436187901918 17.641733534049223
Sc 13.98083589641001 15.06851301240044 15.273918349007495
Sc 10.607352216419464 8.62590962992312 11.949753899031512
Sc 11.315662178072598 13.801629629511314 15.328314734271267
Sc 13.412958046217422 17.33867374598037 13.378939444183459
Sc 10.739374816106084 11.266056824210645 13.809548082733548
Sc 8.10700713196064 12.610118093883727 14.388326919210447
Sc 14.60619761982529 16.26974526360323 11.013707194950703
Sc 8.958382830574141 9.398307385943916 14.85578818346959
Sc 12.736087058488515 8.216866886113598 9.456949272901626
Sc 12.761092423573366 14.230989648637141 12.596281768897002
Sc 14.857888803385363 12.784912059675237 10.77840354125234
Sc 12.509215111386046 10.610820311002861 10.87644710361097
Sc 9.118236770658624 14.950276364952678 16.535595643246833
Sc 11.222214255806291 16.889367682089077 15.176517797514615
Sc 12.517107321589249 13.980475855003107 9.447209052427027
Sc 9.678169127198334 15.032296703240704 13.0717695420911
Sc 11.591925697552682 16.59942353467448 11.00383009122536
Sc 10.294702022678198 12.740278686658153 11.086678073886429
Sc 13.258283097084208 11.099999402540474 8.139887504369037
Sc 15.174686840506205 15.11284653257172 8.414488451965788
Sc 7.3573803423395825 13.695224743606056 11.605380536078446
Sc 8.267905239878191 10.70175806380191 11.809641617879306
Sc 9.48100632963252 15.08717839653432 9.52952376134283
Sc 13.59544676107703 13.590578910467247 6.599164835116585
Sc 10.191792870650712 10.153305090373618 9.172873600240527
Sc 12.183643192829404 16.10537924751662 7.799949591531871
Sc 8.0460354771508 12.406470611332875 9.06471412180873
Sc 10.661185533895782 12.947801991816153 7.542855743283502
