50
Energy = -262.3810578 eV
Sc 18.35481688506209 13.043240834865792 11.505138078398996
Sc 15.805808462123355 7.71698812949105 14.64787452497201
Sc 16.833429457113088 13.150018020975468 14.133914658805812
Sc 16.906191938595107 10.24026294534554 12.55003354070478
Sc 16.04260470183225 10.587781365255799 15.692145130261627
Sc 17.24559973508288 11.464052436679088 9.336344356512438
Sc 15.62500944452358 13.42942596180177 16.75753989081106
Sc 15.327898134271097 7.018492230493423 11.888101798323891
Sc 16.362379268278822 15.448056762399924 12.329280606155837
Sc 16.852636674720298 14.547365855049621 9.41681199469121
Sc 13.702002439711622 8.90313021803291 16.450694501991617
Sc 13.252449211503054 11.831803815842294 17.45202735281864
Sc 16.23614676058094 16.252271551218605 15.684236296397563
Sc 12.8454587932049 7.019671942590645 13.988473613952795
Sc 15.284277427471649 12.638014995766142 11.25961095855592
Sc 15.086801539615822 9.565985395548699 10.160536878707495
Sc 13.949673127609143 9.44003651979105 13.029253358974277
Sc 13.920217443556055 12.172374555814468 14.29803145678857
Sc 14.852119180608398 17.161173315952258 10.424820391207204
Sc 14.223947666499907 11.987360072187158 8.216952026214274
Sc 13.45038081259539 15.166814080469093 17.554678860838806
Sc 12.60478530320643 7.582559745715725 10.855593975688032
Sc 14.069914382483725 15.112476224308697 14.436686390179595
Sc 15.085818285634279 17.95784768462352 13.504486071785944
Sc 11.639398014952862 10.065565115632346 14.875377615086377
Sc 13.009230568997884 14.80598990841358 11.51513458428387
Sc 13.114567819556983 8.98613656125414 8.045473557306511
Sc 10.281878743312388 11.128560549271551 17.213963871219132
Sc 14.057816883632073 14.936783269664518 8.689322406728756
Sc 12.327523967144373 11.098707183561721 10.407251608886668
Sc 10.531404984207366 9.403724242456338 12.271730840023242
Sc 11.454777799832826 13.550601035393218 15.758311560007572
Sc 13.218662522656588 17.641693584537087 15.764067041924767
Sc 10.869425020183284 13.685138154385333 18.63785822387473
Sc 11.735589656564432 16.811682129849753 9.610769680320294
Sc 11.475162488612478 13.689951151223337 8.930217001686053
Sc 10.318530822206968 8.91968312519566 9.306334739047314
Sc 8.839747834245449 11.268032822730706 14.407023187888973
Sc 11.08419861514763 12.526813412820514 12.877139035165166
Sc 12.442162459997478 17.98652755003085 12.287778400870598
Sc 11.021212001810479 15.900863528488674 13.897940644457993
Sc 9.876515137260268 14.893605247107171 10.96868996895608
Sc 10.596914713175863 16.330125764991934 16.910099891362787
Sc 11.13803483092912 11.141144283036427 7.529692669656381
Sc 8.619624174521032 13.82341283751032 16.361008333344802
Sc 10.511464463165366 18.73709217613889 14.655513202267203
Sc 9.362215487809953 11.753548589901127 10.540318564056193
Sc 8.419961463182533 14.127322103931668 13.33446225327427
Sc 9.402765531043837 17.625986242272994 12.074635182999149
Sc 8.291153857106476 16.712711439174072 14.895478303892796
