5
Energy = -20.41231141 eV
Sc 7.5461420348064925 8.097938374762622 7.357801430476046
Sc 8.05003305530964 9.7009722963403 9.82646280762691
Sc 10.233927010065022 8.03995300023473 8.652978363550384
Sc 9.275154503277733 10.389569451039439 7.321917356284584
Sc 7.956310975532139 6.833134298631888 9.902407621052856
