55
Energy = -291.27182533 eV
Sc 14.755042787311849 8.585418628417246 8.50695915990587
Sc 16.229114365665993 13.730257314052249 14.530598165965007
Sc 10.884636425393438 10.99856500630578 14.864524908254877
Sc 7.41164966257497 13.443996844857892 14.616712095660638
Sc 10.051967049094687 9.814284772017817 17.57367296324302
Sc 15.533745596504236 11.796607014555331 7.525463446905552
Sc 16.683974371134497 10.77862790045502 13.375663361084937
Sc 12.408932130318615 11.954843768965787 17.422561781611297
Sc 11.773961400961968 14.944463968232716 16.823950057068206
Sc 10.16245101055183 10.353938762112776 9.554263455981054
Sc 14.44253255360726 16.414121550333512 9.45906736128799
Sc 11.04972328946765 17.10060147231885 14.738654899996224
Sc 12.259186177739071 15.59360346296845 7.153153734648133
Sc 10.31761469174034 6.0409945707307875 12.679149637698934
Sc 7.3265754128881895 9.653928964159313 10.280080693111271
Sc 15.16341368733565 11.21671857244388 16.09512316785883
Sc 8.35027627398172 14.473014885341874 11.827613444358995
Sc 10.946071954629126 9.01077971434544 12.302836821912202
Sc 13.343267833266466 13.441932866735572 8.986284669732852
Sc 11.612399492316275 8.12610572040465 8.180448587094535
Sc 16.3804494447285 14.019135674600683 9.521005367418077
Sc 8.099005069733353 8.180480314362502 12.84771708385332
Sc 14.682093996904356 14.156898616531416 17.140729110175403
Sc 13.997958227139485 16.068883897995953 14.721134388973342
Sc 10.162851570921035 16.89838245021231 11.906128053435673
Sc 8.044629107972904 10.250854636429969 15.362399810985812
Sc 13.25461874364266 10.219785131385855 10.287571426100044
Sc 12.628710387320014 7.057912675111716 10.678918809830412
Sc 10.425452746938499 14.87121126531559 9.551288046367906
Sc 8.306206131650974 12.550485482691464 9.553254031991678
Sc 10.706143258190483 12.642233172174636 7.4600766795788
Sc 13.678398905430917 10.221916344803091 13.554213709269682
Sc 9.413349102451463 12.720053336358356 16.876494636253668
Sc 9.452934137820394 7.393427476660163 10.202247266102075
Sc 7.98609280058482 16.52557661832717 14.025587565874165
Sc 10.192353020240907 8.00001146619562 15.140883940558302
Sc 13.217022918086402 13.194578152873351 14.687521385509847
Sc 15.264549069894974 8.35518740818546 11.789799824716042
Sc 17.852020168766582 13.177761363704265 11.93917340223138
Sc 12.90170314591927 9.04648027305516 16.30176089760779
Sc 14.823816623118281 12.794795268034337 11.88970605282331
Sc 15.62159570842855 8.326183036452433 14.908331950196164
Sc 12.715466624157582 15.191223409975748 11.826651362277111
Sc 11.808643724294853 17.549580216842635 9.534026933048805
Sc 13.184554069196219 17.93624010446564 12.20833277058249
Sc 8.726635045327095 15.659978482134656 16.516417746029266
Sc 10.256792702256382 14.257120238621338 14.150583733900225
Sc 13.022782751104645 7.234414851012383 13.765750486710617
Sc 16.44591324662127 10.83733925382248 10.25226718787067
Sc 13.330927035967692 13.150862589521607 5.82437402848757
Sc 8.630229766464856 11.28658356089248 12.438080937217162
Sc 15.274600795641069 14.973422109537387 6.8413372618933375
Sc 12.850816490479303 10.564292407899446 7.216832222215229
Sc 11.174559614547064 12.542818969494983 11.47087198512085
Sc 15.80268768157296 15.6941839845622 12.134847491414336
