53
Energy = -279.61303349 eV
Sc 14.845669108106724 16.439562171758066 17.514549546746185
Sc 11.067357726645508 12.161568281355686 18.323072869679123
Sc 9.446588153357933 14.803847079409444 17.17441645947632
Sc 16.536597649532364 14.397147029155628 15.718298543197704
Sc 11.685263075987697 17.34177722423845 16.897979543779574
Sc 14.705337182063777 13.06338834119844 18.145755848306557
Sc 12.433732987692782 14.540616570663609 17.110843981608138
Sc 8.97271291996352 17.32952692094358 15.426454624617877
Sc 14.062069371533175 18.89245535759816 15.752775342786586
Sc 16.632803526037844 17.4434931623316 14.977889196439392
Sc 13.251577542022533 10.448609026306316 16.981470966663355
Sc 16.49664178110016 11.206444764424566 16.428404482386796
Sc 8.339708945336213 12.03665940808399 16.381370587574587
Sc 7.75347232142923 14.72217610158235 14.498929757882205
Sc 18.93403012664738 14.480864991337313 12.564780554748278
Sc 10.254732597448236 9.693702480557008 16.722366394572695
Sc 11.522928316063538 18.273257552322722 13.950233415290652
Sc 18.785670295807268 12.423684049892056 14.806396964490741
Sc 13.848982061961298 16.037729825852004 14.780440013854925
Sc 16.470553358500833 12.342216703327896 13.045638568233022
Sc 11.08063918177231 12.199097646400624 15.337678758933409
Sc 10.810087791434029 15.153155380916779 14.433725604245371
Sc 14.64355625797768 18.29659415732947 12.721508561665058
Sc 14.147531237168497 12.744532394335812 15.211157606078242
Sc 9.05913131079683 16.663227386525232 12.416430477113582
Sc 17.577665325306914 17.678866166030122 11.715178606477942
Sc 14.763054412116045 10.033291829141803 14.339774419047803
Sc 17.654105011443157 9.577903659659736 13.817280477410076
Sc 14.9560779648822 16.737317532541017 10.102030965156922
Sc 11.995683149729057 11.141076406349507 12.832717040797908
Sc 16.106413759184953 15.403321082654635 12.664978028316378
Sc 19.71057179452456 11.143441875607659 12.378492885253417
Sc 12.29951314406969 8.548264832790295 14.572408606471775
Sc 17.634916978854797 15.32196166462178 9.88303053640702
Sc 10.515718954040528 13.798295236054008 11.57672496961248
Sc 12.302425169740422 16.459545373310018 11.539454556854864
Sc 13.40074161607067 13.860771395139567 12.58048131000933
Sc 7.7167991861397125 14.168789096569357 11.047842880426034
Sc 9.865440364948226 15.886002371198538 9.525031383808706
Sc 14.992134086753476 7.899564601920859 12.362954031622554
Sc 14.502040036051307 10.737645651133288 11.300153139555546
Sc 9.588791717495779 9.514298795697664 13.766252894419637
Sc 18.064929936046354 12.399033060389574 10.436091824188253
Sc 8.476792091836375 12.170148494003792 13.347480419959963
Sc 17.184399747227957 9.588389443013996 10.812520792909273
Sc 12.065815585782765 8.633443406209556 11.41445566819983
Sc 15.252896485905492 13.6569368350137 10.351338319567585
Sc 12.519451662293722 14.23993234222748 9.280280304339279
Sc 9.690849457171481 13.029651329112095 8.816614433163663
Sc 9.577895590237233 10.810167186835598 10.940127473180945
Sc 12.307547698808442 11.179816354943224 9.484822393377103
Sc 14.52499345377661 8.59321444059148 9.376076673263801
Sc 15.681237281538827 11.364977610627669 8.59821529672653
