52
Energy = -272.62993379 eV
Sc 18.769242938720872 15.695363606800347 12.272723888265602
Sc 18.41421352986808 13.406212709764935 14.424469367422656
Sc 17.497609673084074 13.109932390084335 11.348882092757963
Sc 17.34493732186554 18.191400697849566 11.153365429510991
Sc 16.311959998882497 15.832291251730858 14.458053176086867
Sc 18.010140746141772 15.742885183038371 9.417273257479636
Sc 17.06627196111095 10.533288871312317 13.266674841285818
Sc 16.667957853778887 8.212785245759209 15.341065352056455
Sc 16.99690609510738 11.233789663114118 16.418668869593155
Sc 18.397269489495546 17.99092763918197 14.168247107215285
Sc 16.384573780136297 14.154719897964966 16.813163780519584
Sc 16.472342873570817 17.877309262931163 16.503489245690226
Sc 15.907520499192088 15.73098430452305 11.511397571710694
Sc 15.69190831340286 6.0953055446421205 17.239779710876675
Sc 14.336784209518985 8.874903876583483 12.619146309835314
Sc 15.369833552772434 17.111604505941354 8.890612533602404
Sc 15.624648798779203 13.006844798679397 13.833202867797963
Sc 15.205417101121782 13.993602385373219 9.130503678098547
Sc 14.296101432296323 12.041826033703954 18.128467827395077
Sc 14.766241229634682 11.500588003725028 11.193619934228554
Sc 13.466698280205467 17.60532265998859 11.442352824655336
Sc 14.879670784837478 8.813840583920085 17.69569960349689
Sc 15.495848929289076 18.56068359646729 13.66635001283096
Sc 14.543101426827706 10.44167417210747 15.238806465824752
Sc 13.155951380600296 16.179332614735056 14.149376489911415
Sc 13.901856835737957 7.257848150413716 15.164936629559293
Sc 12.317339650512745 11.336667113118677 13.430620453928547
Sc 14.0863379204941 16.155097209290542 17.002497371917947
Sc 13.411378064545177 18.736748197944696 15.940242224487337
Sc 11.184267003532453 18.361355173435022 13.813994960160096
Sc 13.43801258477703 13.374263437984228 15.746590491792244
Sc 12.084439039161493 9.219605292428557 16.297688639792923
Sc 12.345751132708978 12.603300928953681 9.52507155446664
Sc 13.387055191658119 14.191975137325965 11.916961611153708
Sc 11.896870543410957 14.40306570695443 18.10897012091892
Sc 11.292945803566292 11.816917505175315 17.347932580995057
Sc 12.663911361664228 15.563791826514205 9.280131638544916
Sc 11.769082813041095 10.015635863824512 10.75813348877475
Sc 9.716994388835278 10.81184145824937 15.104222106451127
Sc 10.83022779802832 13.936876123069691 14.730418184659952
Sc 10.751716566110158 16.03571462573736 11.941288735489584
Sc 11.021389637486244 16.65044825077879 16.306119766977027
Sc 11.313998170511905 8.499088673803982 13.409795337797991
Sc 8.710212076327947 15.915852907294838 14.238680118544087
Sc 11.353818464668834 13.525786847328979 7.038918600541378
Sc 8.977796148696985 13.926969172420574 16.811808693568576
Sc 9.824525996962969 14.799253648827477 9.185768404155338
Sc 9.389693567418472 11.905682000780788 9.140530409721004
Sc 10.475003793368556 13.095765362542483 11.695825857719022
Sc 9.103424648118816 10.631665879237204 12.195006439379634
Sc 7.872341064183921 14.170752700286586 11.297836262184434
Sc 8.048100422799369 12.977933374089755 13.95519127303828
