50
Energy = -262.79926979 eV
Sc 12.295085145522277 15.110121055648342 19.202682437286825
Sc 12.255794872145156 12.29027034742421 17.584986771852105
Sc 14.87693700184178 10.788202519758858 16.28948732806468
Sc 12.263196413014304 9.463319574217115 15.79567173706241
Sc 9.759719714176997 16.787163811440738 19.12320398623852
Sc 14.851766782468447 16.468738144740094 18.318250455274285
Sc 12.312683459988405 6.828665411358467 14.100924402268566
Sc 15.039690837069303 13.63446322643256 17.583559039720708
Sc 12.46398819754584 15.401991707265129 16.288682756322167
Sc 9.933760185576723 8.632027081717805 13.816645141151563
Sc 14.938956063165369 8.508937549339255 14.071497466300704
Sc 12.212911911347653 17.90599922692784 17.760271080864882
Sc 9.85948073305394 14.203121706648748 17.523992229604726
Sc 17.221449372857297 15.554983094100933 16.25994823627863
Sc 9.939737621146985 11.398601954219954 15.744675404037617
Sc 17.61226385740249 10.30381749325338 13.852781619053294
Sc 12.54024950904311 12.439584217802585 14.594422945836984
Sc 12.600655529749336 9.691589966574975 12.752606990545608
Sc 17.06982053271232 12.621790629517593 15.673809074839845
Sc 9.76555696657788 16.921048836646257 16.039086460268905
Sc 10.427645501049263 6.147397461386406 11.992217660238236
Sc 15.627452142112583 9.521765006935162 11.226684177524692
Sc 14.877209639092973 17.601793347577736 15.662726069303416
Sc 13.202049221350821 7.268117803986015 11.27365126539666
Sc 14.969368613553504 14.637274117688849 14.681132630652565
Sc 17.694084426470308 11.868789247904026 11.248574954259254
Sc 17.077392450949137 16.51903984944605 13.210333369898065
Sc 9.979645737690586 14.290788852821454 14.430448846482586
Sc 15.134414995550006 11.567923305556057 13.288093048234911
Sc 10.501506574389435 8.952327055575791 10.816185630865832
Sc 15.383262784707153 11.875787429359457 9.315221113936142
Sc 18.38801433889934 13.773109776519703 13.40539840832422
Sc 12.014191132572131 18.15234205534481 14.514246247909366
Sc 12.963927311559882 9.985544013275199 9.48166131591752
Sc 10.14667655022516 11.494055375415911 12.579449045760043
Sc 9.91507998490579 16.88824483862039 12.61840847697441
Sc 12.504362115392004 15.411561627058061 13.084395564729581
Sc 12.900509031322363 12.45549072069865 11.266293394926057
Sc 14.404859397206286 17.754880104784483 12.810382163106745
Sc 18.116317406881524 14.872893839758113 10.502324986150185
Sc 15.684682126780471 14.127637432775423 11.667882544980463
Sc 10.201225734483 14.217767273871727 11.390720574541428
Sc 12.196769359293107 17.792561025159266 10.76604048379782
Sc 10.549369861534897 12.024241400607513 9.42428978568754
Sc 12.983133828750775 13.343881094157258 8.105695008570752
Sc 13.37125569961254 15.265481480025919 10.298740096420412
Sc 15.744966288358574 14.687437891072149 8.48944089114458
Sc 15.733031711291456 17.062932710680315 10.265723655291826
Sc 10.778811033236801 15.584704821584703 8.915507223950513
Sc 13.416747525447747 16.727687046008132 7.94008407742333
