54
Energy = -284.68858104 eV
Sc 12.824235600396081 14.448302234593275 17.957841198618418
Sc 10.923619760224819 11.913049434923977 18.05930541749156
Sc 13.925633274984436 11.810264714751867 17.12569472157114
Sc 16.229791196236597 13.857724788354957 17.08935307518194
Sc 12.671944638482266 9.211384874334588 18.062715289673843
Sc 14.35528329214248 15.516425919588272 15.668287124934734
Sc 17.061277063370703 16.395876800015753 15.19354126941231
Sc 9.595966176167703 14.300406743429296 16.596694825414595
Sc 8.467176559368 11.52808383192181 15.81310756374812
Sc 9.632092631258091 9.058564018974124 17.442258908176377
Sc 16.81381019588082 11.003183001813802 16.211516645761993
Sc 11.679286508204957 16.743449057891002 16.178080563152335
Sc 12.05232371297363 13.553390849906753 15.118521640068584
Sc 11.453229025673734 10.425384472132386 15.56289824338811
Sc 16.12830824540269 18.025013030168587 12.953195270571905
Sc 17.870485025882743 13.497721581541592 14.384278545316455
Sc 7.433055734188045 13.995986275678987 14.27529932148283
Sc 14.303415121378066 9.447530210703366 14.93524026309715
Sc 15.749650459742107 15.080234007833292 12.54631577176398
Sc 14.243477883325266 18.436796286818605 15.171500193853968
Sc 18.358067543830014 16.110456229668195 12.309149470590881
Sc 9.233025855188227 8.873548430637717 14.332465214883523
Sc 11.649677089965646 7.418426419113785 15.930848683621909
Sc 9.847077970921065 12.483093963377987 13.300161884340374
Sc 7.433695544286883 11.356223445977307 12.547083510642905
Sc 9.843734303576055 15.912542273412715 13.960095244432713
Sc 15.018568157078251 12.577606276338688 14.501154188897502
Sc 12.024196767784739 8.10340604766281 13.069449118991722
Sc 13.006985701356708 16.356499865617725 13.181551143765923
Sc 11.507088100080551 18.744707602328727 13.819786588826537
Sc 16.859300975268162 10.746773105631314 13.023007910963551
Sc 16.32278214184571 17.171173430773717 10.232856364591084
Sc 12.602964696884543 11.123093281917734 12.898946277757346
Sc 14.795200512444039 12.470607729795313 11.276590860402601
Sc 17.827841766370604 13.136260101445203 11.359665940503895
Sc 14.531527811605658 9.218717847675007 11.607321656993856
Sc 8.588705339799624 14.678205082690493 11.439559582359733
Sc 10.868456083052097 17.042331711792297 11.195705018563004
Sc 10.032003230087929 9.778200453082272 11.5934075141039
Sc 13.66170467375518 18.792029296481893 11.546390430189792
Sc 11.864793327926137 13.898780474592163 11.397160300557205
Sc 11.925825079597596 7.958183137077381 9.851673655352867
Sc 13.574065346518248 16.093686956196713 10.087992003257106
Sc 16.499229987367006 10.907607710225877 9.581213861699686
Sc 16.11797786792267 14.124172309099519 9.141354065482027
Sc 12.55319429374257 10.843603062697731 9.77180620844813
Sc 9.573220864192216 12.19446330198408 10.091329905545148
Sc 14.64704221609241 8.65155371735518 8.612603593656775
Sc 10.493224228869344 14.862494228086097 8.896946506723518
Sc 9.632411000319498 9.499331695042983 8.499246480936916
Sc 13.183801837140171 13.669462947192217 8.511071379414457
Sc 12.20463047374314 9.084277445528247 6.974901613414749
Sc 14.43870072827606 11.31546000931625 7.304977622491464
Sc 11.087682632035367 11.914969684297718 7.363247992185664
