54
Energy = -285.81226838 eV
Sc 10.549103420561568 9.882444042984979 16.64694883874294
Sc 11.738956395298976 10.898544380665719 14.022107848918504
Sc 13.393745421925107 9.231062195578902 17.61679990612648
Sc 8.712676880238979 11.313885584343739 14.467908564329752
Sc 10.329309963535824 13.094686462160297 12.366400471611016
Sc 12.157361160921743 11.194453028928432 19.497282747669026
Sc 14.097437318774027 11.363392617571387 12.126370912715851
Sc 10.174256888071353 13.029393312992134 18.136555017267344
Sc 13.797045551439842 10.182455231907484 9.410549880469292
Sc 12.537601450574584 12.148829563790937 16.752247313888827
Sc 7.654583303892955 14.012934889685296 12.84009522387668
Sc 14.826438208366357 10.781135727363646 15.164178011835148
Sc 14.729296084124364 16.946032599169687 16.614255862830166
Sc 15.118125942926039 11.527033630717174 18.38261167812941
Sc 16.51818522509377 12.954474003500046 13.63022347713602
Sc 11.937290636826239 15.435381285793865 16.722156023942112
Sc 8.7083011673808 13.73465191080584 10.019519174770444
Sc 15.55700076587315 12.726543036742614 9.254633072095709
Sc 13.268787052847543 14.041142151035878 18.951888592420307
Sc 19.322172541599354 12.86377221491324 13.982836715081225
Sc 12.399326908517548 12.897645094713676 10.044886157264973
Sc 8.220032464063932 11.112652778517159 11.408286704981299
Sc 17.58011655199424 11.821300781353438 16.36963499371345
Sc 9.003970508914035 16.620182699517308 10.674301526134201
Sc 9.890523845271174 8.782091647037953 13.332983994014732
Sc 12.550240817743244 16.96508482836587 14.197216575427891
Sc 10.169326679278754 13.732783888361944 15.171746750737706
Sc 16.21829506614942 8.757966390103887 16.34768197152789
Sc 11.071864223248344 18.537775363938856 12.086534469762533
Sc 12.949528070765282 13.946528531676952 13.877287443681839
Sc 12.96067604619265 8.231683868123003 14.962138138479203
Sc 11.681769554419335 15.649871074066771 11.390604135799318
Sc 10.0957536104256 11.667876249633299 8.439522249526881
Sc 11.016307533797526 10.300250572801712 10.921606420857382
Sc 9.657864318872475 16.24841977164648 13.676304912252794
Sc 11.653541925283891 17.672325481568954 9.23273117528418
Sc 14.6908400506375 19.09666687485105 14.151165462585505
Sc 14.741230546150211 14.42055573877884 11.470387267638703
Sc 17.76833545027665 10.172774479730313 13.984640141816346
Sc 17.746466996768028 14.929002667038738 16.004572649759737
Sc 15.45116959574306 16.14681753103445 13.802927220250092
Sc 10.792044888714262 14.813044726723968 8.265664104802124
Sc 14.089629733380098 17.565723901988516 11.370355932776775
Sc 14.912190606904769 13.935465412876264 16.222805601832317
Sc 12.80108198719979 8.46408432841046 12.012806155976733
Sc 17.396262134832035 17.86058950018586 15.169291697535089
Sc 15.485080137805213 8.579430309111851 13.165752286125215
Sc 12.944413538928034 12.64703494286361 7.33595933406757
Sc 16.759655066658155 10.60542892809608 11.114119469003985
Sc 13.840869464931655 15.39335060725303 8.66295949426896
Sc 16.721083431948188 16.079223501023886 10.241461403343367
Sc 18.004649551865754 13.411846531130479 11.10223634270983
Sc 16.953080521841947 18.437792418946433 12.236514436767319
Sc 18.326189831202594 15.705337584699123 12.976069139599781
