50
Energy = -263.16201636 eV
Sc 17.09937947739099 13.810381461195837 14.320494949368996
Sc 16.032821799040043 13.00440898837162 17.200773415135494
Sc 15.948189045033413 16.463085410508512 12.820781375981161
Sc 15.065896565121838 15.835335469825075 15.914649058198746
Sc 18.37865974896625 14.916894447089296 11.627806633631014
Sc 17.650914936702037 10.764519287701152 15.069795135784796
Sc 18.40091841149822 11.932947284747561 11.885752724682215
Sc 10.391495223479561 13.190884742718923 17.636895747258894
Sc 13.194685149931995 11.610201423097898 18.401600872855134
Sc 15.667304478554486 9.993601067294001 17.398544424457896
Sc 15.869013889348924 13.228897868322472 11.500217890516756
Sc 11.505828238661346 16.060242134633302 16.461672987473996
Sc 14.137799070637081 14.339158577056713 13.602595549651845
Sc 15.90489932829296 15.615011848170099 9.69433581982513
Sc 14.953648110643526 11.504784327585009 14.87195146737628
Sc 10.551772668043787 10.245453430231407 17.599285144390695
Sc 12.923605709479101 17.22845882714652 13.90344188669763
Sc 13.110355559623791 13.513337561586189 16.28094597839461
Sc 8.256083602047884 11.33870503538635 15.929656919875166
Sc 8.81903768375282 14.596239684990747 15.44707789452678
Sc 17.83833945473167 13.428889920581732 9.084451863493705
Sc 15.75532589374537 10.229900438805839 12.27240792911599
Sc 15.590567273202808 8.505860227103453 14.810959009440468
Sc 9.788413288375379 17.316292463473616 14.261131704730033
Sc 12.956161367844366 9.538689393708577 16.030311939325962
Sc 11.187519717652135 14.787224349613188 13.765747124459937
Sc 13.01757510866859 11.76088132696167 12.638953994538097
Sc 13.301951828176657 15.632041781658815 11.236954464667782
Sc 11.006993371831523 11.851374084861645 14.932434085225152
Sc 10.83797598830885 17.02232418239089 11.241796178883984
Sc 15.920019858456051 11.131648612503039 9.203056313501909
Sc 13.264190035696174 9.931974815528603 10.269788874811349
Sc 10.088707323959296 8.995482292987537 14.701638650021595
Sc 12.811529481396004 8.721374843390127 13.068443387736844
Sc 13.359028740270825 12.953217927029069 9.63451816327455
Sc 8.561712123181072 12.58362865292202 13.178592767465803
Sc 12.90842112679581 15.961761692939016 8.38428128260228
Sc 10.786126359043909 13.510975083507887 11.235767910610942
Sc 15.115820858785877 13.652564926269232 7.444507713948506
Sc 10.480922477231866 10.421132602172813 11.854286681901037
Sc 8.482569564155702 15.385838835972843 12.043510004212907
Sc 10.063887675454259 14.985671532817365 8.950160870063685
Sc 13.342980335413813 10.840907845813605 7.37442502251132
Sc 9.723786495383333 7.638735783785599 11.834042510364489
Sc 10.93685724386363 8.469738300829666 9.049366035244198
Sc 7.6728174987239735 9.682027818651735 13.004554563083175
Sc 12.008199902807224 13.527437885593196 6.94694873580642
Sc 10.631264465236443 11.50480311357589 8.84861863255949
Sc 8.051105015474095 12.716137909023166 10.237507760881844
Sc 8.319191882607992 9.646599658468977 10.009800629034132
