52
Energy = -275.29968825 eV
Sc 17.50949222749928 15.839920528924992 14.344001291099682
Sc 15.923216016244362 17.451317339197047 16.52738120564688
Sc 17.93998057775635 12.712228490597727 14.394249423323203
Sc 16.64787983161425 14.291580073887236 16.911047712010866
Sc 15.878616388412528 18.5493928117074 13.57972960351354
Sc 17.305665925370597 16.81809370361974 11.596263386796295
Sc 17.197913019530933 11.159275638668072 17.033823474455712
Sc 13.235360623488221 18.087590420214603 15.00910396980692
Sc 14.499479660522278 15.341517127544172 14.99942736816964
Sc 15.745534936364635 13.911242763350714 12.52044526004745
Sc 13.843839009371393 15.493524232337784 17.835771956713636
Sc 15.218684323918113 18.427923526237937 10.215059199347335
Sc 18.21331555569856 13.983087653105638 11.237436244303376
Sc 13.14819287956942 19.32725645908515 12.15306305338085
Sc 16.33318354437924 9.711361738633926 14.231601196878065
Sc 15.654944723087315 15.398365157831988 9.586930926082186
Sc 14.515841945536694 12.393527655350132 18.301968283464667
Sc 14.11760150241627 16.561675836865014 12.272073127521868
Sc 11.244847916964114 15.766492329844022 15.904079842607425
Sc 14.527966641322848 9.532324387886979 16.765941199022706
Sc 13.299681187657756 13.587187616503394 10.481194907576588
Sc 17.163126593534116 11.23389357890204 11.93118798140308
Sc 15.114347756287561 12.190121273753217 15.298744330703277
Sc 12.523328295823564 16.479517213297456 9.850841707966934
Sc 15.948259064805631 12.25998324008541 9.513509141014266
Sc 12.11834428747366 14.208684328682706 13.264903750662823
Sc 13.9008787864861 11.261270635954187 12.592688948472775
Sc 13.766643228343433 13.644436702350252 7.597308208928248
Sc 12.483086543187435 13.22726240505793 16.19104379508252
Sc 11.82114755732287 7.927376667121166 16.54041958190656
Sc 13.581107212984339 8.3286043392729 13.791120765128804
Sc 11.284753622752202 13.791249771880112 18.595173191219082
Sc 11.104886692201895 17.092285631114052 12.98964950242341
Sc 15.149689756131536 9.154522188378419 11.023397852541281
Sc 13.327900002235983 10.787041680371997 8.959053490367646
Sc 12.139570802153191 10.471144188115254 15.212670581182435
Sc 11.915868331179587 10.710248759101622 18.127332595206266
Sc 10.884496013240165 14.378894822338289 8.191370110493308
Sc 9.1144027016006 14.601998727455747 13.811413912784548
Sc 10.753623987189766 12.02823811100306 10.119123547016923
Sc 10.007076198450703 15.039900391969727 10.976826153544026
Sc 10.477167883712056 11.65140669761435 13.034748768599892
Sc 9.463015217780642 9.753968701606217 16.526430297576436
Sc 9.656098637945469 12.676181589075567 16.01253744559863
Sc 11.90619363769348 9.295646621946975 11.313863055683543
Sc 10.184603897567015 8.625615266907785 13.835875515930669
Sc 11.223918851841162 11.8383723614309 7.00073052890829
Sc 10.359445186261317 9.520039177936017 8.547195035961774
Sc 8.52838689796762 12.121008777893922 8.47724757254538
Sc 7.869314374727383 10.905900241164655 14.131234635543787
Sc 8.057318202942355 12.773553056609403 11.617952924716313
Sc 8.672953335946959 9.944394578158388 11.152394534137237
