54
Energy = -285.80438117 eV
Sc 16.80290182980261 13.909573145051175 15.67006755542622
Sc 18.2223225094367 14.714072499139101 10.620281319219615
Sc 15.165628579259806 16.591490423375685 15.351183944456048
Sc 16.947749620205798 12.853697675211084 12.586830997353559
Sc 14.499398430291047 14.622615132468404 17.78672136204237
Sc 17.25482591889369 16.067020785584223 13.228245593706832
Sc 16.395707180928607 11.997471323931343 18.050747624339248
Sc 16.84145997610582 17.60889809950487 10.113742225215518
Sc 15.373311016446937 18.32289335953061 12.759289021740507
Sc 17.36337811044343 11.746880908552473 9.680936089043003
Sc 16.68408032697811 10.756572225830872 15.138212523055634
Sc 12.2211372582484 15.76979488096007 15.813834571982184
Sc 16.382681462640353 14.436256789742048 8.27909445676375
Sc 14.220718391866807 12.26453137900883 16.130415136690782
Sc 14.519940518553556 11.167548914251268 12.961423322593078
Sc 16.876839774823967 9.539636189705057 12.117825977640242
Sc 11.369629942829052 13.65102457757723 18.01849108841543
Sc 13.626159259426371 11.892915548238555 19.047950220242875
Sc 14.657668661891915 12.847454818309009 10.197163461993602
Sc 13.466121027430983 18.321105283837994 10.466246303779476
Sc 14.364747842242133 14.244971145591535 13.727779402864055
Sc 15.264380643338873 15.613638853346991 11.07876438177343
Sc 14.458220466470541 16.751149836995175 8.181624823586631
Sc 14.528118870802302 9.53233668700351 17.257117835271373
Sc 15.267228893059876 11.571074079852453 7.4634442732256785
Sc 12.810311795725195 16.600567969085294 12.885392708263172
Sc 14.757408226325625 9.878003989286425 9.98554239820934
Sc 10.14469855726481 17.72863489643804 13.925239946240184
Sc 14.92008943379649 8.397829605291651 14.290653531634824
Sc 13.406336086088643 13.906565903797187 7.614629537631953
Sc 11.385550114299098 10.56321855165899 17.583564134900545
Sc 12.443712622944226 10.00729054234462 14.89261720474193
Sc 11.45815436200681 12.899970595017784 15.158238318683605
Sc 12.531758340142515 15.447131739971576 10.053868240555936
Sc 10.288263255918473 14.937283465699622 13.356432098912572
Sc 9.13130979385466 15.019708426678688 15.996286920863383
Sc 12.03923315924954 12.996029614488585 11.817163519249846
Sc 9.967017702817815 16.631282156511865 10.959228300690963
Sc 14.25652524209728 7.608529248289627 11.588977993081357
Sc 12.05848271657182 9.915822919499254 11.81892508977475
Sc 8.8737045751367 11.785475670746385 16.44183324851358
Sc 12.326778602232203 11.295883584152017 8.950961205097942
Sc 9.767495555085247 8.83170596949061 15.378827569030765
Sc 7.716739911208147 16.114283513477194 12.960937635515062
Sc 10.483919840445145 13.724013166021173 8.826888127959576
Sc 9.674345096888308 11.208685538036772 13.37321312113233
Sc 11.894987428847669 7.355952312333725 13.370579853834995
Sc 8.834204744133409 13.563365590264382 11.235479699220273
Sc 7.527528269621377 13.152749451218407 14.076195579464235
Sc 11.655306273140988 8.057691634565137 9.929625141144902
Sc 9.59037903855146 10.708228156249415 10.023427704405675
Sc 7.18545505917036 9.974943302144492 14.465400208624363
Sc 9.143050745558414 8.514369666320354 12.255358150438715
Sc 7.109934015445813 10.993906229733145 11.710630232186796
