53
Energy = -278.8202423 eV
Sc 15.804093403870008 10.345019032726546 7.855960658696321
Sc 13.560620486647077 15.2317556653272 7.495731884692591
Sc 16.103912820377506 13.460208888095924 7.77122913707119
Sc 13.269628459019412 12.216904531340283 7.42513878219054
Sc 13.775698497240676 10.598976343788049 9.872853108846849
Sc 11.11295211698698 14.024290334567924 9.245720157712896
Sc 16.514406553448264 11.809269166498643 10.345152920713259
Sc 16.020025392681532 9.150078099883215 11.584405458580072
Sc 18.024225845004043 14.269699741717266 10.614214068304204
Sc 14.04581180119158 13.663563567200185 9.951469507912867
Sc 15.59464078280714 16.130670291850013 9.6092895062023
Sc 12.576560526929354 16.533251705095932 10.241553035087676
Sc 10.805276694736273 11.01907730726409 9.47519472210008
Sc 8.787547281633808 12.892393173330252 10.961350490748197
Sc 13.87456563446201 8.454341036598308 14.301449805498981
Sc 11.764932457039489 12.390424575479393 11.868871466679938
Sc 18.57083197228323 11.609407442989774 12.589902685940173
Sc 16.40367556376533 13.291924980593983 13.046399177654004
Sc 10.697335763797339 15.173634280444343 12.356121955389415
Sc 18.762524814093098 15.182240783552524 13.886725542019507
Sc 12.150522968236352 8.986816912551221 11.622043768113418
Sc 14.42754352691247 18.0783109843388 12.179334773616608
Sc 14.261988113379534 11.083422297370843 12.692160206089751
Sc 13.845737948429448 14.993388113204997 12.580896723873694
Sc 16.758088732377395 16.42418250369899 12.245045717275577
Sc 11.588805069423813 18.151772008803725 13.155047148097994
Sc 10.764555343626638 7.654011187644822 13.775874389587011
Sc 16.261444007683856 10.672366774025067 14.804888220874878
Sc 9.16415651436947 9.57366354961528 11.853358453713046
Sc 17.838119459677525 15.780247425779109 17.034935973970306
Sc 9.18544579114285 11.763055685678816 13.578699975891093
Sc 11.725405260203559 10.420835348659315 14.59774710414113
Sc 15.937835824076844 15.07552550751226 15.204157766096694
Sc 13.302049489306958 16.606823253063943 15.043319645603543
Sc 13.914489474694589 12.90421070520857 15.103126171416585
Sc 18.233086343313126 12.903183512680371 15.51628390183532
Sc 10.064611120243448 16.52756068794854 15.43270800822852
Sc 8.227936157228946 14.501017822443448 14.023770736441898
Sc 16.597463416928985 17.88620463931372 14.76566714234633
Sc 11.75285815251929 18.873841135191757 16.397568614235944
Sc 13.71552905989341 10.377195098453479 16.87938910741336
Sc 10.975859719896462 13.640148865210595 15.19491227956286
Sc 13.964715771608672 19.599790545426522 14.728094448465002
Sc 14.976078024733457 15.276447867987011 18.09616523324753
Sc 11.552844700160557 8.213861005400314 16.573135816445006
Sc 8.880669583763794 9.37786529269365 15.335764741297966
Sc 8.15065274329071 12.370295458984637 16.15137021168864
Sc 14.813392672985762 18.027496213470545 17.21374608667426
Sc 15.960344200137092 12.628641388257401 17.40933720555475
Sc 12.141681409883347 16.201782704460445 17.78027510001741
Sc 10.58764549155646 11.172327625361834 17.337157164393727
Sc 12.768736071834386 13.17800771401816 17.973027576517474
Sc 9.696032170910398 14.38239739836916 17.71369394618498
