5
Energy = -19.88066331 eV
Sc 9.236006271874578 8.074291974812537 8.246047089729073
Sc 10.333693809711093 8.731472503755798 10.926210817672972
Sc 11.089762134818159 10.173093802113916 8.418737124493099
Sc 7.655091115380554 9.47250220323775 9.981794969958974
Sc 9.65787196520583 11.496191310581759 10.33266045466104
