5
Energy = -20.30934299 eV
Sc 9.196891137245148 11.171478427107159 10.415196970566488
Sc 11.31978862963382 9.380390146117092 9.802305170344413
Sc 9.951534774384188 10.813031071022827 7.563782022126958
Sc 8.670694580393826 8.732835865272548 9.04250095822229
Sc 9.541156147579505 8.623176853140656 11.895665047990692
