5
Energy = -20.30831645 eV
Sc 8.529424305820312 11.521948645035677 10.190484326350434
Sc 11.213639047551625 12.373013547899097 10.584152803355925
Sc 10.841803355732981 9.760157041151983 9.529545295226475
Sc 13.02099701334484 10.198029199539825 11.514221791174071
Sc 10.269748359432853 10.288433923384472 12.268801499603265
