54
Energy = -283.2850241 eV
Sc 9.264243666035817 12.01792574282853 14.996008710398693
Sc 11.348061015321392 9.588566257822714 14.537074821931801
Sc 7.1585754959745795 14.085087322667732 15.827998468283695
Sc 12.976314918049392 9.592739735601992 11.974975998132855
Sc 13.88839120552824 7.544114245497491 14.100422181781607
Sc 10.016594757989685 13.566794293779944 17.45071002418012
Sc 10.766002177601656 10.49985116322326 17.60786616947985
Sc 10.189790889079957 11.505436400061324 12.094175939055322
Sc 9.18301812677237 13.428668684137858 9.742033196176955
Sc 11.906271783398571 12.866680079527383 19.500452884183314
Sc 13.08290660784787 8.416719361167177 16.73680900201369
Sc 7.8765567342866545 13.66067904609893 12.8105645029657
Sc 7.467894259856094 16.38297481972609 13.861039599244267
Sc 10.67014062398081 14.317883381991246 13.453938377268853
Sc 13.115052385000661 12.468945785580726 12.701915231559864
Sc 16.13990811188646 9.093123004536 12.606771078872987
Sc 10.069155050207963 16.16353423102696 8.408000497259836
Sc 9.544932566000371 15.867514237014147 15.827706871334959
Sc 13.755780174024359 10.88007067020656 18.118428053599203
Sc 12.199618492906971 11.804337273212958 9.688858584378607
Sc 11.786791317848328 15.916202394610123 18.527715534167214
Sc 16.381235130013113 8.595799292637821 15.75913452535251
Sc 15.14014196658788 10.912972717619121 10.19732619721312
Sc 12.275402424162515 12.327769781423005 15.78853271148241
Sc 9.113811279831237 16.117560130752498 11.299702502736011
Sc 11.339281140146669 13.747316216836001 7.560078076740029
Sc 14.447000506066935 10.435639096788288 14.800503307313763
Sc 10.57877840454334 17.592760548750658 13.58227386961015
Sc 14.225117782054088 13.87906919001159 17.927314369434693
Sc 12.424657089850488 15.239890985171142 15.827480627480645
Sc 16.251661625463683 11.809377912362814 16.958080301367367
Sc 11.688455765615917 14.672520605024548 10.497639792102593
Sc 18.10907490934417 11.025999037492717 15.14223785723479
Sc 14.344901110092 13.221891012553595 7.876555817101751
Sc 19.025413111023205 9.013995419600137 13.389007927187627
Sc 14.88346245825019 13.694014063656113 14.821527399662635
Sc 16.523466476540385 12.178655173046618 12.810315115496289
Sc 18.271932890241967 10.69202184891714 10.881058857935699
Sc 14.818065845226428 14.100618650277363 10.64768634940565
Sc 17.120688052171232 12.595878877514313 8.735528236231383
Sc 13.284099170882177 16.147403181948313 12.988346777417892
Sc 13.08780373068142 19.28074793279935 12.897320313767741
Sc 11.715568530627397 17.720428294514324 10.675351069921831
Sc 12.896639009175091 18.127655053642656 15.724737579566474
Sc 17.36003480342481 14.272176305668571 18.09143371065639
Sc 17.87540542876204 14.033433009001284 15.064766044292453
Sc 19.724229496702332 12.082392127461295 13.055263961001843
Sc 13.340990213712098 16.093837763657625 8.441582578326646
Sc 14.87522548427374 17.473425447286836 10.837033538560773
Sc 18.233088232294335 13.924062126046907 11.024626024622403
Sc 15.533637505957223 16.114213902400557 16.333765536868416
Sc 16.50264565828049 15.547650941616636 8.78413093724932
Sc 16.42044089988519 15.544465886387751 12.796966717735776
Sc 15.516127957796158 18.12296634816919 14.037195622230756
