54
Energy = -285.55458495 eV
Sc 9.388200962142797 16.405066300164485 14.763427489199108
Sc 9.030493528840234 13.562512528766094 16.914775575221658
Sc 8.151888256276852 16.2813681976547 11.822570149967406
Sc 12.547474165787277 17.126327487283135 14.468657997961392
Sc 11.958475686007636 12.785148548209781 11.46493195639124
Sc 9.286989058675042 16.6007822181604 17.84284923463873
Sc 7.653343714835672 14.06059155798955 13.84799501087879
Sc 11.655173383511539 15.231498357099108 9.303786764341078
Sc 12.813051775131731 8.827946331619032 11.143640372357064
Sc 11.592315425424545 10.264292511489261 13.508159665537319
Sc 14.723021694512362 8.301469691994006 13.345043290107958
Sc 14.423009595330086 18.26338132331775 16.57529754751289
Sc 15.72019322146523 16.587593250433784 13.810340737048795
Sc 13.984625461593362 11.372833053394118 10.00232414317233
Sc 11.865714957325878 12.187743522460902 18.15237184401144
Sc 13.460076267203892 9.777575183879076 15.981664446331516
Sc 10.680838869561976 14.664385414947862 19.48995679540611
Sc 13.629225939629281 13.527149821362121 7.515024457929886
Sc 13.56728561109346 14.550509595337676 13.341083168498606
Sc 14.380546992187536 11.25422815550624 13.081982290479049
Sc 12.548680979354764 17.040669293335085 18.73582034712497
Sc 16.51068287858902 10.376137536862716 15.152328499538736
Sc 10.30926825174886 10.880825146511619 16.047924794936343
Sc 16.870686959197407 9.883979916589574 12.15631147820703
Sc 15.663884255742827 16.80488551656951 18.964303064408803
Sc 13.827419827470372 14.208571032145436 19.300605229854803
Sc 15.119848631781354 11.71392475892327 17.737970225913084
Sc 11.509568103314155 15.117483810330954 16.61758585831314
Sc 13.141028891113901 12.570269576959769 15.513004128544216
Sc 18.588296108718993 12.040485970825136 13.296517015538164
Sc 14.394343362566882 14.349007644586367 10.237449685379893
Sc 18.65134908241517 12.954516748714106 16.30844717133859
Sc 15.4002824421674 8.801641098955285 9.72063101699671
Sc 16.18105051895464 13.410164616585154 15.19474114988437
Sc 16.787424061905206 14.079850177039074 18.400505170369296
Sc 10.505180988112391 13.316279168354164 14.101477677099393
Sc 17.026568304385414 11.678471666972301 9.899710032843235
Sc 10.358117489251741 10.362331865630365 10.586630671860613
Sc 8.682729875742602 11.112422266333132 13.345007269910617
Sc 16.299048075940753 13.51448911270502 12.305583697672665
Sc 17.510913762844087 16.114082973468015 16.46727242009972
Sc 12.73004205218715 9.643125901843383 8.18123312867538
Sc 14.530409168791348 15.368724154446529 16.631016891798875
Sc 18.794184718238633 13.97594396791716 10.736662552640894
Sc 11.202620160044592 18.537758390653256 16.575535478249687
Sc 18.498288306605765 15.031912857063235 13.6402523660654
Sc 9.106455158541232 13.32573080501803 11.186237140413454
Sc 11.118799628005412 12.293072854068875 8.565146676182739
Sc 15.467108922787734 11.096679394170128 7.429225501048606
Sc 16.688538838719094 16.221235507813706 10.765332500013796
Sc 16.633479845361194 14.138657820059137 8.270260956792095
Sc 10.979998135181443 15.646219397072938 12.220489988505552
Sc 14.560123601013489 16.432386660822132 8.333053540307741
Sc 13.635227962108313 17.023646938840216 11.321223408014436
