51
Energy = -268.58261166 eV
Sc 15.336919557256886 11.192953541625874 18.608051677349845
Sc 13.474323504914947 9.799217953772766 16.25548880757984
Sc 16.515071259256956 9.459417270891391 16.555973197104986
Sc 12.75846202880075 12.609249796903216 17.59208428053369
Sc 17.83044187394254 12.251062543967638 17.242807891972284
Sc 10.59991036022878 10.981183464782283 15.770366973822018
Sc 11.733952532149106 8.744817269161928 13.771417262445341
Sc 15.452988745532963 14.272833712382651 17.90892826132064
Sc 15.12456100918937 8.268088856098837 13.942773211329015
Sc 8.762401011232399 9.601428299014877 13.627814219505485
Sc 15.33490473962996 12.16945645562298 15.773945173002053
Sc 17.215391165040064 10.55000884829837 13.812906833629043
Sc 12.566221272532433 13.18574835705877 14.665853209512266
Sc 12.78806907697119 15.634300352316638 16.579304540641928
Sc 17.8641287381048 15.523354538914669 16.291623216848606
Sc 10.29926305689824 9.322528158784907 10.987261568616525
Sc 8.046652485962182 12.448098482308245 14.580024475973266
Sc 13.309191165290187 8.042426580653995 11.15689523524599
Sc 10.083634436119885 14.122427441463614 16.24646502002987
Sc 10.801199251167915 11.638341040073627 12.720450149112954
Sc 18.13886012806081 13.254516488395446 14.372311412323464
Sc 13.009266549068359 10.721729491282574 10.317457987058786
Sc 15.967853548450272 9.926674227532507 11.222840904286791
Sc 13.925722448968612 10.765268895605336 13.284207725010821
Sc 15.477353661754048 17.268364193816378 17.20414242278722
Sc 15.668015517163349 13.144417984978572 12.510529032845497
Sc 18.04653058562309 12.605898211389464 11.226360988704654
Sc 12.762897715614212 15.762135653968524 13.228806025617601
Sc 15.315192202761809 15.308684385279161 14.870591095173907
Sc 16.801036097304 17.983758207069663 14.674312526396706
Sc 14.740163888514568 9.135609959880643 8.51624877947814
Sc 8.111790803953925 11.755227240630195 11.413026038828628
Sc 7.685604584853285 15.653880005901323 14.947006126621059
Sc 15.391876015277811 12.337052066628853 9.30948297970856
Sc 10.657500415889155 12.315060294428324 9.417462288938916
Sc 6.7645417125845375 14.39442201804097 12.439089684084536
Sc 17.640265260061014 15.649888524499692 12.764036707594569
Sc 13.642101007337255 18.187904866093216 14.785023650070597
Sc 13.141484498585262 13.662899349695818 11.104251223748703
Sc 9.74590359909674 14.449948919764333 13.196582724502559
Sc 13.068796541938296 11.435282473361134 7.402705677935915
Sc 11.795823875673786 8.861625662303952 8.355061085503785
Sc 10.477203567739586 17.007523523363204 14.80277590883929
Sc 15.845437213286745 15.14634143473357 10.154105129529922
Sc 12.970432619680551 14.30153143578082 8.267270736173217
Sc 15.108976647765763 17.43677946425564 12.157770766749554
Sc 8.25851052087362 14.474137152817141 9.962335930207617
Sc 11.707861260082344 18.191471690332403 12.15640700886208
Sc 8.57050294954943 16.934977052161745 12.172957251897595
Sc 10.895908575367034 15.536350560882218 10.599731368174487
Sc 13.295272737527108 16.86246322590252 9.893311421378538
