55
Energy = -295.51538375 eV
Sc 12.303672617219355 12.303672617219355 12.303672617219355
Sc 12.303672617219355 13.946076915028087 14.960492203896173
Sc 12.303672617219355 13.946076915028087 9.646853030542545
Sc 12.303672617219355 10.661268319410445 14.960492203896173
Sc 12.303672617219355 10.661268319410445 9.646853030542545
Sc 13.946076915028087 14.960492203896173 12.303672617219355
Sc 10.661268319410445 14.960492203896173 12.303672617219355
Sc 13.946076915028087 9.646853030542545 12.303672617219355
Sc 10.661268319410445 9.646853030542545 12.303672617219355
Sc 14.960492203896173 12.303672617219355 13.946076915028087
Sc 14.960492203896173 12.303672617219355 10.661268319410445
Sc 9.646853030542545 12.303672617219355 13.946076915028087
Sc 9.646853030542545 12.303672617219355 10.661268319410445
Sc 7.145931060401642 12.303672617219355 9.115104252169806
Sc 12.303672617219355 15.49224006125955 17.46141417403724
Sc 12.303672617219355 15.49224006125955 7.145931060401642
Sc 12.303672617219355 9.115104252169806 17.46141417403724
Sc 12.303672617219355 9.115104252169806 7.145931060401642
Sc 15.49224006125955 17.46141417403724 12.303672617219355
Sc 9.115104252169806 17.46141417403724 12.303672617219355
Sc 15.49224006125955 7.145931060401642 12.303672617219355
Sc 9.115104252169806 7.145931060401642 12.303672617219355
Sc 17.46141417403724 12.303672617219355 15.49224006125955
Sc 17.46141417403724 12.303672617219355 9.115104252169806
Sc 7.145931060401642 12.303672617219355 15.49224006125955
Sc 12.303672617219355 17.539126369069745 12.303672617219355
Sc 12.303672617219355 7.068217944359962 12.303672617219355
Sc 7.068217944359962 12.303672617219355 12.303672617219355
Sc 17.539126369069745 12.303672617219355 12.303672617219355
Sc 12.303672617219355 12.303672617219355 7.068217944359962
Sc 12.303672617219355 12.303672617219355 17.539126369069745
Sc 13.921421419167233 8.067649605777847 14.921217704529063
Sc 10.685922894262301 8.067649605777847 14.921217704529063
Sc 13.921421419167233 8.067649605777847 9.686127529909648
Sc 10.685922894262301 8.067649605777847 9.686127529909648
Sc 16.539695628660688 9.686127529909648 10.685922894262301
Sc 16.539695628660688 9.686127529909648 13.921421419167233
Sc 8.067649605777847 9.686127529909648 10.685922894262301
Sc 8.067649605777847 9.686127529909648 13.921421419167233
Sc 13.921421419167233 16.539695628660688 9.686127529909648
Sc 13.921421419167233 16.539695628660688 14.921217704529063
Sc 10.685922894262301 16.539695628660688 9.686127529909648
Sc 10.685922894262301 16.539695628660688 14.921217704529063
Sc 9.686127529909648 13.921421419167233 8.067649605777847
Sc 14.921217704529063 13.921421419167233 8.067649605777847
Sc 9.686127529909648 10.685922894262301 8.067649605777847
Sc 14.921217704529063 10.685922894262301 8.067649605777847
Sc 8.067649605777847 14.921217704529063 13.921421419167233
Sc 8.067649605777847 14.921217704529063 10.685922894262301
Sc 9.686127529909648 10.685922894262301 16.539695628660688
Sc 14.921217704529063 10.685922894262301 16.539695628660688
Sc 14.921217704529063 13.921421419167233 16.539695628660688
Sc 9.686127529909648 13.921421419167233 16.539695628660688
Sc 16.539695628660688 14.921217704529063 10.685922894262301
Sc 16.539695628660688 14.921217704529063 13.921421419167233
