50
Energy = -264.57840475 eV
Sc 18.748157388188186 13.688750218199457 15.81445926227218
Sc 17.761603632512823 13.383397122405768 12.389744822757859
Sc 18.088841765838595 16.091055022951707 13.772553288515345
Sc 15.082327635601066 8.340850246467319 13.392652272958868
Sc 16.718357304618475 16.571983404175338 16.450707234619436
Sc 16.576935384579986 10.908323723100745 14.31698157132719
Sc 16.959697718228217 11.485249496401543 17.29686807783329
Sc 16.174176410068462 10.666725169271135 11.12401072284744
Sc 15.046791216832892 9.260732295662622 16.644929977153282
Sc 13.850417762452656 15.300975741860311 18.077769160385017
Sc 16.226508903662708 13.923767703447904 14.884723490020892
Sc 16.957654741164117 16.952768009344297 10.759763060620394
Sc 16.56620000990169 14.123399421905113 18.058346964768372
Sc 14.57540531850666 12.760924916566255 12.694540356198221
Sc 15.692107847498187 13.630956354911842 9.848781480894967
Sc 15.437546867167994 15.524750725696792 12.39271596747875
Sc 14.357441665446203 8.094604472827962 10.068116170880286
Sc 14.429588262618845 12.215127008694788 19.219024802554745
Sc 12.567621721699991 7.220292482434269 12.285100376985591
Sc 13.329498885077136 10.563630533206988 14.644168560193418
Sc 14.088098944340395 15.983332788793252 15.191236653394528
Sc 13.28215220427942 10.146235449582376 11.721226746296722
Sc 12.551583501677829 7.879296382501742 15.386782025442105
Sc 13.886847064184748 10.999634549658733 8.93715243877956
Sc 14.24501665293408 12.642240534804364 16.520447371478923
Sc 10.960219656924854 11.946460250521135 8.627031297617274
Sc 11.328271989238505 9.07951460048611 10.058999911856551
Sc 15.842805884283985 18.163046176775453 13.915519691349118
Sc 12.398078480885676 10.359370889258335 17.498975441020153
Sc 10.614145115705282 9.183611574984296 13.31057335859414
Sc 12.048665643222215 13.404895470928016 14.409632286160102
Sc 13.212221339224541 13.75569056753328 7.620714250141891
Sc 12.725282921739513 13.405819061629114 10.439803965468569
Sc 14.192743505452547 18.30623938285316 11.507332281169898
Sc 12.51028614188641 15.745180821873753 12.588960938994678
Sc 13.78381391589474 16.135112654169284 9.642696234926893
Sc 11.432371813987439 13.29645327579372 17.491310875788606
Sc 11.290797024482059 16.018742875154274 15.949711674375358
Sc 8.342900741549531 13.11516596612353 10.233311275182567
Sc 12.478284715226117 18.333040603860347 13.963959095197238
Sc 10.774368990262774 11.710250774022205 11.913816835454638
Sc 10.23185176839761 11.249799831060244 15.466478618904121
Sc 10.661985421279681 15.044530418877645 9.038784395771797
Sc 11.133692061803089 17.59070459710321 10.898380079322228
Sc 9.894728681134415 14.511113694812082 12.089080757339486
Sc 9.079639611670084 14.12676474210772 15.13953805432983
Sc 9.522814413364351 16.928722467634337 13.50144073444629
Sc 8.216991869484042 11.91426992547317 13.183287041777414
Sc 8.157132379393751 16.262510587020902 10.486003672892195
Sc 7.042567024818332 14.752225941647637 12.722115255094199
