5
Energy = -20.41340622 eV
Sc 9.622129116454028 11.63616269441515 12.87026647235365
Sc 13.487501596334385 11.62134829249099 10.395737072680323
Sc 12.48789579160372 11.684446094738728 13.089715994541631
Sc 11.075237865052683 13.106042353018337 10.883186716976153
Sc 11.108891567533858 10.125143400374139 10.951657722710975
