54
Energy = -286.57277424 eV
Sc 15.965205563842977 10.492146413055762 15.2439897462967
Sc 17.16641014367026 13.158918816268258 14.23518035251624
Sc 14.496634002270017 10.615991077099395 18.104836711454688
Sc 17.52662389811117 12.886890835736988 10.809226835636315
Sc 15.46522959379212 13.32023697565591 16.899299546160886
Sc 17.22199816337043 10.144933621661343 12.249858593864623
Sc 16.84179775277468 15.346094327343872 12.344085162870828
Sc 16.32563510730445 16.261059997424343 15.172859950120849
Sc 13.579099523251854 8.619938078189145 16.087604342681043
Sc 15.808898096136053 7.386338770656559 10.429213660107047
Sc 14.984727366243161 8.16997013749306 13.414851175055203
Sc 16.62649853612703 10.354342201061305 9.026595114628465
Sc 12.52255682507881 13.059104773525585 18.20517745562938
Sc 14.873210472291454 12.81369185540256 9.639297120458016
Sc 13.450693875843452 15.853343608782799 16.975833904348697
Sc 11.388383813544936 10.153619271099126 17.504523227738634
Sc 16.002923642933375 15.69862686090172 9.409690255295846
Sc 14.819503468127534 12.144582762462647 12.682297300020096
Sc 13.664937400636475 17.477720412618616 14.403260073846246
Sc 13.241847496708868 11.65086047547646 15.604780386183256
Sc 16.909180763446255 13.213482091041987 7.661262276827007
Sc 15.160634834537495 17.820783512530788 11.842219202361845
Sc 14.203352355639037 14.477383570821445 14.437845673775001
Sc 14.033701351106819 15.198474461746542 11.57069138077403
Sc 14.563002951103575 9.761744921109857 11.031171328369949
Sc 12.689612180594262 7.60799167544818 11.26819670237664
Sc 13.851254473604826 8.686716272907667 8.399726732998621
Sc 12.387022387912431 11.00972317014704 9.659736825816585
Sc 14.458729690473406 11.40267974278885 7.10132644008846
Sc 10.452098196507615 15.483918557036805 18.143715135143683
Sc 10.795924277791546 8.128024576203646 15.133915312736208
Sc 11.20642911630047 14.098827155076433 15.651369235520644
Sc 12.446739510032526 9.787550735552484 13.252599467458829
Sc 11.504334403022634 15.439598604661134 12.991760707217283
Sc 10.912671235718802 17.138228845479272 15.578261497931743
Sc 10.16901089177652 11.29183511111697 14.750283391136488
Sc 8.349249417582822 9.68395927867448 16.454563273787063
Sc 13.871153250182026 14.484340597369068 7.251369179960208
Sc 12.076210026189 14.095766235847675 9.626752116492652
Sc 11.587322755060349 12.500054660158934 12.202809962910655
Sc 11.933069234915164 18.031051076427445 11.949367729642157
Sc 9.341876436526698 12.582347473946578 17.471456670000943
Sc 12.979067928004227 16.89049932998317 9.215081003431802
Sc 8.635210118816929 9.077818635270525 13.50770723104876
Sc 10.103476229188766 9.917944445292695 11.053971922017091
Sc 8.466989064571168 15.243105749981266 15.818518515522705
Sc 11.540859859160886 12.325822233121437 7.198011578443274
Sc 9.015111221274832 17.086267086954297 13.23765268931934
Sc 8.953488065298497 13.998197665480912 12.971360767529616
Sc 9.97524683215403 16.040502598265057 10.458835516340972
Sc 7.406294826742666 12.2334945260046 15.037746383203311
Sc 10.699709052284893 15.242937140908012 7.468292422969525
Sc 9.506805502464289 12.879622426708893 9.788776114678463
Sc 7.798763058422069 11.499603986329475 12.134444333012535
