55
Energy = -290.99483237 eV
Sc 8.086674485966272 10.868530940717072 14.363329261248014
Sc 15.55840227981546 13.121011915921347 10.92992093986201
Sc 12.808235113221198 8.648634694109528 16.562015262220264
Sc 10.030386761931219 10.572014148822934 9.010506184583102
Sc 15.595142156469578 13.326284637156913 14.252487392530067
Sc 12.71690960865064 13.061344979825916 5.227121586188512
Sc 10.924764924970178 11.09515709825018 12.792027481014427
Sc 8.054044906730338 10.680917624316638 11.309722505671584
Sc 12.717135831084375 13.57061213107886 9.539268428899543
Sc 12.825261788542607 11.551139423301157 18.112592426984836
Sc 10.131790464722567 11.046823509337948 16.60292712326609
Sc 12.74728267539799 13.828108641855719 12.590408444249485
Sc 10.1695650273055 15.528043359205485 9.17782700676134
Sc 7.744031557475929 15.612101666131773 11.005707414716776
Sc 12.79184015168714 13.955276377811535 15.649335624690838
Sc 10.382364359400206 15.875704506760197 12.490327284897127
Sc 12.692803693332525 10.878722646687146 7.400666277569322
Sc 17.651355275544528 12.997127896133264 9.071589219966524
Sc 15.368928251080698 10.467852428123125 8.976544418129993
Sc 12.715512042000912 10.678772463786778 10.44595831276329
Sc 18.334715854945962 13.087465841784459 12.568460674223612
Sc 14.52582858428809 11.036972401154062 12.739632049052494
Sc 12.793127756761578 10.976755686674538 15.118179853627481
Sc 7.842899964922401 13.190339346973351 9.146233798204637
Sc 15.475094972163914 10.956480383715176 16.549345594961075
Sc 12.733850523531075 15.39305330378488 7.248269517957684
Sc 7.9243822444597685 13.630976069513169 16.20308471128702
Sc 15.320532343270758 15.501653657731332 9.117666548499514
Sc 12.750252146090137 16.46753295971382 10.602670783781994
Sc 10.744122441337211 13.75918146136021 17.82954329968233
Sc 15.162851424751096 15.84167062449664 12.432339088016155
Sc 12.796701023640892 16.69693365424826 14.233303072160075
Sc 12.884414167400257 13.98844624059742 19.992167421241557
Sc 10.198252517635604 8.553315278645114 11.352555141684471
Sc 17.350408118713812 10.592464206994725 11.243088155764251
Sc 17.72521575193486 13.4503578241738 16.065646901784838
Sc 10.225814896325998 8.748851621998002 14.53857814371886
Sc 17.392235329328685 10.787913349601787 14.232158536216348
Sc 14.932755725557076 13.722257086096853 17.747212614954968
Sc 10.619693825422537 13.111566515617046 7.446212598024211
Sc 17.77728507527798 15.46589074557889 10.897341351479191
Sc 7.780283564328221 15.806720040337392 14.061450230547866
Sc 9.892602634995455 13.181645872213835 11.00339187952155
Sc 7.599962002469362 8.216739570806139 12.995079715235939
Sc 10.249928221473253 15.945723312873929 15.825628493695595
Sc 9.928675308424245 13.394167815951649 14.311284648696136
Sc 7.160847523038624 13.245312025903155 12.694280081819315
Sc 12.857915535169923 16.050893350953384 17.694509968677934
Sc 15.174896941010003 8.52566315565162 11.310081658829212
Sc 12.731636564522468 8.1950255436067 9.292619938672457
Sc 15.403487189638737 15.915829740682318 15.759695861098995
Sc 15.22426681075762 8.734994056705869 14.479519022226564
Sc 12.719276107883957 8.30184159793655 12.955029626680131
Sc 17.814083782063594 15.663879871759336 13.931484351321224
Sc 14.813941771134804 13.07197469483179 7.446642070441341
