50
Energy = -262.61539814 eV
Sc 18.455989482210313 10.670529575037143 15.165402283416443
Sc 16.203789080770296 8.580364656989747 14.7392734413312
Sc 17.56862800644493 10.443793295150554 12.446529028996808
Sc 15.258365269615178 8.09114877575755 11.590410047915391
Sc 12.526206461962213 6.895597001542685 10.62217301727825
Sc 19.219728589966103 13.16603236464703 13.402431608471954
Sc 13.139326740576944 7.5507891169167465 13.663656005036145
Sc 13.433547252311646 9.364219179698724 8.84190039218677
Sc 18.52761885970021 13.209670560469528 16.480695215009153
Sc 15.725784346408412 11.419457051605953 16.42010604718949
Sc 15.565415344447299 10.720451128176931 10.335544289617594
Sc 16.980521204919736 13.191580104100808 10.911632689197868
Sc 14.630539488892536 10.543225293239084 13.439368760999486
Sc 13.491460325051698 9.462648234480925 16.110102947205498
Sc 16.5323252563699 13.05281392943503 13.951904372024606
Sc 12.339596674701513 9.738730382169926 11.652151768147672
Sc 10.189100716331394 7.71003959949404 12.355979240156078
Sc 10.467965746295521 8.882197108409393 9.49531769248729
Sc 11.696612052397372 11.82689035763211 9.677308346051175
Sc 16.819102460062023 15.908053088882427 12.38090937378907
Sc 18.15732120913187 15.613055262217497 14.961439538988182
Sc 11.086134503163079 10.057472757038326 14.38146182565357
Sc 14.448644636260843 12.700443994278295 8.571316774928805
Sc 15.71553772913533 14.717291362009007 16.462284383549456
Sc 13.15252632693109 12.5094212680182 15.03541707117195
Sc 9.280189292102671 10.655494769822369 11.804697448212329
Sc 11.28569657565928 11.461734087386024 17.172727621422005
Sc 13.843877844560541 13.108733841666083 11.644452806685033
Sc 10.852153868388344 12.88187347246881 12.766381667278845
Sc 14.895926885773173 15.442879640928645 10.104816603825775
Sc 13.111588732067972 13.705422813398998 17.7994004926729
Sc 15.729234121621962 17.51440151772903 14.913573981177914
Sc 14.10718829286064 15.337620932666944 13.902168086699774
Sc 9.089685352580096 12.231298884423452 15.31960199266926
Sc 12.06731827802616 14.69634667080726 9.003194717313123
Sc 13.415584023582166 16.521334209396407 16.80069643893249
Sc 9.321562324905994 13.734510408419178 10.178099288783573
Sc 11.270343113931638 14.743251341715114 15.218453040352586
Sc 14.238150097789266 17.783983575198963 12.03242836555322
Sc 10.015630603355344 14.161562430882341 17.72112556038728
Sc 11.746187310314456 15.71005498922331 11.787873139130259
Sc 7.8588503302538095 13.319359543726147 12.836198455443952
Sc 12.745489823586807 17.604494269980545 9.3383721446991
Sc 10.499611545736881 17.110059831486815 16.99421059636415
Sc 12.695324308084139 18.343928536491035 14.612947927869856
Sc 8.34308096034303 15.270957914853582 15.222896827536752
Sc 8.68739340845023 16.060508768714968 12.036235148119744
Sc 9.87322949444085 16.826671798689002 9.376115843944987
Sc 11.148978093275266 18.554653233986944 11.66160954105814
Sc 10.064780498054711 17.412286178988467 14.153170250250463
