52
Energy = -274.3897132 eV
Sc 15.366322147244452 18.033302239133615 16.545240350519528
Sc 12.900648844265069 16.544992004897246 17.673790249318245
Sc 12.519887542946101 18.589643506830637 15.294220416542046
Sc 15.271416278688381 19.07448856287367 13.719074290974431
Sc 10.079897671002925 16.91586279110489 16.567959945421222
Sc 17.221926744178873 16.726818790699234 14.374876258327761
Sc 15.388047043672024 14.96627198543906 16.6656194637708
Sc 10.195143395994695 14.176800668761611 18.003211320810387
Sc 13.378824545974012 13.491076743441626 18.502655921421415
Sc 12.83984446515966 18.449185009210034 11.962396981764753
Sc 14.109270017086496 16.366502810584134 14.221088210926297
Sc 11.942617176280473 14.592271619144594 15.729402920101185
Sc 10.763904955616987 16.605230187216062 13.564820301318123
Sc 15.674098513798404 16.75121369739077 11.553250516334195
Sc 16.64652110412182 11.689402544816332 15.975741337329715
Sc 18.378147497911893 11.98464663092118 13.253633734587853
Sc 16.042060129406774 14.018943317764302 13.844757028690989
Sc 8.91321502948452 14.43447126537748 15.19484513697309
Sc 11.433082169898562 11.512259869815326 17.433696515548213
Sc 14.048247618124735 9.642982570816917 16.993721696760627
Sc 13.890302018451607 12.378158176696239 15.781736007851325
Sc 18.029797628403337 14.751892096316208 11.682312803438782
Sc 12.789458111745489 15.652905817825335 11.568605039452358
Sc 12.982687085781523 13.341753592772884 13.219454788084771
Sc 15.991542845569352 8.872014922815858 14.639847318388291
Sc 17.2284061889245 9.405595768409967 11.663136918986957
Sc 10.979713680115339 8.910591142266817 15.961003739613147
Sc 15.611199372660478 11.322997685953242 12.964861848887013
Sc 8.495583727352862 11.573379123451012 16.412153054977786
Sc 14.987952834013393 13.689096552109202 10.864582215070657
Sc 17.436348438525943 12.155089993177471 10.27999629801596
Sc 16.671202576442177 15.134227467503989 8.960557538943819
Sc 10.114961672818573 13.905152536751876 12.254607415654965
Sc 13.091625606689838 9.924484552374377 14.101587358069905
Sc 11.783778274273724 13.361669036245997 9.810222596463085
Sc 13.532948160649916 15.847519529002343 8.757614863344628
Sc 10.612212391824 11.790765737907199 14.48900378171847
Sc 10.488471523478964 16.127488761996887 9.96780915609691
Sc 13.434833499456436 7.215264974572272 14.951886648670731
Sc 14.328342401305889 8.197498100759473 11.97833759131234
Sc 8.72898187694999 9.475307077342809 14.006417563989007
Sc 14.666450911718469 13.082426915502051 7.963878035979612
Sc 7.806533706637221 12.16239841990669 13.198836837706171
Sc 15.257030997772693 10.196238208585925 9.332344999059842
Sc 13.206640641318812 11.111456595563615 11.206089752223606
Sc 8.684965584164159 13.488220805631574 9.77127738472927
Sc 11.232492601894142 8.045181821452884 12.838525930869405
Sc 11.175785076102914 13.779014555103474 7.276615477594655
Sc 10.144427686700466 10.834036020182644 11.577858730242967
Sc 12.668241082523123 11.052169653648177 7.967066444653962
Sc 11.959026841958131 8.831613742954268 9.82251071576719
Sc 9.949106768722762 11.100882469395792 8.619418778595334
