52
Energy = -275.09263625 eV
Sc 17.50146681123692 11.662904219085485 9.808677263237517
Sc 16.5669190277318 14.004017318994073 11.45696132965481
Sc 19.389805315597364 13.488008091940605 11.888119716175918
Sc 15.494299734220277 14.406688168726507 8.585555274292883
Sc 15.894407692609798 16.74102260927117 12.214114904449819
Sc 14.7905602155079 11.4379645038308 8.251445870497024
Sc 13.41301965489822 16.543913015729007 10.462018348790211
Sc 17.98684692445506 15.345186369437108 13.864746629015368
Sc 17.673802366245205 11.230343489107042 12.719843939524276
Sc 13.197804649978844 13.217102888288467 6.5923836510169
Sc 12.96170576474297 15.875356690292405 7.453210262166275
Sc 15.99171545154126 13.072829638733111 14.46365903711352
Sc 18.833269311234726 12.713695806089122 15.073095082787258
Sc 15.625996698789455 8.88868388135257 12.426960204546216
Sc 13.746654384519317 14.40394214833575 12.767728532978312
Sc 17.45460202524617 14.903367389533816 16.764079259980196
Sc 12.86103597975719 13.561404922023515 9.576762046794146
Sc 13.665609540988797 9.102922425964579 9.906353999671298
Sc 15.036611095548473 15.930808573166326 15.159682017668827
Sc 13.17650602554294 17.648373885138955 13.419457469020916
Sc 14.900322011166688 11.693022664293387 11.307055845101296
Sc 10.697558080902876 16.11569295361846 9.275410586218925
Sc 11.727916936008636 10.920674981712736 8.31356154493652
Sc 10.258832582148402 13.59472118232073 8.053354826433052
Sc 16.572974533634707 10.092170214879898 15.306584034646837
Sc 16.223411435315384 12.339667759302305 17.535588344470586
Sc 10.564557243917209 8.791430143396171 10.163116481198243
Sc 14.34844206903285 7.885047294807637 15.059452265383513
Sc 10.55678719550945 17.26764793388006 11.899176505294625
Sc 13.846627036447767 10.675659304190516 14.1072437341773
Sc 12.498707863709209 8.32705208182043 12.619184423376923
Sc 14.718379379204816 15.118709697440107 18.18115761114124
Sc 10.557919119417697 18.259036734460818 14.780155393816466
Sc 13.521218795278765 13.124982537494954 16.310802361959894
Sc 11.929263488193515 11.079564242047608 11.420331747852424
Sc 11.601062414677443 15.34793387539117 14.99966947055537
Sc 8.416550183008852 14.914561010086667 10.711631877217714
Sc 14.004019995692492 10.202729432034085 17.138166825809055
Sc 12.732713120136756 17.368356107949722 16.802465806175828
Sc 9.26907851566645 11.822662079153384 10.361383409200448
Sc 10.822461290382725 14.162477865697825 11.91671234836631
Sc 13.667312655663993 12.53077525938741 19.256714570933323
Sc 11.453068521678095 9.222339849446438 15.45132828955604
Sc 11.079879770302655 12.132394064151491 14.435557407516306
Sc 9.60285490524407 9.876053909442803 12.921094401959541
Sc 8.81292767234727 15.821914109083668 13.936211542453067
Sc 11.65169036093521 14.675999864413075 18.110276965424596
Sc 9.678230602060715 16.74198117772522 17.007072883295244
Sc 11.110394628372335 11.58955131674795 17.488044916513328
Sc 8.347592152756858 12.777514901758959 13.268705550229091
Sc 9.202636249177413 13.737655742904163 16.242527538785183
Sc 8.699088965070782 10.768095760671804 15.698636396731365
