5
Energy = -19.98399573 eV
Sc 9.138700672047195 8.600136357000812 11.202870257306145
Sc 8.918314078062194 7.628578374601724 8.452215056814177
Sc 7.525331193572721 10.151816397939932 9.542062290701816
Sc 11.146912217196538 9.486682853390787 9.48775509781495
Sc 9.403607868457586 10.355104006924964 7.496707742517328
