55
Energy = -292.98414189 eV
Sc 18.534913905540357 11.140639199825053 15.040538796768818
Sc 18.00660330511922 12.376008253100212 11.961793901154378
Sc 18.560036290778317 14.466603300221621 14.257978793298054
Sc 17.13306328224277 16.77877381358636 13.266990914354365
Sc 17.57493288535852 13.419985416015528 17.306793153856546
Sc 18.018370763481368 15.263599129135434 10.767969540518715
Sc 16.334992079979124 10.308208225058596 13.098922917878722
Sc 16.735065088982076 12.805897532815989 9.344170526356088
Sc 16.38322767038922 10.693554976605807 17.055664528801024
Sc 17.05080661848439 16.41732210828879 16.30018502497643
Sc 16.35068769197211 9.751260717933457 9.970833511664457
Sc 16.220277336003722 12.837103752205927 14.706227135241203
Sc 15.104589299192789 14.850917307091956 18.04959451864456
Sc 15.57406872595355 14.425108545717341 11.825883144567559
Sc 14.491209303889278 11.472872707752725 11.087678624998384
Sc 15.326534239974036 17.44827667203032 11.031449161766947
Sc 14.46322510819212 8.282302763658004 12.26491114388686
Sc 15.092564751891425 15.201285984766944 8.757343564681577
Sc 14.511394901163259 12.023668232093907 19.004067447967046
Sc 14.078747939775702 10.124352649185521 15.06973517083789
Sc 14.683702600568575 18.25862734120439 14.151632182070339
Sc 14.846521780187343 15.345825725643882 14.893535507634759
Sc 16.28935955949486 8.268721175710715 15.305669589156143
Sc 14.053423193276716 12.118124433001633 8.150569377372483
Sc 13.78091220549586 9.285377054084321 17.737910135788617
Sc 13.615121768926736 12.749746205841516 16.354629855643527
Sc 13.47414124784127 17.12098875895181 16.965522429900698
Sc 13.447689545189624 12.806647536413237 13.381452799444471
Sc 12.664304688690404 9.459442453995008 9.802231216686588
Sc 12.12622174218236 14.46065009382453 18.37672448577335
Sc 12.970163675377144 16.25882290380761 12.557056166457079
Sc 12.760572758842745 14.00707028857824 10.201341140747493
Sc 12.234284454192775 9.917986638827802 12.95974729435157
Sc 11.447086582906694 11.35093671861299 17.863688144926417
Sc 11.253441254814483 9.029531801215338 15.595018496183682
Sc 12.807725734002664 19.1723450724954 11.863490745082366
Sc 11.749625801386891 15.145623476400251 15.370315108433408
Sc 12.548808966655855 16.95663445784527 9.590832244551416
Sc 11.175241195012898 11.689432558991005 11.364723983181252
Sc 12.313361527641044 14.629627680164393 7.368826880260968
Sc 10.883231885963562 12.062350797395931 14.796519332119763
Sc 11.568110604836852 18.10253036129594 14.60370493703203
Sc 10.933713978579066 12.067767298929398 8.498944715123557
Sc 10.336535819162387 16.83370011149628 17.323547014330867
Sc 10.363369536848275 14.393083532599803 12.49480778384639
Sc 11.030955143127962 7.67404553071222 12.017688620747327
Sc 9.488605459170373 13.911309193160088 16.87193883292576
Sc 9.196691306077224 10.151556499796815 13.114411043796188
Sc 10.197930109152734 17.335147425173975 11.793833388486247
Sc 9.927110697180977 14.988220865696393 9.51814194507269
Sc 8.417288877715528 12.500388946511404 10.88041596403805
Sc 8.976388802171968 16.139753069423953 14.569736141815957
Sc 8.063612280201992 13.216831395880728 13.940467334522685
Sc 7.664649775533509 15.347544173747043 11.829612284454795
Sc 9.568145525581185 9.559228407835755 10.125942628176324
