6
Energy = -25.18677634 eV
Sc 11.398291749041332 11.648829090105881 10.623802807751419
Sc 11.336446687294702 9.270253198524472 8.850469256768513
Sc 11.245475957628303 8.953046364625777 11.842887899722001
Sc 10.048314396771199 11.559548929700135 7.932599369721905
Sc 8.975123220077448 10.15939130296292 10.362592024241822
Sc 9.759961515534432 11.129613765721281 12.971852683603482
