6
Energy = -25.18757408 eV
Sc 7.042119988855154 8.381286792208531 10.573215175131875
Sc 9.84135498283179 8.007271121368078 9.94302967060455
Sc 8.264314257836917 9.751923994616197 8.33004585899446
Sc 10.742521683348398 8.551189208572213 7.121883210912414
Sc 11.025295980086101 10.548744836862715 9.029326012926216
Sc 8.852592180548463 10.53533740619205 11.114514783563044
