6
Energy = -25.18631196 eV
Sc 14.2518302225354 15.019937682279616 13.410344616378005
Sc 12.010595786022572 14.619007345312044 11.83577622610246
Sc 13.986296526615947 12.418043691958474 11.912559775415765
Sc 12.875872915665784 10.138085331645259 13.32748368524179
Sc 12.328228101288053 12.85232287972923 14.189069777830579
Sc 11.117812590991209 11.734310053664403 11.732901773198861
