6
Energy = -23.69462847 eV
Sc 11.147205028921833 7.736800406758408 9.717355956076032
Sc 10.831194235006656 10.354754515933678 10.873626687388334
Sc 9.80282682319901 9.833108044630913 8.178820785739658
Sc 8.21846242240091 11.330832005805961 10.142093043821827
Sc 8.746412503468669 7.10219011107059 8.248637178831848
Sc 6.936216482886112 9.324632411684018 8.52178384402574
