6
Energy = -25.1879108 eV
Sc 10.529036859708038 10.774158715824669 8.91809524284883
Sc 8.614887273110709 9.047226781765126 7.371065728364904
Sc 9.800678145211187 10.662480779459518 11.777037230952748
Sc 7.695363781149246 10.369175121151605 9.632322508752951
Sc 12.247857517298867 9.463405790883582 10.844229707564448
Sc 9.725740537328438 8.26945006440087 10.052619909729424
