6
Energy = -25.10953126 eV
Sc 12.617868759983164 12.612036507350117 14.573195251943302
Sc 13.35017416015963 14.922424060721942 13.072703962744615
Sc 15.074144272297582 12.529477022488182 13.151841199503467
Sc 12.309393898892694 10.591799260386383 12.607560673603984
Sc 13.116339170118751 12.871139830071582 11.01049459099385
Sc 10.66484539336042 13.061959660338436 12.558487558720103
