6
Energy = -25.1596257 eV
Sc 13.599729999900271 14.214124686374948 11.070434690720862
Sc 11.769257481028085 13.036213890946149 13.124628176881728
Sc 13.045597095567661 11.25868786829646 11.304844481051894
Sc 10.159979532945044 10.954265888406896 11.794842750259406
Sc 11.900168283492938 10.109856552709065 13.82781914019834
Sc 11.104627980965837 13.205548076268434 10.254704962949981
