7
Energy = -30.3494253 eV
Sc 10.373015220699312 11.646658754056622 8.305648958742289
Sc 8.145766239304836 11.187757384422857 10.197950862193114
Sc 10.839382967551837 12.0861693681008 11.258865160934613
Sc 12.151445048674228 9.851838543485208 9.984325372665685
Sc 9.96668744380918 9.391035519289655 11.81850909847572
Sc 9.482013053845819 8.893725056394088 8.884347166200067
Sc 12.531568684908354 10.302502811473182 12.873629756802337
