7
Energy = -28.24546052 eV
Sc 9.567612997024797 12.05897996182902 14.702383865938033
Sc 14.058529138696063 10.958180023704534 10.989199780538973
Sc 11.731008222418328 12.119198708591435 12.436589077222882
Sc 9.35798600333475 10.4057163733067 12.48513110584258
Sc 14.244435602857164 13.640818774991882 12.022166161126213
Sc 11.231044311127715 10.405330834775809 10.124259530869415
Sc 12.540439537001111 13.093471899208637 9.74462733769925
