7
Energy = -30.19264505 eV
Sc 11.995186619464281 14.49138724721448 13.405755303201559
Sc 12.340335448529967 12.541701649918195 11.288869214336462
Sc 11.019019291279978 11.650208446639697 13.867331669783782
Sc 13.389163006229385 12.53829643366578 15.282139751831693
Sc 14.667293708119209 13.499897580274906 12.683899016578176
Sc 13.757740259892396 10.614631920654361 13.110487773794514
Sc 13.202030687589263 15.236631170254991 10.899057652597952
