7
Energy = -30.69495778 eV
Sc 8.261401222493774 10.370035242976588 7.67766694379873
Sc 9.249513255671697 12.208600644593668 9.953649120137248
Sc 10.8817096446793 9.967782826719764 8.96296055063496
Sc 9.233691125543553 7.624121732419355 8.184557935847474
Sc 10.904003723095524 10.610263631141475 11.80306837061036
Sc 8.59404472538525 9.373427458587823 10.423659355614017
Sc 10.93751700222573 7.686541262289151 10.769607714817234
