7
Energy = -29.86593394 eV
Sc 11.79818476443882 8.36349626028272 11.008923244638595
Sc 8.895356452858346 9.211994361162953 9.9829220303273
Sc 13.36407429692463 10.942420825084499 10.692393453017006
Sc 10.541745645428318 10.869531760956077 11.597137107336408
Sc 11.46135365900486 10.133415968289768 8.76895372357445
Sc 7.618902822579614 11.513632450196846 11.475228130487682
Sc 9.291211065520928 12.145603238612946 9.315885794083753
