7
Energy = -30.68403945 eV
Sc 12.170230161736967 13.866710288094737 10.720682577340082
Sc 13.276125911433242 12.722459244670857 13.14478665716891
Sc 10.476627141968205 12.072775389502434 12.34252199120111
Sc 10.144315721069741 11.70697294343344 9.445021267267913
Sc 12.053007183079067 9.892568358132316 13.452915473762866
Sc 10.119641037456315 9.347792376565472 11.151203402394119
Sc 12.630447449866882 10.959672091355372 10.817979601502271
