7
Energy = -30.68318143 eV
Sc 13.407846312210147 13.70747636160599 14.978481724040273
Sc 13.593036157260604 15.145572475982013 12.223946137585923
Sc 11.751041680922292 10.588711448043243 11.758873162441102
Sc 11.404252172433027 13.24774968158408 12.929764959294985
Sc 12.605844151921128 13.288024436196274 10.235413333270301
Sc 14.047604823500865 12.211716664832283 12.580419044530633
Sc 12.25169638861667 10.924860828115133 14.61867843986306
