7
Energy = -27.7454741 eV
Sc 10.168279796895593 7.843949262395497 10.977810867678192
Sc 8.6945013 10.3942226751577 10.978600962993292
Sc 7.220722803104411 7.843949262395497 10.977810867678192
Sc 7.220722803104411 9.545053337604626 6.411191732321812
Sc 8.6945013 8.6945013 8.6945013
Sc 10.168279796895593 9.545053337604626 6.411191732321812
Sc 8.6945013 6.994779924842298 6.410401637006708
