8
Energy = -35.58667069 eV
Sc 12.77532094381719 10.720748248923694 12.535399529839868
Sc 12.987612913983623 12.248594860175555 10.053681358811993
Sc 14.891684559508503 12.850839918308548 12.40974244617767
Sc 10.581372641402746 10.17517600750936 10.774021839520415
Sc 10.176813328005132 10.744442641503909 13.74916974497664
Sc 12.418102161917158 13.067182524003433 14.246634782324232
Sc 12.981467522802875 14.830069477180263 11.765634291867109
Sc 10.752921075262682 12.821359838500378 11.85486412247679
