8
Energy = -34.90781004 eV
Sc 10.935942363676729 9.232508546209493 7.863882911171908
Sc 11.356089568312047 7.859810126047546 10.486815673031495
Sc 10.73755364968217 12.109767406373841 7.595795549057355
Sc 8.627941906718942 7.640541101140463 9.27639243613622
Sc 6.32313692563566 9.053783104503486 10.34532262651077
Sc 8.934297962558242 9.230149152620868 11.589281959698779
Sc 8.48749134132923 10.626883345355768 8.953462578322744
Sc 11.23024532765743 10.833623381433028 10.170726190381535
