8
Energy = -35.58209325 eV
Sc 10.137707644426328 12.40743152116708 10.562801955624478
Sc 12.570199261320958 13.74485406470286 11.674729302478944
Sc 15.208972605030473 12.73966545262731 12.126290079296574
Sc 12.944681894747696 11.112948678633916 10.44426496959453
Sc 13.048723696247269 11.315651464632314 13.355355266879009
Sc 10.569936890169526 10.116439278041236 12.160872238496745
Sc 10.567074919134816 12.85173516591925 13.60127333809396
Sc 13.537425963389001 13.955344083953047 14.372102953548085
