8
Energy = -34.612907 eV
Sc 10.541258229260436 11.770662935908197 15.491377304892726
Sc 15.342281571897313 12.972730234560444 13.424519774004622
Sc 15.921076001507611 14.179206914252031 10.749588803807638
Sc 12.616838553314365 13.766038397917127 14.435093026117238
Sc 14.30321339247232 15.59747564436511 12.554349187255783
Sc 13.173419548296721 13.073205528849357 11.501682361938501
Sc 12.727412640393453 10.991077077689464 13.621726668528618
Sc 10.403222005328987 12.634804949966593 12.832680071369515
