8
Energy = -35.10570158 eV
Sc 12.034996889966541 11.822338460098866 11.240241846031775
Sc 10.253634648953616 10.0179090073149 12.822912957976511
Sc 10.229440875184146 9.835160622064045 9.83644565128795
Sc 10.772355891866832 12.586039623699367 8.700748960063512
Sc 12.943036362537814 10.512310777474198 8.747401296073052
Sc 8.971983469232864 12.137247562171106 11.139429765924739
Sc 7.695946019822383 9.616750569696121 11.663621491540713
Sc 12.648728056990786 8.9070903271349 11.28827390339752
