8
Energy = -35.20778544 eV
Sc 9.696569503239907 7.904536939742423 9.508419767197926
Sc 11.536613585959032 8.940956768945131 7.454198382391946
Sc 10.008006315594741 9.449274454268934 12.133624340922466
Sc 8.708382382678355 12.109148987729695 11.781832518539712
Sc 12.410140189653136 8.75517839570594 10.311546477559206
Sc 10.450129295781254 10.850115109264115 9.546915896502462
Sc 7.698771655097782 9.944793413485211 10.352914045976833
Sc 8.665807149841994 9.813379070104919 7.4252207482855
