8
Energy = -32.8145711 eV
Sc 11.720853153080444 16.36153036458864 10.605575899356598
Sc 11.097472318447053 12.31017282477243 13.759899961653026
Sc 12.606055704330194 13.926807314864858 11.559025560510738
Sc 14.03894356167847 12.005085237227473 13.47046243499982
Sc 14.803975494761547 12.245205419792267 10.66100289045808
Sc 12.14141731457053 10.888215071086432 11.417398413925403
Sc 9.601020109780166 10.082475977838799 12.864035474312654
Sc 12.212984990332638 9.677827320641018 14.076997294702128
