8
Energy = -35.58633946 eV
Sc 11.938998776481865 12.264476459034743 11.483304670722704
Sc 11.499247140264114 9.302989237042166 11.524323746874462
Sc 9.159479769884916 11.0423013436619 11.742583841036916
Sc 8.708778105503669 8.126206843227319 11.188765560795423
Sc 12.896081316376375 10.611771401826646 9.211367427577706
Sc 10.158066246691217 11.839079068805667 9.117992159212063
Sc 10.392910425357032 8.943938073584102 8.84418167332528
Sc 7.662160100926509 10.143199155741145 9.283874945354922
