8
Energy = -34.28161634 eV
Sc 6.995105662567717 7.448776354216069 10.909194658333373
Sc 9.493467818415018 9.051289415995363 7.033258894592739
Sc 8.97032235079958 11.532397354554092 8.356176456721524
Sc 8.355034030184662 6.692121847656544 8.510303190798991
Sc 6.8589649861900055 7.826196196588354 6.108234585457939
Sc 6.9558379550949265 9.324408401119053 8.571990382288252
Sc 9.350926040344916 9.072839011627742 10.021125498267232
Sc 11.322573156403415 7.354203418242662 8.791948333539947
