8
Energy = -35.07341647 eV
Sc 11.944709604556738 10.194208069019007 9.511230115646725
Sc 10.737994516878345 8.687363253080113 11.492166557069318
Sc 10.219068626389507 11.64362298523376 11.53777227411805
Sc 8.031661460874462 9.183756434068181 12.058934489616032
Sc 8.797476497944212 7.53721270625944 9.520507470079819
Sc 10.458670011214888 12.262973849107926 8.280399478660927
Sc 8.863163517933863 10.267325388691932 9.551896900036907
Sc 10.131008107465549 9.377044688717676 7.277691003307604
