9
Energy = -40.30020596 eV
Sc 9.861914363470918 10.447919176890931 8.572723951911039
Sc 10.564005078951375 7.526954825778541 8.90092335007216
Sc 6.3829803723759015 8.077922407069815 9.103296464813393
Sc 7.630895735632089 9.705697936049809 6.873544835129184
Sc 8.338340011150198 6.8292473848457655 7.190479501953988
Sc 8.280821857031409 5.904084783315219 10.070367092606784
Sc 7.040262152021055 11.043934165174687 9.523355678353262
Sc 8.62698765598746 8.824446821557194 10.774278779699335
Sc 10.38176941384374 8.747769559240728 6.099007345460618
