9
Energy = -40.58914775 eV
Sc 11.516635989775459 11.862741048467456 9.287017602311069
Sc 9.575109462716792 13.210937954259194 11.291351037357574
Sc 10.764338926093544 8.556954579323211 11.817937664953144
Sc 12.787208594192439 13.499780341609185 11.207147569354799
Sc 9.17658117662852 10.32328684953258 10.129306704150846
Sc 11.500437681412357 8.862691881963421 8.91835801643642
Sc 11.320835275119137 11.34157206278645 12.381670869527442
Sc 13.389496868465772 10.235313573211137 10.757959447805119
Sc 8.571261170887889 10.696808493612888 12.882187339716078
