9
Energy = -39.53240043 eV
Sc 9.821995917881452 10.690541417143608 8.323268273314966
Sc 12.470939328868313 9.500113050225863 8.074858228531504
Sc 7.439035225044917 8.573991482795135 7.983857305787355
Sc 12.356362261673535 12.20138144363983 8.99795068643697
Sc 10.058371851101727 7.8475948568485405 9.205528533339454
Sc 7.314462286477169 6.861173648014603 10.370471526905657
Sc 5.300742874838274 8.849721583360559 9.950773956088321
Sc 8.145523027772882 9.644021695257535 10.607569351257979
Sc 11.333068036048903 10.071961632421633 10.726222948044962
