9
Energy = -39.77730217 eV
Sc 9.756498555633314 10.634554627731044 12.956120479775475
Sc 11.093088225058514 13.400126442626966 12.919626096655389
Sc 13.750927063363884 12.080092202533715 13.22841074869963
Sc 12.38917241358374 9.343578494794306 13.263789954717634
Sc 11.85831000932872 14.249630139769536 10.086181380240197
Sc 11.956883452243405 11.316811154905091 10.968223470070885
Sc 14.477601194952468 12.93191388121637 10.371157317766652
Sc 11.51500516386625 11.386882014155097 15.18999600526311
Sc 13.638967285123888 14.988760640108794 12.312240791563578
