9
Energy = -40.15937352 eV
Sc 12.211633606974713 7.612591802191859 10.016759035270836
Sc 10.601283852297446 9.670600808658861 8.420287420800731
Sc 12.056924112545328 10.418939710076021 10.945128869226489
Sc 9.689281562175225 6.7793648609453285 8.642109455877499
Sc 9.6233139939846 11.807525629641306 10.368018308869205
Sc 7.7044455494310435 8.800971626856663 8.529048756195495
Sc 9.52749761372457 8.787653063803061 10.927081053562144
Sc 7.950505387674541 11.595453456143286 7.899868478973069
Sc 6.852855803907625 10.744394744559893 10.469188397397993
