9
Energy = -40.353617 eV
Sc 11.020684116313848 7.6276196659319195 7.073726179096515
Sc 9.95518306633313 10.214842491164772 7.81654535012039
Sc 8.61334103311001 7.613634993058679 8.688172202064889
Sc 8.370204904453642 8.618653330631089 6.011612298538825
Sc 10.131834152604492 9.950319047450137 12.9473093243474
Sc 9.245433805906686 11.356271126749323 10.542186175026128
Sc 7.962455619890023 8.925751897744684 11.325741759968157
Sc 7.147929996287372 10.130474425285497 8.567505135136825
Sc 10.797010757484946 8.806510474368501 10.271279028085175
