9
Energy = -40.56681597 eV
Sc 11.378577057536544 7.9306640506714 10.847441051533965
Sc 12.793318859583954 10.678999098660848 10.646848302426873
Sc 10.122015202514866 10.523936491278404 11.929053099559594
Sc 10.756033829201565 12.808977529773165 10.130569896404353
Sc 10.329585633863207 10.04737588915823 9.035886154400632
Sc 7.931554003219592 11.51294117686381 10.017390367799878
Sc 8.375213160470876 8.52776563077549 10.619843034230907
Sc 9.718949123793347 7.197289884083674 8.321848415517191
Sc 7.660557273119469 9.316234864681807 7.850527192470814
