9
Energy = -40.5794407 eV
Sc 12.540116185898986 11.703535480823142 11.62046722423487
Sc 12.625162868358606 9.128410881866385 9.691062660836751
Sc 10.57303324662674 9.676101373837747 11.501503224411701
Sc 11.046502723465558 11.710364744962595 9.212844304805497
Sc 10.19992202664754 7.111672461743457 10.343522606505251
Sc 8.040297597351195 11.637109918589132 8.761488207986885
Sc 9.226992073706969 12.21541706628038 11.413865560419191
Sc 9.74902544981922 9.194681547414818 8.435513062117636
Sc 7.856568937584942 9.30917791725134 10.676421717622382
