17
Energy = -32.70630666 eV
Ag 11.426167401806925 8.91197712882827 7.44968459176466
Ag 11.77613586835032 8.35074860483556 10.166472543743996
Ag 11.21636706141077 11.745039783227545 7.393735889803706
Ag 12.369095368085892 11.170823179693787 10.088484867069138
Ag 9.66863606035098 6.872638033506546 11.288869926025587
Ag 9.102984755524508 7.686051746279733 8.712774408355301
Ag 8.982236568418546 9.907366188631293 6.627816679460086
Ag 10.702798082544762 13.411099681555772 9.577456517046288
Ag 9.875147047448209 10.287357335353859 9.313645698459286
Ag 7.183492914022528 9.881614384376226 8.720907980031903
Ag 11.873779114018097 7.728067385666909 12.827581903055059
Ag 8.13873575718974 9.223659650813246 11.272056317335025
Ag 9.222659947813009 8.370868199238743 13.634383683197212
Ag 8.450681582132555 12.38556311922529 8.25921194547984
Ag 10.754650509912508 10.17696101047701 12.198373081547913
Ag 11.402696839071158 12.892908874903899 12.174987935285083
Ag 8.849240672874272 12.018306892020384 11.20316852187016
