12
Energy = -41.7791371 eV
Bi 14.073791695539674 10.800714910160991 10.373253991012072
Bi 12.539531276357627 13.33644212312146 13.118347515889745
Bi 11.526469879711156 14.85524439620294 10.974748538401427
Bi 13.456658165481052 7.925522052412416 10.890963986796416
Bi 13.110370517797207 9.94683692791297 13.148000262249653
Bi 10.227585416466543 11.020345938710182 13.516357952280831
Bi 9.165015716285167 12.761466250319964 11.200626594253022
Bi 10.586135769251616 9.001815309910615 10.276137525184526
Bi 11.325921361909339 11.82110717617301 9.129872267261264
Bi 7.5646372016429435 10.761294121453957 9.27658524200232
Bi 7.9060357546634314 9.304847856522576 11.850548468399868
Bi 9.774970707342831 9.600292636573581 7.445665590311851
