11
Energy = -38.88044885 eV
Bi 12.108955376161356 13.555799512414659 13.30185662639533
Bi 11.856154437822394 12.278344512563088 7.5619079658657
Bi 12.670643883762285 10.596630575046614 13.229081867360861
Bi 11.521598430260479 12.005079441370814 10.696361412650123
Bi 11.29207337685357 7.865812928773165 10.024989156307358
Bi 8.996289341669813 11.626411144530788 7.863871242509397
Bi 10.865382797870444 9.317491172832343 7.355939089264158
Bi 9.975245021002937 11.576505775554022 13.971280679738694
Bi 8.497720622734413 11.504322351527874 11.039692484419964
Bi 8.673610760070916 7.105348623420701 8.756396813822855
Bi 8.698605337462082 8.475680674358314 11.431799163719292
