19
Energy = -47.00108957 eV
Bi 12.20837480658928 16.361370723695 11.106009938073196
Bi 14.022971230356752 11.709315920398437 9.98615676081607
Bi 11.5775127448583 11.236342152243177 16.869902229587638
Bi 9.791069375959495 10.812025746258193 14.372938044976266
Bi 14.083287536589095 13.28361591269292 12.509507658197652
Bi 10.47617751285167 13.300958978822647 15.158805800231267
Bi 13.188360034823887 12.409992772406744 14.804399662114074
Bi 11.630335509061196 9.012516860834463 12.035796722461743
Bi 13.558768564966705 10.713600489706684 12.376713292131354
Bi 14.585811473206942 15.831866185153364 12.277826680402725
Bi 11.840621190946985 14.771047315579024 13.33505576585865
Bi 11.19631437981152 11.277212145161847 10.069767877380388
Bi 9.319925485831655 10.388522746994454 11.77611998922195
Bi 12.362952133179856 12.87291892140498 8.040513054798534
Bi 14.089300269039713 14.35825921133674 9.968473717655202
Bi 11.220790688691075 12.187575467739165 12.699783477713451
Bi 12.304874601774346 9.816307959882524 14.62603933513398
Bi 13.273223102282683 9.11737165195114 9.837906156660734
Bi 11.532080980804864 13.842396683295213 10.660478481425987
