14
Energy = -48.58171801 eV
Bi 13.020928004646482 7.542215479613777 9.695898414793435
Bi 12.242799447952407 10.151050896406879 8.194881644722978
Bi 12.203754545957532 14.264630602445427 11.440119901973192
Bi 13.164478835675734 10.859060767225547 11.2515725833381
Bi 12.67804743200885 8.191775350006608 12.759750348250176
Bi 10.942923335732479 13.242191140101966 8.733949968803202
Bi 14.468429211828386 12.81502683369216 13.512129685226597
Bi 13.436161065243605 10.35303269013675 14.815096731376997
Bi 10.162014917403049 8.623585491662404 9.656126253350797
Bi 11.540906684341397 16.74563746898303 13.208857849220257
Bi 12.403500175712686 14.537549444481575 15.114052525727862
Bi 10.349507300493604 10.452330831481934 12.265352755455618
Bi 9.88913029061472 14.171903544709025 13.355166177798257
Bi 8.726376643899405 12.544138041437394 10.459278887115433
