16
Energy = -39.79201043 eV
Bi 12.874233442072978 8.903258094535255 12.248723185554358
Bi 13.610721132032536 11.168256937192215 13.496416901907335
Bi 10.518215171023591 9.336356177180225 11.033420663729476
Bi 10.841993636990182 10.597338344938578 13.547774438911246
Bi 8.853553812574356 12.553982702529389 14.57143631719814
Bi 13.855020937397127 10.273922717736495 10.001410928368617
Bi 13.872742458257287 12.616318799593879 8.226590245383287
Bi 8.417778339724299 11.02540207358903 12.458363453065044
Bi 11.465984224658504 12.830831098955805 14.910949337690381
Bi 12.00642264583753 11.527981949380306 11.38985644266256
Bi 11.598717265014914 10.96366081107463 8.680102279887954
Bi 12.850205691747227 13.817303728443434 12.811088326466766
Bi 10.274514038979 13.454152048923355 12.14623691656865
Bi 14.508951989071278 12.705888811817696 10.995916597043953
Bi 9.497247138056029 11.839707209034948 10.133794967714051
Bi 11.873402237341654 13.741757696977864 9.889054724627183
