16
Energy = -58.1553874 eV
Bi 14.563441651373987 11.355332312060368 9.637654247451565
Bi 14.629693815082364 14.238966999116096 8.728663312405649
Bi 13.746654018683643 10.265353477225975 14.26194119421187
Bi 13.997595575503743 12.60650890445376 12.31811878885081
Bi 12.04207774920918 10.416093589677901 8.336109870683226
Bi 12.109469105520471 8.228586043942736 12.762146012911506
Bi 11.862767057795871 15.230205802329337 9.513189124020712
Bi 12.504287941399262 14.624073589934856 6.605041044676942
Bi 10.429723695412381 12.960636045999319 8.078983836996331
Bi 11.83897365317857 12.293378872316252 15.43272010654971
Bi 10.303736100768367 9.181108921622462 10.547288247168362
Bi 9.729002820994634 7.95841524169563 14.628854770799066
Bi 11.114107782097223 13.512113062657855 12.69695683465521
Bi 9.545011165307082 10.496543186278576 16.272161673865043
Bi 9.015109733381967 11.68629425207374 11.531893394879745
Bi 7.775600172415153 10.153641736737773 13.85552957799705
