11
Energy = -38.411557 eV
Bi 11.352081088200961 8.191521125686048 9.291511286392902
Bi 13.794558890925119 9.910906293713484 9.356672406170125
Bi 10.185264337335042 10.251812069609114 7.403229389794049
Bi 12.705261833072967 11.83827242688289 7.257863388271852
Bi 11.94103130019801 9.988835048856902 12.248678462150716
Bi 11.100475882986562 10.718671973411228 15.270851075060685
Bi 11.793768247976198 12.533160690662308 10.274273748520214
Bi 9.404839923713896 10.678803884845486 10.706111291693631
Bi 12.036418124425632 13.125683429371811 13.636706761743458
Bi 8.447452411818903 11.10001898731286 13.962512169117225
Bi 9.312219526354243 13.61479673760165 12.511301965456562
