14
Energy = -50.73142865 eV
Bi 13.525469119932515 11.269446041855824 7.529297062369731
Bi 11.981168438066828 8.858795698788734 8.540916158701448
Bi 14.063364727094513 13.132568094994314 9.858424242463594
Bi 11.774210921090987 13.730662380721856 7.961436812673211
Bi 12.858440819913143 8.977730017281406 11.409270428312725
Bi 9.343338598166588 10.11073287081125 7.894013415457282
Bi 12.850235273494718 11.833373452803968 12.31667599608938
Bi 9.180725517036786 12.784436766330781 9.223559802604994
Bi 7.304315915058729 8.43048016626552 9.358999989201372
Bi 8.310063830091684 6.847795632907376 11.709083495845327
Bi 10.072123905954493 12.932099099979654 12.084784280022598
Bi 10.582066394449328 8.195196185830305 13.238528890726867
Bi 8.834958292328002 10.671662428149641 13.663933647275028
Bi 6.5601326104982425 9.333490305751694 12.129631941327775
