12
Energy = -43.02098826 eV
Bi 13.913582933140114 10.493374663082566 9.08786700172697
Bi 11.926718369444517 11.31680077301588 7.002453987193032
Bi 12.418125382829913 13.072234114747678 9.509307849647824
Bi 12.738572177945898 8.37193564493622 10.861658395485254
Bi 9.851841820737116 8.545221582974941 10.503782406643685
Bi 9.262006700203123 10.356223454163265 8.141004894474285
Bi 9.414758573632387 12.771047880435749 9.991265770854211
Bi 11.961583302856202 10.581676785539798 13.108657525430223
Bi 9.000806938887282 11.05138356462422 12.490973390577757
Bi 12.896913725157876 13.442195532351453 13.739158470952125
Bi 11.932594270066268 11.739119937601867 16.024961683099423
Bi 10.002613682187901 13.395807170973992 14.480739950948228
