18
Energy = -65.77208703 eV
Bi 19.9615696957558 13.178683354525877 13.987694499337223
Bi 19.173330761724042 14.932024479624035 11.611627023238706
Bi 19.311323034162637 16.090637109117242 14.38215143894536
Bi 16.025904038552543 13.305840715115671 16.24580369341083
Bi 16.411646099564877 13.573737727713404 11.537208949811586
Bi 16.443403995677805 16.15629583999711 15.38051719549881
Bi 17.194625346872822 11.841636923641975 13.902295169024134
Bi 14.852887779887569 15.794447353097944 12.829322362796296
Bi 13.382103741221798 11.734879210097661 12.91516677472882
Bi 13.337703496358406 14.014827433425518 14.84900760217894
Bi 11.537241054977468 13.262086933781587 10.963416216934418
Bi 10.217030834089394 10.543523621329983 11.170260467235787
Bi 10.921235311824478 10.228871796384583 14.077795026142821
Bi 10.003907965863496 14.762468108819226 13.064637739886654
Bi 9.613969383197222 12.671373406807712 15.228366172284634
Bi 7.269653913035641 11.25483268674014 11.322669567165605
Bi 7.180854945605154 14.186648293139159 11.982577730593713
Bi 6.785648959578611 12.091225364590573 14.17352272873488
