15
Energy = -52.38424279 eV
Bi 7.010956749407086 8.632260700809786 10.840190618739468
Bi 9.108543154987462 11.732925280498405 7.736054068383989
Bi 10.054139874463791 8.536940747596898 13.723037430550312
Bi 12.52440232694768 12.030224820480186 8.884332396158541
Bi 13.858968599587337 8.939922768543052 8.396088785881796
Bi 9.211601810872573 7.710981311785306 7.462372371179109
Bi 13.29127078702436 7.530477122433939 10.835371989044418
Bi 9.675798896556612 12.466822955099568 12.387338790372365
Bi 11.708285126931864 10.294448827836362 11.470861806096462
Bi 10.081370086539314 7.891727516535909 10.570183195989703
Bi 10.439402565913722 13.959052933549076 9.786099483862087
Bi 6.795351448307051 9.33755966788361 7.631908256837555
Bi 7.631089618784672 11.519664605580195 10.291524438078673
Bi 11.40534458261922 9.788832680791316 6.79489807759742
Bi 7.637552250196663 10.062235371006436 13.62381560165758
