16
Energy = -58.0640445 eV
Bi 15.32278372662947 12.252483342931528 8.86507934994383
Bi 14.720632736828891 10.163051133479296 6.713387526099604
Bi 12.351736385091584 12.973936726159748 8.984784989420975
Bi 11.942688701448095 14.405438428644485 12.516157072760791
Bi 14.83864830642367 10.380645408785778 11.217101789576512
Bi 11.965273293768647 11.406813482450538 6.320199867443469
Bi 14.451883940128585 12.708784406315635 13.136200276447974
Bi 12.26778075928005 8.785917726889021 7.810182427633588
Bi 11.900204827197166 10.324918068521438 10.451253363185378
Bi 12.226705170571346 14.344975412224722 15.561114735487124
Bi 9.677174333551152 12.42921357405858 12.26733063900758
Bi 12.986866577425696 11.422372862243215 15.497858025857555
Bi 10.548701846464335 10.25868477762892 14.174294881525915
Bi 9.41932186755485 14.169114234924212 16.688976735295014
Bi 7.6564677007616 13.493733629828045 14.349968780090194
Bi 8.551031579214424 11.307818537253912 16.274011292563408
