13
Energy = -46.58223653 eV
Bi 10.586115972804492 10.403892844358525 7.196931814917184
Bi 13.272733150366287 9.90869163894669 8.525758588603527
Bi 9.710750950774242 7.830168907362378 10.575702086121623
Bi 8.64371679190237 10.430462540695054 9.496626353961934
Bi 10.75970923505656 13.376412340582947 6.899553193062399
Bi 12.563090016287576 8.572434650022963 11.176842130598862
Bi 11.644370340241759 14.292301697496079 9.555450153745248
Bi 8.527184887770739 8.085173970883675 13.36700961202467
Bi 13.837046215799713 12.440164383595238 10.124248983179918
Bi 12.240639270553377 11.178088663315492 12.70195678517645
Bi 9.760686291942212 12.399922475179848 11.47851553804655
Bi 10.383979306247124 9.868593994062296 14.93471702696915
Bi 7.961520418302889 11.058946984811978 13.727321326923578
