17
Energy = -61.02992499 eV
Bi 16.21444681019954 14.169473766692603 9.20597862048731
Bi 15.534475587696779 12.200518338680038 12.940449182522702
Bi 11.3164880335148 12.53420737845012 12.692572950943775
Bi 10.046550390317018 12.861237608090804 9.496339846323357
Bi 8.167223671253286 9.87056668451358 12.669789795693
Bi 9.523028872926071 11.391709211452326 14.864800513273671
Bi 10.550894519999673 8.664930493897794 11.217079386732568
Bi 14.228251552467329 12.027543966013702 10.14986112126253
Bi 13.481967742336858 13.936789676549767 14.369581514903707
Bi 11.687437381424635 9.340855410313056 15.450299155524919
Bi 13.26661366152013 14.851877942575765 9.746605827446878
Bi 14.109451246777057 16.156057978593864 12.392978692312411
Bi 11.298455637027633 6.948578671252021 13.609762256574534
Bi 13.120654596175973 9.21949410669894 12.748672059163713
Bi 9.26266239941235 14.6255430082065 11.801104910738047
Bi 16.871134620795978 14.845621035097757 12.127351247015856
Bi 7.456648316404638 12.315179633234928 10.946184622658167
