12
Energy = -43.12914254 eV
Bi 6.681308806985144 10.482436393642239 11.491655275977575
Bi 8.288416657581879 8.742027173518375 9.628790901948518
Bi 12.113026933524418 9.45017199543138 7.113364861983714
Bi 9.49026595340998 10.787374079329961 7.758606131414097
Bi 7.72131684639684 8.560919843493902 13.615277938592182
Bi 10.158872222006625 7.844830952967809 11.831202145629348
Bi 13.215593196803527 12.284527115072882 7.29877656681031
Bi 8.55953469015698 11.493645724853955 13.637465920115897
Bi 10.852460302334066 13.118304632527618 9.128708263514765
Bi 11.288791593365813 10.27042932309389 13.212479399086739
Bi 14.071058691957798 10.158324376039449 9.31156590493697
Bi 12.733454145426176 12.06711129083611 11.233410335570477
