16
Energy = -56.28451513 eV
Bi 10.114110500570856 11.928589053964506 9.481093413382697
Bi 7.510613209344734 11.765498588685226 13.472699350733276
Bi 16.255755809979515 12.292240500508617 10.506156504214317
Bi 13.60714244788565 13.798541777547285 16.6049763363746
Bi 10.05483807994665 10.344132700173981 12.099080327510443
Bi 12.43485999485535 9.627168447962747 9.136835168780133
Bi 10.514854365499701 12.626625005230126 14.288094786658371
Bi 7.924752143164145 13.451692596886893 11.227532093438283
Bi 14.977308082189861 14.651184152242797 13.71637493612688
Bi 14.005097652096723 11.732008431008547 12.785259244362488
Bi 12.822595204223946 11.081744268811756 15.59056254341166
Bi 12.79808247089692 8.922806790411888 11.950446917321369
Bi 13.808169377797881 12.37671683674374 8.858521512959175
Bi 14.970337046133933 14.991065276128495 10.613876895575828
Bi 11.874696251641401 13.615105046102892 11.452895652385207
Bi 12.240534998430958 15.53017952865561 14.516398507820726
