18
Energy = -65.64095863 eV
Bi 20.68390098367159 13.667225233636747 12.415621419941825
Bi 18.61254406040812 12.551275586364019 10.437639295431598
Bi 18.670606426951945 15.483587543156151 11.121335860222368
Bi 19.177425462823393 12.484933473455104 14.798399572287344
Bi 17.577869676890344 10.87970642283687 12.791436362418578
Bi 17.353819614571655 14.763554725091732 15.514252792430158
Bi 16.32698585129232 15.988361506782672 12.97013885935135
Bi 14.669550536432961 11.549311695895925 13.463990661651891
Bi 15.167494145082381 12.786350973864174 16.175605320885175
Bi 14.468848240612353 13.969315029946019 11.720998632516558
Bi 13.181539739582997 15.07798233161439 16.16507932291968
Bi 12.156558292287604 15.20227542011586 13.276522146822582
Bi 10.754789326702753 13.283420612111849 16.72108054612046
Bi 10.64482801528523 12.615593783571882 13.7739916697987
Bi 8.869040533304867 15.630538003982423 16.931596119684063
Bi 8.154497885349821 16.612222525839265 14.15589865112872
Bi 7.981150102972869 13.82625591877373 12.97115636404701
Bi 6.443889072194031 14.523427179378036 15.490594368759167
