13
Energy = -46.70331672 eV
Bi 14.562350259928248 11.915580837372593 12.25014802995811
Bi 13.550898420684025 13.213568673197086 9.686411431642096
Bi 15.86848081980614 9.689732001817013 10.627290491914183
Bi 9.596262847784436 13.746200743479646 11.467314467866155
Bi 6.640611093675465 13.42687686789452 14.29793251586899
Bi 14.8561029830315 11.001388933642394 8.044362579252166
Bi 7.039948889447993 12.071244429848532 11.664145966167345
Bi 10.812377020230365 12.09796923187638 9.233840868890434
Bi 13.509871207998247 8.517017323295033 9.13492613526096
Bi 10.625739376146164 12.446136080385905 14.071605981999213
Bi 8.052966251852379 10.793108288735569 14.23755683878814
Bi 11.004778510172793 9.43004115757403 10.585082884688875
Bi 12.351708982247345 10.123232093886552 13.171478470708427
