14
Energy = -50.50661929 eV
Bi 9.004581714956348 13.89239226473157 14.091338710962237
Bi 8.052401344007235 11.110826757738327 13.453483721884101
Bi 10.322287831068769 9.341643732562382 14.352703487912228
Bi 12.482110174848584 11.112837472892306 15.454284971408777
Bi 8.484707236449843 14.554851065454304 11.132590815291909
Bi 12.005649296164936 13.817837687306755 14.11817991143812
Bi 8.053121636834321 11.598091141723923 10.443636925988894
Bi 12.863603586081812 12.495643874971693 11.524409216133645
Bi 10.576704248003491 12.985173735496383 9.612904352944124
Bi 12.80662442591139 9.709316740656515 12.695274523541734
Bi 11.984343666761465 9.05414616120055 9.014414531788564
Bi 12.751392166922843 10.316038103025878 6.377884896782738
Bi 14.6694744353759 10.414151772763775 8.690915461190004
Bi 14.122811236871325 7.794550492010219 7.28619886254887
