11
Energy = -38.25093802 eV
Bi 14.081452693355567 9.495188768883922 11.96198102084244
Bi 10.54782465170725 10.936923196262038 8.525603566728748
Bi 11.322856341510366 8.362411632620852 11.18281400526328
Bi 12.239308075075014 8.248433658122996 14.055449295284554
Bi 10.803730700164351 13.89981492767526 7.919886719746611
Bi 10.614612300888425 10.687111610578837 12.954548249917838
Bi 13.190990274757231 12.399894830402616 9.169168998026604
Bi 7.70588729087895 9.665419309604028 12.116254704582602
Bi 9.484022663362708 12.940885120685287 10.49909136760761
Bi 7.264994356872308 11.035078666026296 9.647677359951818
Bi 13.18136082822627 12.427411599983978 12.167143868753099
