10
Energy = -35.17481029 eV
Bi 7.231364227684647 6.219243604154031 7.266385410588029
Bi 10.26498961490628 6.219204979441904 7.266652517154654
Bi 7.196281744107079 9.492534017113828 7.223398294597213
Bi 10.299753774288588 9.492484364268096 7.222969580345628
Bi 8.748087133186 12.317407196721495 7.328982997008119
Bi 7.231244963801646 6.21911810590094 10.229459487683133
Bi 10.264872293564691 6.219120151081021 10.229729346058683
Bi 7.196488472203452 9.492399511286758 10.273274838790869
Bi 10.29995981582664 9.49240726170792 10.272844741510381
Bi 8.748187727846595 12.3173112734919 10.167533251430934
