12
Energy = -42.13881965 eV
Bi 11.249805408841997 12.817857278914888 12.316847143920423
Bi 8.429941335483397 13.75885222877431 11.523101477460765
Bi 14.376433356596262 10.387823103187914 9.724787625135184
Bi 13.45316503824144 7.839877288384823 11.081945744976794
Bi 11.637018799665457 11.85999696588584 9.456835830991018
Bi 9.346550950853477 11.290454401794163 14.014790100403827
Bi 9.268488597906005 13.929249840478452 8.586339140678525
Bi 13.051329655062464 8.29995226444694 8.106751522239831
Bi 8.880110606031854 8.548203779471828 13.478535473621342
Bi 10.034708946741945 9.392120296422513 8.78546706891431
Bi 7.696242863154151 11.642391260338787 9.46213947470982
Bi 10.408570261044904 7.521057811160274 11.134513796876412
