14
Energy = -48.88840573 eV
Bi 14.47817136191738 12.165021701035746 9.06354640135981
Bi 14.006495907351956 9.715729120282818 11.16964466347167
Bi 12.028898635202369 8.054232122671088 13.01988985632739
Bi 11.232026240060181 10.796640526046442 14.127031284692551
Bi 12.190153434789382 11.975529708689312 7.376030196298599
Bi 13.137476531778843 12.476721307308663 12.063570975075923
Bi 11.721891608682322 9.39379643706032 9.112827159263079
Bi 10.827434428590605 14.027965440353604 13.873152997512262
Bi 9.72087906253289 7.873862032133222 11.187124690650844
Bi 10.58984416501112 12.270102644534052 10.128590353533973
Bi 8.82358660545149 10.705365533792675 12.215118828469135
Bi 8.659262671749975 8.728962489748492 8.204655724673874
Bi 8.640287882531192 13.97384926143506 12.115616603466394
Bi 7.677134761937375 11.209108503402271 9.089152093012896
