17
Energy = -61.26860842 eV
Bi 16.38894424250555 10.699906186869311 11.20132805527219
Bi 14.549961027970932 9.973699868012694 8.930728116778292
Bi 13.837733341666924 12.968909609016539 8.497945001462842
Bi 13.034461523008023 16.215244986721306 10.308956429712257
Bi 12.023478853103125 12.61321933159884 10.959781938988998
Bi 13.668776346195612 15.130122720774917 14.496149066430286
Bi 10.286690685967216 15.705205530011314 11.48092761368646
Bi 11.145027874337051 12.092228035215019 17.221092839848215
Bi 10.85825780619758 14.22407255387241 14.283066712315335
Bi 14.717089819110994 9.03350858179476 13.05930442864666
Bi 14.11740995496798 11.906441410807915 17.628442320183286
Bi 11.72268786150001 11.2295286326282 14.262539823015876
Bi 14.791692095720979 13.72269806823785 11.335269942720794
Bi 14.656669663937588 11.813567613215618 14.529556840744386
Bi 12.431673163332688 9.425901770801506 11.084822435517987
Bi 12.238359289922828 17.489557249726218 12.917699188335662
Bi 12.814710102819776 14.64894468294085 17.449432100886153
