15
Energy = -50.90632834 eV
Bi 15.723375284592965 12.92403375873453 12.71300908978462
Bi 14.215339762853963 10.187054383675838 12.905255687237606
Bi 13.335083126667424 12.516940254771317 10.839719692171869
Bi 14.241774789123577 7.030567068880127 11.886124259457656
Bi 11.543662630017456 14.131610915966753 8.527216631479986
Bi 12.877172564095916 13.071801925106367 13.75880717335448
Bi 13.339911525073553 9.15162815702321 10.01054747407359
Bi 11.22655784532112 7.641351393980366 11.671700467390242
Bi 10.644001630612097 9.88046384992258 13.687920495528635
Bi 9.970643193213988 11.194115829807792 10.923151581911373
Bi 9.490014816665584 13.956264055106379 13.313247760694212
Bi 8.889924098148148 13.937004301790452 9.913529980824917
Bi 10.035534020456769 11.795684051095776 7.707000151821386
Bi 8.1142779876188 9.116960433089561 12.124043636901153
Bi 8.282506599278056 16.220840209286422 12.345042022220056
