13
Energy = -44.33009291 eV
Bi 8.993614 8.993614 8.993614
Bi 11.728917910300472 10.643512424487378 8.993614
Bi 6.258310089699528 10.643512424487378 8.993614
Bi 8.993614 10.427866454495794 11.902578536918922
Bi 8.993614 7.559361545504208 6.084649463081336
Bi 12.146470595448866 8.993614 6.415331698475802
Bi 11.728917910300472 7.343715575512623 8.993614
Bi 6.258310089699528 7.343715575512623 8.993614
Bi 5.840757404551135 8.993614 11.571896301524202
Bi 12.146470595448866 8.993614 11.571896301524202
Bi 8.993614 7.559361545504208 11.902578536918922
Bi 8.993614 10.427866454495794 6.084649463081336
Bi 5.840757404551135 8.993614 6.415331698475802
