15
Energy = -52.44726745 eV
Bi 14.77921733868892 12.560846498808717 9.815836808755192
Bi 14.057872208324188 13.18881270998632 12.670768478181325
Bi 11.866513316218972 13.094004033235622 8.426917082395622
Bi 13.40918663989579 10.529762702175805 7.970147792728117
Bi 8.75822215247309 12.45906281630371 8.114122779755728
Bi 13.273651421229944 10.853522789276779 14.442155462805879
Bi 11.105131527672194 12.744004486362535 11.579499730589372
Bi 11.450279701763561 8.29443720029693 8.784788931804798
Bi 13.588619956437912 9.49475584734494 11.817045316916202
Bi 10.066134036962994 11.339672461574468 14.395995756609652
Bi 9.696619086162862 10.400225446528763 10.105421039859849
Bi 8.24351710261489 13.815367045222294 10.80112193169658
Bi 11.449464518728263 7.505470500081239 11.746071616352179
Bi 7.309350776793074 11.889766657198088 12.910484605643525
Bi 8.764521064596916 9.107039073463252 12.917380539727928
