17
Energy = -60.18936452 eV
Bi 7.698733343239302 14.204470865136697 12.722577055600503
Bi 13.749310833670151 14.221804854721293 9.867297380652936
Bi 12.257975278910646 8.601553360096867 12.366196516209126
Bi 14.449285607050275 13.76042939453638 13.491018221846925
Bi 15.178308445792712 10.716770997847103 14.179435621974944
Bi 11.52470894504357 13.796620969908881 8.043259669461532
Bi 14.517290725637162 12.677028428846379 16.361859360429005
Bi 12.257139943672922 15.920562635615969 12.336611897769894
Bi 13.7209522719538 8.310696319595312 9.737841988630718
Bi 12.592144395064686 10.416124789280866 15.679074932890067
Bi 10.169226365589997 14.380118803958666 10.809019061413755
Bi 11.506100544228701 12.424565957654819 13.56715928414115
Bi 12.818133479452447 11.153032927801002 10.555666976185874
Bi 10.071229727316874 11.0736806446658 9.183123535575145
Bi 8.868116015100806 11.43119395188925 12.086502697429275
Bi 10.758116233493922 8.004187610588588 9.826243546694833
Bi 10.029567941644403 14.996948584523729 14.457378269640687
