12
Energy = -42.10554438 eV
Bi 9.194927045432268 12.33393998569 12.285851164627536
Bi 10.20241635914409 7.695343952573482 12.986241796772143
Bi 8.329984647125414 13.16020367555303 8.290209906737337
Bi 10.702608238973124 13.884128158859998 10.1373768498086
Bi 11.430429593905712 10.505370599807177 13.17088402594972
Bi 7.2063271683125905 11.127267282038916 10.327132232293671
Bi 12.386671694383688 11.90942952464507 8.585991760483822
Bi 12.786356061531967 9.527528177208556 10.634062042420323
Bi 12.948639758330511 6.694602268840784 12.344449218130189
Bi 8.415988802605117 9.006209213457058 8.559231374965975
Bi 10.032613107134646 10.98541205727325 6.905138053234847
Bi 10.704140500557859 7.4212690660029335 9.97610750122645
