11
Energy = -38.30613283 eV
Bi 6.830235390283588 7.012866601369337 11.23525472153506
Bi 6.74671057889441 11.014814918386904 9.232785821908255
Bi 9.320380298459794 11.671450953366643 7.42443589454256
Bi 8.994064695679047 9.304231381741436 10.559226313861172
Bi 8.196311416282898 8.107546537582124 7.8198047745997865
Bi 11.455857382240836 9.40980999420759 6.966879217380417
Bi 12.880236613175361 10.469883352761988 9.45536978129024
Bi 10.464842385752183 12.124492406389047 10.169648997647428
Bi 8.904561580028867 5.687958298153487 9.546203260328491
Bi 11.642445225731414 7.605007865178774 9.441533934308717
Bi 5.303124433471607 8.330707943027347 8.887626778267876
