14
Energy = -48.11195349 eV
Bi 18.662085063863604 17.10034830398772 17.001561681950346
Bi 15.741345650700824 3.556273462879834 10.308568253809465
Bi 11.667475997745315 17.979664523945303 15.122304835044991
Bi 16.773082654077502 16.717814535497585 19.363803633709857
Bi 14.95564188274503 1.1741817606301213 17.71772382611102
Bi 19.190691037541914 0.18065176587980908 18.082346499434387
Bi 16.951433455821153 18.242561232620247 14.712015671969988
Bi 15.359468665205629 4.0195410054732275 7.72512096010898
Bi 11.02748486172056 16.89215420675506 17.871725904231255
Bi 16.727810398113487 19.713367280305192 0.1602017992184687
Bi 12.073951268266937 15.072967010177011 15.79060292515507
Bi 17.384715052461544 1.3169073263594213 15.838724292977597
Bi 14.411144675931645 18.19432953276862 16.440603661772673
Bi 13.96153665280735 15.7467274139757 18.338608033797307
