13
Energy = -46.69532638 eV
Bi 13.760507947360454 6.968769079575503 11.992725229568958
Bi 11.846691780656547 8.053375416634463 9.845048319323993
Bi 11.019227077580595 11.72622651101701 8.000468314168677
Bi 13.24563652085635 10.74665651749738 9.84342281501965
Bi 13.764844073509384 9.336160739585148 13.890225218039049
Bi 11.70463211762434 7.186119476211883 14.154100944912669
Bi 11.88258847444573 11.358945532428246 12.481650569788956
Bi 8.599998341568453 10.600870702420261 9.401393976116253
Bi 9.859862770455061 9.181963120605078 11.8579483822572
Bi 11.135965068679669 14.586049922226097 8.967559296400022
Bi 7.599880145937643 12.918860842064696 11.051843689673044
Bi 8.259839237407018 15.398224457071537 9.446050810035748
Bi 10.029832812188094 14.566211575603809 11.78287873683722
