12
Energy = -43.33630871 eV
Bi 12.575135005169859 6.734578056924735 9.96064865356229
Bi 10.597048412453303 6.87729287182471 12.229635151340524
Bi 13.048355871541697 8.465860995244217 12.369243244968127
Bi 11.536275028476611 8.715092105708878 7.856108856653181
Bi 8.995103457521479 9.61408109676504 11.662103732826159
Bi 8.657509914126855 9.082133963303992 8.706909597146376
Bi 9.521942104144287 13.83872124075293 11.854500877156227
Bi 7.0954519972347 12.21897927481419 11.66206842910458
Bi 9.551149621238418 11.736048553946297 7.557891280242222
Bi 11.500708211093421 11.262335151854977 11.800241418724802
Bi 8.014377957438162 13.781837090860272 9.256272816283952
Bi 12.26463426674045 11.474528352031086 8.885309517886535
