11
Energy = -38.25883403 eV
Bi 6.604559631984492 7.607738197603117 8.637529584126007
Bi 8.782603445499728 7.249209964871628 11.786074332824183
Bi 11.856357172329973 7.997447423138402 7.810979461209037
Bi 9.238653950478245 6.258101497446906 9.025957576486968
Bi 13.657112283016437 10.485511463866828 7.233155468789767
Bi 7.283456357802972 10.097837113784973 7.140294409799045
Bi 10.594792370836327 10.451138779617674 6.6385466161370905
Bi 6.674987180996867 11.287899680105221 9.788452622687577
Bi 11.618578803198439 10.496051556808919 9.474448698840728
Bi 8.659498721907946 10.306593323705926 11.904209781102596
Bi 6.05803127151844 8.791102188620009 11.58898244799674
