15
Energy = -53.13677754 eV
Bi 11.58660856046275 9.217124841299656 14.444691360024882
Bi 8.53410151510326 8.969469662382435 14.722154928381407
Bi 11.304596264723536 7.301163432546852 12.182664504122682
Bi 8.465185210134297 8.361131503028808 11.746242679112424
Bi 15.079411312776719 9.915146260100785 12.180996732258022
Bi 13.412513778150467 8.576040404475194 10.0818271718556
Bi 8.850528142636621 11.242747130240001 12.722141866191016
Bi 12.167741535093935 10.92602470632187 11.706604689779907
Bi 9.254012535864295 11.567032643408286 9.04540282521368
Bi 15.074513699197015 11.26545631276782 9.43745730764669
Bi 6.857920864683577 12.567750500386534 10.747775423530484
Bi 12.164307238456109 13.033913355666257 7.589035408476565
Bi 9.514511690923966 14.097570811740976 10.652846423956921
Bi 13.350956737209396 13.560772480196206 10.283799106501384
Bi 9.3755799097976 14.265727145393779 7.631961108508381
