15
Energy = -54.26617779 eV
Bi 12.33344129355898 12.917622784674627 8.977810528710625
Bi 12.039785849642602 9.995791233530475 9.821326390791313
Bi 9.454959018462395 16.432544342579707 9.793709636889083
Bi 9.385004054861172 13.490302153073959 9.056381880564402
Bi 12.371181359924085 16.93622312324986 10.332916841169611
Bi 13.397906647643303 14.3418748094269 11.40441831750281
Bi 14.600381628356185 9.803010912272752 11.345309584957793
Bi 13.86793804718916 6.948202433972024 12.126734861148329
Bi 8.703424911897564 14.34404600673486 11.864552592581964
Bi 11.235629121607749 14.348462082700937 13.48837578327073
Bi 9.994522076155395 9.938133716615102 12.016526928317429
Bi 13.304245333314018 7.896781670030142 14.979917462627625
Bi 14.028247456117892 10.752323895821329 14.18407983513227
Bi 11.009638313544567 7.283006237000395 13.085824425088175
Bi 11.118224641712274 11.416204352304915 14.366644685235663
