17
Energy = -61.70248842 eV
Bi 16.302465743467376 16.572822248584103 13.915962005403042
Bi 17.503483200312342 14.037580485899662 15.106919041779372
Bi 18.044843004314053 14.7571036265229 12.228541658473638
Bi 14.750092676752597 12.674887418217319 14.94908654448546
Bi 13.893758749609871 15.04360979568412 10.799013076740804
Bi 16.14376768407393 13.073123466146559 10.55269617700254
Bi 13.540688524884885 15.193911997978828 13.768139389189347
Bi 15.514687889617203 11.00585390543566 12.613241770257881
Bi 11.8542294380898 13.04402641446054 9.731192597340229
Bi 11.124665217785907 12.387520441440154 13.719269765000893
Bi 9.548790235398192 13.84185632718057 11.572732833919014
Bi 12.391798985454798 10.64780411605276 11.585023991763759
Bi 9.007028145726322 10.576943192431496 14.968135122936488
Bi 7.863173028265292 11.59059854066377 10.470442867942396
Bi 9.807720652369406 9.269460372546767 10.440414913330729
Bi 6.647200478377564 10.595369755869058 13.092548585735997
Bi 8.6364889156672 8.262410465052476 13.061522228865654
