14
Energy = -50.47597413 eV
Bi 13.295920244662138 8.935708134579349 9.762412419392014
Bi 14.69940038873761 11.586398466274597 9.981210535886046
Bi 10.744004794933781 9.877069782782593 8.35402360886659
Bi 12.570643148927925 8.101803055448473 12.585930849455123
Bi 15.20405929251831 12.137367095915028 12.896567971444119
Bi 10.335557452298463 12.824717438678892 8.90792141921601
Bi 12.828860645948556 13.475737403936533 11.376583769687082
Bi 8.73735179634753 8.584606888453802 10.167648209558754
Bi 13.250214730817598 10.412701998660737 14.449120126811305
Bi 9.795654364200857 9.261035666058216 12.897495489088694
Bi 7.353639675487433 12.803027277077573 8.178934550000815
Bi 10.901303246206417 12.074129213398855 13.279098530647005
Bi 8.203487292757197 13.243805001041071 11.05796101462436
Bi 6.634387612904358 10.757088845059297 10.285366545917359
