16
Energy = -58.04227665 eV
Bi 14.664548324567297 8.010313216391522 10.401280884607385
Bi 15.466446606663773 10.703131766789406 11.452998912682206
Bi 13.838330874945855 6.662901636433629 12.984277389369648
Bi 13.906919600875 10.905151266197247 14.028997015729331
Bi 11.726633245136648 7.549361197023608 10.954285611510226
Bi 14.016976158051367 13.055611074760444 10.11427500793828
Bi 11.771574945162428 8.80467792368143 13.717346375811989
Bi 13.172009603930732 13.71083030694009 12.995895467279142
Bi 9.016322386219061 11.176586858804358 12.613965726511879
Bi 9.799350540980107 10.27037610557363 9.842396931467816
Bi 11.44183012344516 12.47780582113897 8.646950337650912
Bi 10.145352262492448 13.936305352846787 12.901021965193888
Bi 10.271885347848631 14.863238110262087 10.053158024805757
Bi 7.195117840554841 11.414219444107141 8.643165462945912
Bi 6.407378479762503 12.318033218635271 11.4451496025565
Bi 7.354267409357265 14.336400450408114 9.399779033932086
