12
Energy = -43.50956239 eV
Bi 14.233958079894316 9.85697169330897 7.3842365302620525
Bi 12.08220202160349 8.074731684550308 8.545269159182713
Bi 13.347249921354686 12.320223112036194 8.898105283234093
Bi 12.888696649589699 11.471761665136496 11.75060509673522
Bi 11.330410122549127 10.731507122134566 7.256434055308085
Bi 12.120893736654192 8.570155906579208 11.51357948932827
Bi 10.322920339195152 13.019424874604372 11.40351861570037
Bi 9.127964926866321 8.561811203725162 11.129254043140847
Bi 8.61970069295653 11.181245300539532 9.728575421479148
Bi 8.739449626324282 12.46031219213506 13.92816325460598
Bi 7.97660622489744 9.544321290073675 13.755191324464302
Bi 6.525902765595698 11.588507330773355 12.051108223801178
