13
Energy = -47.03253618 eV
Bi 11.262061533775054 9.84860243315127 7.290593608508918
Bi 13.497859566712068 6.984270684298 9.656441926068428
Bi 11.269088232163824 6.7927750814023256 7.5562179535385505
Bi 13.477705716254931 10.039087227477198 9.383730396025548
Bi 11.422515634614511 13.376974715639028 11.344687130566316
Bi 9.224806291201066 13.224823267603046 9.231062024947727
Bi 12.122376719841819 10.541401734237068 12.007059854016031
Bi 8.694157490272566 10.314037346660413 8.762371037711386
Bi 9.307526223313634 13.690767843678 13.541274719169492
Bi 10.664448746313658 6.414353107293859 10.471385493958081
Bi 9.485572994764023 9.233761284660616 11.44394115775457
Bi 7.098258865475063 13.535645537481505 11.417858359449317
Bi 7.678266811408848 11.19192150631504 13.203998955325424
