10
Energy = -35.54500715 eV
Bi 7.474383645205437 6.472704426777337 7.574284649697633
Bi 10.303330102257817 7.0950821103330775 6.6633525068033475
Bi 6.285303529040597 9.307688673074521 7.709557353600626
Bi 10.866929461132564 9.583988286760945 8.287401520718692
Bi 8.53595903604098 11.151628182342007 6.887326407791893
Bi 8.490831514024702 6.129247041783203 10.418542040528775
Bi 11.339260374069918 6.4238799172575405 9.434495438792576
Bi 6.705271073371211 10.130822864550698 10.585602653668147
Bi 9.571451608578736 8.907519317320496 10.946448446402393
Bi 7.687979176296305 12.617368741212974 9.312918762702258
