14
Energy = -49.16924739 eV
Bi 6.346153495294357 7.87112218230622 5.516296735346169
Bi 6.375606400890282 10.90649642239072 5.484646342735089
Bi 7.405965188002685 7.881523170426629 8.402329706417452
Bi 7.438783910160039 10.943857988338614 8.36930620570813
Bi 8.310164834421736 7.886413731142862 12.348357259367008
Bi 8.3113224091719 10.871885528834179 12.33097124416155
Bi 9.50906982235637 7.839353758353808 6.107143560458864
Bi 9.553605903041644 10.888742101301625 6.0866387428889315
Bi 10.64437569478182 7.888529791092036 9.987801903683888
Bi 10.662441073978732 10.856101330243416 9.98244081078178
Bi 10.9609436735457 7.8912955004099 13.806129272551795
Bi 10.967153685364217 10.890565573022029 13.775972462405504
Bi 12.799136612918614 9.358353651373248 11.693117075755296
Bi 12.049067296072183 9.359549270764592 7.442639182068086
