10
Energy = -22.52313628 eV
Bi 10.41098678776548 8.421372182830458 9.699418009667799
Bi 10.109964165176871 9.133622968111535 12.095239502595426
Bi 11.844903561408305 7.76001166127585 7.361242678777686
Bi 9.95512855835348 9.647801021520214 7.562568667599529
Bi 9.9205417459114 11.536270652973814 12.907198253019871
Bi 7.837377464530115 9.02635361722297 10.755316712175025
Bi 12.459808604498308 10.548927972513722 8.426613323552033
Bi 11.349891482834831 11.275019658637715 10.612156055207105
Bi 7.681323171511095 11.508288902748856 11.663736866499942
Bi 9.08979995658975 11.238242420515183 9.454585067623366
