17
Energy = -60.69373244 eV
Bi 14.653768230078617 9.578229791625722 9.626967729213264
Bi 15.901166060722922 11.603397970949084 11.731126770226135
Bi 12.246134361200529 11.228963577706145 10.576101239571601
Bi 13.674860196831139 8.002738464933918 12.044808963163824
Bi 11.427233268622322 8.92285557265689 8.093477970322821
Bi 14.106766783993395 13.83856027432438 10.750271202029348
Bi 14.2091417786862 15.41429033703374 13.35701228081097
Bi 10.525683871239632 11.80986382790817 8.106557456970531
Bi 14.093847687196133 10.43524755050264 13.917989064806926
Bi 11.316764404484067 15.968240189177545 14.12227325583477
Bi 7.766070452725435 11.383004384675242 9.388314958897197
Bi 10.735039511531424 8.143720066497181 10.944359641387258
Bi 10.691945798490258 13.99852800380049 11.834641364965488
Bi 7.8597801187504395 12.769538907308167 12.101364675863898
Bi 12.900850680269503 13.848649027417823 15.631219099899875
Bi 11.371980549294923 11.82477513940806 13.967881116168751
Bi 8.269874957478617 9.785066160866307 11.888414917553762
