18
Energy = -64.39424177 eV
Bi 13.845745733219031 13.368782760043068 9.58782354738766
Bi 11.005877587602672 14.58094909962903 9.82816827206624
Bi 14.210821228565871 12.861831953233901 12.533271730348813
Bi 10.405210924493861 11.09763338045206 9.812384139024344
Bi 12.316873023213702 14.814259601548553 13.741013964235721
Bi 13.412875153036216 10.479293660160879 8.583462750068124
Bi 9.285811615926885 13.136538524047888 7.783014932695078
Bi 10.594824921504943 8.117659991472612 8.619253731044743
Bi 9.592586688838969 13.638004005019432 12.41218682817471
Bi 11.661440782693019 12.944791844540354 16.03343259643094
Bi 10.39324717410333 7.848531630950919 11.563630296370409
Bi 7.306637223658716 13.641165993273264 10.028701159798382
Bi 12.820299696328023 6.7357161343598095 10.169533105555681
Bi 14.618966584233474 9.113101497239178 10.881036744126149
Bi 12.283007644044359 10.432820192620646 12.558841009005015
Bi 9.836433178188194 10.97260579553672 14.543352760548816
Bi 12.6254666951898 10.112593890272432 15.595846087732438
Bi 7.792461934007698 11.075926072900435 11.49798471673648
