18
Energy = -63.69433986 eV
Bi 17.935075523786583 14.393483765593976 11.96378491643858
Bi 15.375091606176815 15.675333212959295 12.73495515784497
Bi 15.964061011422231 9.88715158338801 15.582552315496683
Bi 9.797011735588615 13.218213167210225 9.544215433480755
Bi 9.815256614409718 16.183066844717718 9.170761978236216
Bi 13.191756669190184 13.828004243876086 15.124696632456837
Bi 11.954128305849114 12.09957128924817 12.878692456883142
Bi 12.611793810193392 7.435737507045441 11.660800898173381
Bi 8.002849236789968 14.990904260671241 11.277504531013204
Bi 10.131011335151474 15.62156851315872 13.397411553335441
Bi 15.359541380106874 12.864018982490668 11.475928442460505
Bi 16.441035026752456 12.865737890402556 14.270981700091514
Bi 13.241451344772889 10.96363313329457 16.110568668878987
Bi 14.088676650737233 9.66287386600135 13.186476188906246
Bi 11.324035640821565 9.834449062822209 10.423394120080966
Bi 12.007364149251169 14.915574431000323 11.003845579122064
Bi 14.171651402627468 9.402722941275455 9.927946212747516
Bi 10.085067255891456 13.061772325532296 15.073382134758097
