11
Energy = -37.99420807 eV
Bi 13.980675969554472 12.99527811968343 10.203633065776163
Bi 13.628051821002812 9.94014722479834 10.277745168524715
Bi 12.564557973897367 11.553227331259807 7.952242193258773
Bi 11.29317050056154 7.021730232442347 10.017297129301843
Bi 9.269653189105776 7.604589065495255 8.183833895166623
Bi 10.97906898862354 13.155641422614696 9.956542727086479
Bi 11.254353288229185 9.393728133853365 12.144729587360887
Bi 8.990551577948327 10.006226548903363 10.156406665059462
Bi 7.601234952408581 12.711556378720203 11.278808622377952
Bi 9.447417496405537 11.849064696728384 13.411181461513337
Bi 7.158183852707347 10.053967185825575 12.631580129518618
