13
Energy = -30.68374556 eV
Bi 12.879011435375748 11.29887822849968 12.010168625469577
Bi 12.159358706566664 13.334282072463564 10.274307997906758
Bi 12.61998853892059 9.673183017492285 9.973634227494731
Bi 14.537994035944305 12.163943626782455 10.065064429711208
Bi 11.15918664661233 9.788586956402595 13.307630240365953
Bi 13.621865314852023 10.947607101047453 7.841479801408785
Bi 10.109969151850477 9.41281488432922 10.669045097748278
Bi 11.02803941335133 11.511336744277358 8.794278260776913
Bi 9.010395500624323 8.242310495784048 12.764470951165563
Bi 9.075032982494596 11.3737025491772 13.879993259658663
Bi 7.840796583977995 10.436031862620936 11.6977899315971
Bi 10.248911587940777 11.984075398446405 11.618033959739416
Bi 8.398264169564358 11.480236968996847 9.292221175505679
