16
Energy = -56.34047322 eV
Bi 15.473028609614435 10.232362872842131 11.414831931042002
Bi 16.197468737657186 12.019456768581001 13.460412321066205
Bi 14.07245410307336 14.147189339605008 12.128426895382125
Bi 13.104102074331589 11.987575329270122 10.029537871048548
Bi 12.16336858166911 11.441308079533401 7.009308697002118
Bi 11.745634765710687 9.332181807110096 11.510395687199388
Bi 12.93619594086967 11.826165890500238 13.664863492516856
Bi 11.088938006835669 14.320940953720461 9.745219976522172
Bi 9.170806433830002 7.483737534919625 12.148804578171555
Bi 11.21505785169056 15.480426343327528 12.469828776980656
Bi 9.524710468347896 11.46528902646159 12.069966347622167
Bi 10.642125971386507 9.352880834094117 8.551568058192387
Bi 9.460049380650819 12.08959816535744 8.142887400371187
Bi 7.021679040236736 9.529408455766195 12.069126098110454
Bi 8.794443275861273 9.513735876135406 14.439547429886327
Bi 10.22796593949043 13.268952194141152 14.356288664637855
