10
Energy = -32.81289077 eV
Bi 9.059422318136441 7.290906875891504 8.784457949775192
Bi 9.270920468169312 10.352408579622995 7.887016541343789
Bi 11.811204543456759 9.10143240511624 8.930612836598298
Bi 9.648825125017177 9.511273659679164 11.02856182583449
Bi 13.76523355661322 11.4894781621286 9.135872288438241
Bi 12.10559791780655 13.659514956693018 10.318359816435157
Bi 10.361458031453553 7.988467475615756 13.71030906941225
Bi 9.373930418210785 13.219087973746097 9.097727439675676
Bi 9.876341531004424 12.59104498830815 12.088248076404039
Bi 10.549746201433317 10.57865645001527 14.634371046752957
