18
Energy = -63.76188753 eV
Bi 13.093205963367904 14.332615256639468 8.487980236054002
Bi 12.458732663117708 15.664512857504702 11.261073434958439
Bi 12.94062204857064 9.527999438235911 12.445896865188029
Bi 14.11029731123893 11.562026792287394 9.304427977967974
Bi 14.939858514742062 12.665200488982949 15.41221445443538
Bi 8.088951587182285 13.558403480370314 10.49864001258101
Bi 9.751485084857702 9.882856763771011 8.749597456067077
Bi 13.745367899978032 9.92688081880701 15.562587896073662
Bi 10.710440714808596 11.20577640249091 13.576996330375906
Bi 12.318867307706933 12.280644468155037 16.8357242922059
Bi 10.385079118335293 7.7631567020434895 12.416048205373627
Bi 11.781742167634036 7.89215271992755 9.764932542138235
Bi 9.593934423379265 15.421622608370757 12.31145915136322
Bi 15.867879398062083 13.939878155029755 9.559975597708888
Bi 11.745544382060238 14.04915544146757 14.278342708761988
Bi 14.147142394337276 13.161226477134516 12.187085551888735
Bi 8.425082161290522 10.182767230216063 11.463026293734755
Bi 10.798729073962942 12.18726545439216 10.446041740567367
