11
Energy = -36.56274343 eV
Bi 6.309091396133174 8.354355536497058 9.901089102884866
Bi 9.638078393222827 11.012203869797696 11.45687539205733
Bi 8.858401819535828 13.614958500106589 10.125692907146892
Bi 12.297749972171637 10.755338744099639 9.640354666004239
Bi 9.114809829903114 9.189166508545682 9.018281980730183
Bi 14.090589332017421 9.281202953592418 11.4002922703581
Bi 13.621910796874674 13.341270431841949 10.235265363074276
Bi 11.328827565566451 15.07801770870728 9.767880308830415
Bi 10.133207209987185 6.618592046513696 10.105084908827134
Bi 12.688577785647752 6.729131808391951 11.440770209415245
Bi 6.532541169761094 10.63954702731654 11.522197619850306
