18
Energy = -65.62469225 eV
Bi 12.719692321467544 7.310159245569102 16.734536353829093
Bi 15.311199624199649 7.662230524181763 15.188106735791893
Bi 14.85604918420597 9.238065904322907 17.7322469492962
Bi 11.420462317835444 9.614579782580828 15.045587650198922
Bi 12.849639791775909 11.382537350268978 17.030101019840238
Bi 13.650873106984164 9.06073958524711 13.082032125353019
Bi 15.269270564117699 11.59650647865727 12.880197484975143
Bi 14.528165485742683 13.228905403954958 15.332059257988126
Bi 10.931643212572132 12.468384506886483 12.571522880705556
Bi 12.104919627394523 14.715729154922975 14.274736097920934
Bi 13.359516418250866 12.727754676188905 10.762890643481338
Bi 13.754770095284929 15.541463145911365 11.848664132170986
Bi 9.2234333619557 14.557056344726048 11.10891169209332
Bi 11.21310647188991 16.789547436078937 10.738808536236508
Bi 9.322802212840557 13.088553468202333 8.4718570569263
Bi 12.056302041779393 13.551310720505361 7.265004345041733
Bi 12.048076622972726 16.515662778734715 7.84684930880592
Bi 9.699478246193129 15.270214200522558 6.4052884368070195
