19
Energy = -67.50873012 eV
Bi 14.605410898355855 13.426257325524796 14.86084387798858
Bi 14.911626579176707 8.415729136356548 11.294716493768531
Bi 15.587808913241728 10.947285420025574 13.1687559227428
Bi 14.011247402247678 11.287843735399765 10.43844872775286
Bi 12.82500560480184 13.586959090610556 12.262656766395596
Bi 12.501005035180167 13.095341896789215 7.944821155366063
Bi 12.630096772334165 7.282859118006258 12.695391269686658
Bi 12.410135970941122 12.161849599834484 16.366851126164093
Bi 12.187508463850676 15.488200642390476 9.68525590061161
Bi 13.489075998310685 9.526187565143816 14.905314635553985
Bi 11.202628429429907 9.37315051668765 10.85623233725096
Bi 9.503122073589923 12.67025911005124 10.841713098539307
Bi 10.451763782968095 13.10780056016973 14.1017733618086
Bi 10.548259841752468 10.073255038020761 13.748395426677071
Bi 9.680360367458643 13.530500827216748 6.846843055263076
Bi 9.16078816452883 15.309865410998126 9.287963755659051
Bi 9.183072246136604 10.869128854244359 8.333563958862976
Bi 6.89166239019966 11.189001553750174 10.327733644414133
Bi 8.197847670341899 8.91119093536845 11.793386398217965
