10
Energy = -35.21571852 eV
Bi 12.71212790753288 13.1561647696115 13.095431969695909
Bi 11.603008512830572 10.307727825922985 13.377676934580196
Bi 11.596655664573566 11.392139008208774 9.790674876051996
Bi 11.425477703197478 7.974502235405868 11.315478488332307
Bi 9.771074987462113 12.753202292387268 13.482184148516943
Bi 11.123316516840465 7.88723222226705 8.271126697796277
Bi 10.754099841326921 14.109153516519143 10.941711051256855
Bi 8.629899479897363 10.98767173008053 9.60292307450446
Bi 8.699200932055975 7.915849935559552 10.081483213890209
Bi 10.339381771361625 10.661791012230067 7.130593883702694
