17
Energy = -60.26262781 eV
Bi 13.813865984452692 9.690513986411739 8.396888988181253
Bi 8.45658988019744 9.312730645357824 12.400357835374082
Bi 12.511437480811782 13.935138415762014 15.790870825238274
Bi 10.520175418555729 11.40163476692684 11.511650039495706
Bi 11.007451036862951 11.452399100464959 15.249870333540578
Bi 8.459639223175836 13.166784499787363 10.086111068578466
Bi 13.138731495882961 9.816835173535333 13.48661181888708
Bi 12.22356054112297 14.754991769465011 11.971206418256822
Bi 10.91501877018015 9.164960354391932 9.266287854134353
Bi 15.773000379700475 12.724688339742144 10.525460186371006
Bi 10.018574319610858 14.021394052117653 13.975768878080636
Bi 14.124214292130256 12.784999160187159 13.228119458329811
Bi 15.228402271651811 9.814555481443442 11.06361917996639
Bi 11.256070403604827 14.120539321563372 9.12232270007137
Bi 13.799958145051123 12.723938980430365 8.154558513525908
Bi 7.842657380597346 10.25198635058799 9.510500388492797
Bi 11.133341170516855 7.869354606598127 11.974212378782983
