14
Energy = -50.59059193 eV
Bi 11.00233333856652 9.365987193168412 12.81644802635672
Bi 11.860984341897252 12.36240603718646 13.565678124088763
Bi 8.389411856364854 7.312142308646901 12.676688679637667
Bi 6.284550614920822 9.026700631164122 13.836925248244235
Bi 14.260978004867368 9.807205475114847 10.119144908466343
Bi 14.517869336646532 12.059360831071421 12.138376047409823
Bi 8.408474076808794 10.993544111284992 12.546859579524911
Bi 6.744975761967709 9.016774039534882 10.864835403826199
Bi 11.284125209452672 9.556168978853327 9.802511130842875
Bi 9.922879019009672 13.733343431799375 11.831921223301524
Bi 14.95690407971488 11.820375668302733 7.92577480715349
Bi 14.74426384957304 14.14267747938003 9.93299814079579
Bi 10.2073628854989 12.324687171414284 9.178311009642623
Bi 12.588785363591922 13.663875297664777 7.895625339261837
