10
Energy = -35.42081507 eV
Bi 12.71140524241548 9.02579163580967 9.356850004930003
Bi 10.314041136773758 8.196814020407386 7.6520627719415435
Bi 11.980465112632594 11.982999629418194 9.04796866870149
Bi 11.581225398705646 7.543260647370668 11.758938278108227
Bi 9.613598294588762 11.157045534588223 7.299086912912021
Bi 9.176025777302675 6.678602863251629 10.03106067096864
Bi 10.064636809672587 13.222209800684693 11.061726181174073
Bi 8.795664570601561 8.418168229151817 12.441138184173454
Bi 7.678235098622091 12.387347790786775 9.293913610279276
Bi 8.014420382315754 11.27672044253069 12.058812004229265
