19
Energy = -67.21216822 eV
Bi 15.001653304353159 13.32942302334034 12.888772700088875
Bi 14.759402707367302 10.213915613829721 11.031316542045655
Bi 10.699079805534803 10.639457326624207 9.854032506991222
Bi 12.270400313432772 10.940471032825357 12.809480698207514
Bi 12.272048299785379 13.012039235827665 15.33945446237056
Bi 9.964072220384665 14.16853889321139 13.874979431700966
Bi 14.94206130398097 12.046443228291503 8.57659475029623
Bi 13.40731433288609 14.655613195482443 8.773220749066688
Bi 12.461911310668581 8.558147710799735 14.586925861801667
Bi 10.691051042192434 8.002556247289093 11.442969318027483
Bi 8.571333169213212 11.466347918855716 14.256796840296035
Bi 14.303141562784704 15.455058832442171 15.01019875369691
Bi 12.280045660486204 14.30144296826465 11.690226071099207
Bi 10.520104045934167 10.099064745504391 16.18735800324341
Bi 13.190374919088471 9.562789658505157 8.452101722740487
Bi 15.49337768429492 15.600698804238277 10.778971964883706
Bi 8.383819328064398 8.719957490496379 9.469840249340818
Bi 8.06685706339147 8.97892468564905 12.506465470743139
Bi 13.367609203463767 17.011163029795316 12.547673124942916
