21
Energy = -76.11227077 eV
Bi 17.663509493106613 13.058099127213227 10.492002144639958
Bi 15.877567330767064 11.964932746759494 8.255710380328793
Bi 15.262501585275103 9.321347128469892 9.534881592186155
Bi 13.368921524042925 13.480234536942506 8.782026095939942
Bi 15.860727267681888 14.354760026637209 12.534685069272307
Bi 16.67390751089326 11.541627283501821 12.929349297774868
Bi 13.17720728292657 8.839358561277187 7.386389693775995
Bi 11.854519576593809 11.565952527853574 7.002128588263644
Bi 13.070382967816263 12.924254711850503 11.951641307026543
Bi 13.92944079243571 10.008866112355332 12.169803368369193
Bi 12.072591626390919 15.627584582909568 15.447366965667799
Bi 10.451047927334539 9.38393183617826 8.580209715103742
Bi 12.99252659117592 12.80246410668869 15.162807965284017
Bi 11.166423279205997 15.09246588193533 18.31830549168918
Bi 10.704717915721154 9.86086287472638 11.53692647830044
Bi 9.167150967122284 15.677513478278257 14.543418864201879
Bi 9.97917650080442 12.68300084764162 11.091202262342518
Bi 8.244589956468365 15.154737499253336 17.4060632812838
Bi 10.427308782301512 11.276005505760244 15.390033946705701
Bi 9.592059431227176 12.524311097122721 18.04206074504445
Bi 8.48772451245029 12.871398956574593 13.74134418455678
