21
Energy = -74.63175233 eV
Bi 11.52155466408631 10.873526834609043 16.846938622915268
Bi 11.544247846173796 13.855957368994584 16.47875188765244
Bi 14.278394719828114 12.06455706026933 16.688203907745407
Bi 12.925788702164558 9.903592367733225 13.60715882232597
Bi 10.60010802032733 15.107160573176483 10.314811134988611
Bi 10.45110128598491 16.57336782121664 13.231498465597122
Bi 9.073412386510444 14.471617235920316 14.831692420209563
Bi 15.405205047873336 9.58317099404277 15.350302064400115
Bi 13.165070385284723 13.316577506303855 13.379751872746
Bi 8.460410100772494 10.899760633740058 10.130648396393077
Bi 13.296250583190314 16.298512080355295 14.30030406180047
Bi 10.34818607435777 12.474881826227032 8.47472565883735
Bi 11.472323848447411 10.529067321668759 10.588553126058658
Bi 17.161472297889766 10.989882120257867 13.283430722031197
Bi 16.6058466488051 14.945963586272159 11.423870843784101
Bi 16.151657392586916 13.743527803111819 14.18567892284237
Bi 14.901689364891917 10.75949395406393 11.202554500875431
Bi 14.370688034664894 16.95734599968684 11.48919819802456
Bi 13.508618041686772 8.072913166673803 11.217266065201972
Bi 13.731835733654105 14.152032081934284 10.365014312835523
Bi 9.741884572333635 12.91346043787024 12.181376784019598
