29
Energy = -103.26942656 eV
Bi 16.790561085932083 19.907883433928586 1.306191196779375
Bi 0.6683754032286934 18.90027711812984 1.24684957101704
Bi 19.699794969363598 20.644421319186563 1.7956870009992112
Bi 3.8574889902560674 0.8142193947700114 20.80924118747742
Bi 16.228092774109257 19.047615106663827 18.502741674336388
Bi 19.310887354937794 2.7740622479523473 20.887578222087726
Bi 0.9859298261854794 16.529843338175713 20.832292094673996
Bi 18.46505049488079 16.16251116553379 17.478559398658227
Bi 3.991156903646075 17.089480816570738 20.737692159396335
Bi 0.9584062998872357 21.424067164616027 21.018773128922824
Bi 14.25012059871522 20.432464744712288 20.402598552815974
Bi 17.882764309075757 17.71157888484705 20.93385966923994
Bi 18.434457899284617 21.323703692704928 20.561980592377555
Bi 21.004836046842577 2.1982245275756553 18.417838909335625
Bi 4.466460852599636 19.478605808386998 18.902447012159485
Bi 0.8346784793772019 17.082623810016106 17.82383803874035
Bi 20.911913760997784 14.374469463266886 17.20237132543329
Bi 19.55584035614168 14.68759954557807 19.909721990700508
Bi 16.836420556638725 13.926733714246122 18.731746529968202
Bi 17.685786307952423 4.386007488394073 18.939517023211838
Bi 14.867441792893779 0.32029113982687335 17.75950439155737
Bi 12.963823291082427 19.784700692767693 16.609060597519104
Bi 13.920117236587895 16.960591232642205 18.04574609383805
Bi 15.476795160368816 15.889194912477985 20.655368104476658
Bi 11.843624674157548 18.819092463707552 19.240915861695424
Bi 3.8432293490924825 16.586244223530045 17.748677963849
Bi 20.141520603491053 4.957145665966831 17.58179598380018
Bi 2.6553577743967507 1.9526359491698153 18.298268414235256
Bi 1.6843316255193543 20.48909267097855 18.194674991928068
