20
Energy = -71.35097062 eV
Bi 8.302743761126976 8.587228011321733 10.018875975592582
Bi 8.032690951645828 12.034736302793569 12.56753708695987
Bi 13.603894023335059 11.050333655064424 16.47442248217067
Bi 11.832325584554683 17.524440115100145 9.614576593798116
Bi 13.092586929466544 15.822973311328724 11.933768886778727
Bi 13.948870699550964 10.942046013728724 9.595854572154837
Bi 8.21659244363779 9.037000019249216 12.946371251848241
Bi 11.097144209854255 10.228515100983595 14.818677429370272
Bi 15.015637155077345 15.89603064699341 14.477086904176256
Bi 15.554362306982588 13.310562239640417 13.10557839786671
Bi 14.677292943148295 13.869933964026309 10.086033848710972
Bi 11.114853001085136 12.190316589695271 12.397901994812432
Bi 14.913707893412917 9.049230178015799 11.728683729261505
Bi 8.790029863260635 11.534136781640242 9.653522456078344
Bi 12.68532993961935 7.957295363318794 13.522087009155006
Bi 11.94445459727954 14.732910802343829 8.557500333069374
Bi 13.062446261474458 13.534966962102374 14.786622476016685
Bi 15.24810631064813 9.17984562708219 14.757881380110007
Bi 10.131146564831772 15.358494524722074 10.825459961908956
Bi 11.248441430724672 9.635510092524026 10.646352916944418
