25
Energy = -89.63393451 eV
Bi 14.52226103420961 13.78554125698568 13.422071655967134
Bi 12.344577254238983 10.882005654220205 16.894445105493446
Bi 9.611875038419468 16.244460373651968 9.668481966381966
Bi 12.275805523763845 17.451451267354944 12.872332931191274
Bi 9.846395146844745 10.634286005801481 13.012634098662462
Bi 17.604552080150384 12.260962159959073 11.760750419626442
Bi 11.413513294045957 9.860211188886002 10.584529459923608
Bi 14.285192467293175 16.494094445063244 14.912753544955317
Bi 11.63589900597256 14.71212277231952 11.380528672682706
Bi 16.837869779934472 9.397684473470656 12.33618660724884
Bi 11.580780589845265 12.460481947078737 9.048199210973555
Bi 9.693967660956053 17.31574851112256 14.36258996113584
Bi 12.611154864166288 15.427786515263785 17.20345400858206
Bi 13.758209357606155 9.01543255193431 14.934755053609365
Bi 14.362789201424286 12.927603632563928 17.830275877785223
Bi 16.637246077446715 9.869381463838085 15.358023366874264
Bi 7.799586315643345 16.77131100381633 12.05950326666558
Bi 13.95536427484036 10.593434152139764 12.295174644621902
Bi 19.12752981386061 11.859184590987093 9.14934551926134
Bi 16.443861758765625 12.907563809035608 15.587544237339012
Bi 20.600863053164222 11.789888531965433 11.537924539819652
Bi 10.004182367671925 14.58131369715821 15.805041307533182
Bi 11.810169933435438 12.52233848134387 14.450196972639104
Bi 8.704206599515782 13.288809276779855 9.368812293408181
Bi 8.944928670813239 13.62344307906472 12.429751795466087
