22
Energy = -54.56830665 eV
Bi 14.70377445074448 14.310272338782912 15.612111146633167
Bi 15.147862106067379 14.625962295436691 18.25298181853053
Bi 14.009539057705375 16.951686994544765 18.51508381446325
Bi 17.23081378677047 14.967352188074438 15.030443248922786
Bi 12.897064040487404 -0.11711516431350628 18.49230261601864
Bi 16.7216591264442 12.300498559281289 14.941076484761052
Bi 15.991223925673049 16.813898461610478 16.54230775350946
Bi 16.5032485098259 16.809272202503976 0.5479696434862656
Bi 15.829406078667745 -0.32417193607559824 -0.9033045001712888
Bi 14.46171561719478 1.9365668326614887 -0.5883110271333273
Bi -0.12526137991312816 13.369335460955394 15.893490827786655
Bi 0.8518527929301342 15.586879542838334 16.719342237316212
Bi 16.95723236468989 12.898892071699967 17.541774647592497
Bi 14.76650191003802 1.6431178541365965 16.18621759900255
Bi -1.5013989336745233 15.364120176444068 17.89529362499846
Bi 1.4199608044235577 18.06121658457082 17.719201075626675
Bi 18.258449285627492 18.05967577954164 18.079038115987256
Bi 14.032775310352996 -0.8341573837894722 15.987883635439966
Bi 2.0764480411503006 17.507868875495785 14.971823468746658
Bi 18.620968622604707 17.093800925161226 15.01169809851956
Bi 16.923959633661816 0.033914784033174585 15.964305660009918
Bi 0.10134620202513983 0.06442700761740683 15.699977608427858
