29
Energy = -104.89413308 eV
Bi 14.86439936761392 16.655353783400525 13.759194597142333
Bi 19.20517763152617 15.228990314395352 12.202256325487523
Bi 16.390432546927197 15.427898016508095 16.016600727541793
Bi 17.02134467399236 13.534616305090992 13.604971626588021
Bi 19.450024751684012 12.746113211854098 10.4677757703596
Bi 17.469465103445863 14.952752906462589 9.75511575666694
Bi 12.152137957141447 15.86276966310903 16.949669181066763
Bi 9.87695519738128 16.289294332953247 13.587616530732074
Bi 14.953536787647622 14.314198745208811 11.439242768116564
Bi 14.425148605218174 14.069453067641291 17.93830446081952
Bi 17.871900243578626 10.772360928552676 12.22503213833492
Bi 11.984034867958945 14.81515650165779 9.165592530276575
Bi 15.598255007302415 11.300903178897883 10.436458702455969
Bi 12.450142985101303 14.772233883581759 14.121108317243557
Bi 9.795581296639364 13.203248387035611 7.72528399679014
Bi 9.521694137426936 16.037164281773595 10.55587039349159
Bi 13.71720141498246 11.172015556850962 17.22766456595753
Bi 9.701432013720188 14.103793061182074 17.604435233151683
Bi 8.055140845698201 14.247511010948873 15.013963051049691
Bi 14.667306719426604 11.095942029971098 14.34219492353811
Bi 11.849105055275123 11.775755665355732 9.483859666693427
Bi 11.140267320109096 12.145069473384819 15.799879189899976
Bi 14.617281785985556 8.07610045762729 13.894311833290955
Bi 13.8300420605459 8.847448585309222 11.070538782767072
Bi 7.935147899049099 13.485011975023014 10.155926280004756
Bi 12.013191333571992 9.638693361211823 13.41053429060743
Bi 8.234774039822232 11.140691355653642 15.17797904668504
Bi 10.119660079993636 12.313842296318985 11.946154347157501
Bi 8.799057044072711 9.685456435877072 12.632303738921227
