20
Energy = -72.06519674 eV
Bi 10.369264279651702 10.692103965854725 16.68126225818746
Bi 12.715973784170513 14.164598450203956 8.188840708181958
Bi 12.946717511473796 15.231089997924267 17.426563637364186
Bi 8.642437788041839 10.101674367705225 14.22481617866323
Bi 12.759881305304058 10.080225634189036 15.018325430584614
Bi 16.35513791900455 11.338911208370888 9.595574986387799
Bi 10.979504163540646 13.684445607339851 15.655848269553617
Bi 13.173331427354906 16.499196002451903 14.667099296378119
Bi 10.837677685040415 8.049215438121886 13.742938450036148
Bi 11.902098398693221 11.279553819253827 7.831177129170719
Bi 13.974799087184712 13.533620565732535 15.105734108786809
Bi 13.622044645231648 9.69567330049771 9.808431441442938
Bi 14.370435433307811 11.77929038816291 11.887030137159991
Bi 10.21289290821499 16.24274515907583 13.989794097117473
Bi 10.291116720840323 14.62658695002071 11.445917976032659
Bi 11.028436231731542 7.979587693887158 10.700452163661723
Bi 14.996671021002356 12.456342601999198 7.244482876047145
Bi 9.749209024904149 10.59330120392815 10.076868098140553
Bi 10.742133354263544 11.78940012957043 12.701220932898961
Bi 13.31870379480492 14.53275232711954 11.115744770305175
