22
Energy = -79.97937018 eV
Bi 14.76098771954467 13.541617631083607 7.293932227419768
Bi 12.585134172178412 11.673986830608152 6.428854145621525
Bi 12.59321245558439 12.715277814225393 9.320464296712153
Bi 15.229330713703392 10.552497879274489 7.3882321481685524
Bi 14.135030658184778 10.24016978119155 10.278707908768103
Bi 16.436380833576266 11.77275703661978 11.584580795565515
Bi 9.149460240615078 14.53435573864799 11.91310129547008
Bi 15.098693802126519 14.428588316269684 12.19891066160738
Bi 8.875812340007212 11.946835551566679 10.324994276467626
Bi 5.973481229910239 11.622184762894515 11.30137849953318
Bi 10.403812797414506 13.666359712204597 14.505567998911307
Bi 16.883248105391022 15.076066513251051 14.551280585559105
Bi 6.262952216444763 14.220371383058753 12.887518220094602
Bi 12.377641873857835 12.013360509751424 12.805471074978842
Bi 16.35462451416223 10.228943084152972 14.159609277764254
Bi 13.790494219526193 15.019880922610415 14.896423550811566
Bi 6.280175706399285 11.550985712982774 14.2854817298746
Bi 10.167278998270504 9.905478569943286 12.105508567068203
Bi 13.414078470315367 10.305369494655402 15.071355536329607
Bi 17.04842059905838 12.461550611783302 16.134562207450834
Bi 14.066871062550454 12.701460345007145 16.854069291364706
Bi 9.211097952772446 10.889742123976683 14.781711076664136
