24
Energy = -87.40886553 eV
Bi 20.438317850401138 10.603444595210316 14.499780770674205
Bi 18.657174965915814 10.771622012419822 12.03735751387686
Bi 17.924044182247847 8.930548756954106 14.342945893555902
Bi 18.991232146362506 13.175554543652545 13.829082822853767
Bi 15.761271872036557 10.366220945351957 15.886621007696561
Bi 16.535268338672868 13.265563922931875 15.558082813827973
Bi 15.954406942400084 13.260827637439563 10.606938368119621
Bi 14.367320021111189 10.353374406081103 13.158188512808856
Bi 14.231128257837693 16.61660528659025 7.636295893734007
Bi 15.742392615008729 16.255949162553573 10.22053396113706
Bi 12.77937027101437 16.916496178596862 10.3029034979326
Bi 12.013888331356773 14.686151370402909 8.408292485889302
Bi 13.302858284176097 12.202266349951001 9.549480627085586
Bi 14.483257622256783 13.383255593478408 13.239449132043761
Bi 11.366526723010782 10.341644595189718 13.687114055812716
Bi 11.20970388986118 11.993970983652131 16.211137716713544
Bi 10.869545297718098 12.35684439845622 11.422256589317122
Bi 12.040702800273307 14.767520228487216 15.385900917402815
Bi 8.239819165044496 12.167833219103457 15.847274768721604
Bi 10.581106471111264 15.05623556349859 12.772010913304495
Bi 7.864921523434855 14.410028636953715 17.88662320887221
Bi 10.080260163372984 16.31733050163721 17.149960111496334
Bi 7.814433175726233 14.15291613414296 13.571295071802886
Bi 7.48304131678291 16.408659527307655 15.593921106845391
