29
Energy = -104.45682824 eV
Bi 16.86207814801043 15.738098275600626 10.771312142885133
Bi 19.130233818753048 13.656682687704183 10.746650370631109
Bi 16.382371851522315 9.739864832195122 17.120282137318974
Bi 17.361932266342 15.112413208987478 13.679399505018477
Bi 14.720898737693908 10.92082548706724 19.279151665528964
Bi 14.201357618849332 18.192615201373336 15.360903706605807
Bi 17.933322183358648 12.123740757176584 13.136562227311591
Bi 15.644546693850543 12.636281909812325 16.979302249881815
Bi 14.453424626515858 15.23565894299904 14.722597909406007
Bi 12.981558212372656 11.045082574222707 16.66777557210268
Bi 14.071954903608008 8.593033069529433 15.104295643174114
Bi 13.507434505543893 17.242146112909573 12.636950631697827
Bi 17.527011683140582 10.91243639240888 10.33356969713543
Bi 14.394508207721902 13.896739333617782 10.98983280083773
Bi 11.77525659956179 13.410567065456297 13.229714247862711
Bi 14.34852709536239 10.818079973950418 13.04136604646803
Bi 9.621598806706055 15.032120828592507 17.413557689891434
Bi 11.209723973483271 17.095945047246115 15.728201348380102
Bi 10.17910247181103 11.671296477007518 15.187919209992911
Bi 8.387208101227303 17.734224174890503 16.86831591388653
Bi 11.462895370023817 9.560027331370277 13.509843094440058
Bi 14.719877850274083 9.30713995566482 10.45610692463386
Bi 10.428793717948002 16.14329835865108 12.846157762676208
Bi 15.039574337454102 11.850320100559502 8.841278915385582
Bi 9.987936232982165 12.12631016157455 11.114444402966429
Bi 8.009576524380032 15.488560215335953 14.949054775623582
Bi 12.585705185489294 15.081597797127012 8.79728665864973
Bi 11.119358360749352 12.456931160221446 8.291028294857515
Bi 9.621068238861561 14.763290564167324 9.512192959037115
