24
Energy = -83.64496851 eV
Bi 19.827590476383353 7.20222411474593 17.90292091340558
Bi 19.95271308098506 3.768847682091133 20.074334046539214
Bi 18.01622895079177 4.516912509389975 18.026874153510704
Bi 18.09779898152036 1.6871453042277955 16.67249850818099
Bi 20.564760842280275 0.7244697996112635 18.140783929301573
Bi 20.6315197887039 1.1188339310460058 15.127981102544558
Bi 19.0122334326396 19.63004587046508 17.80970904792893
Bi 20.56476077812027 16.90092193747611 18.140783929301573
Bi 18.851810956490223 17.05070697421401 21.458765362449945
Bi 20.574002259588397 19.630045872732506 21.045320717343166
Bi 20.96049034679 19.630045865818317 2.4587509610919307
Bi 18.851811020073303 0.5746847631565252 21.458765362449945
Bi 19.97093447340463 6.665620318192887 20.73991182838304
Bi 20.64762914400694 1.3107312154382518 2.119034414824312
Bi 18.25036011433129 21.31808675718339 2.7550502038688163
Bi 18.250360080020755 17.94200497349293 2.7550502038688163
Bi 20.64762906237792 16.314660516318135 2.119034414824312
Bi 19.970934332825454 10.959771414766543 20.73991182838304
Bi 19.827590279251194 10.42316761572425 17.90292091340558
Bi 19.95271295030093 13.856544054100645 20.074334046539214
Bi 18.016228757931597 13.108479220092988 18.026874153510704
Bi 18.0977988510147 15.938246427980232 16.67249850818099
Bi 20.631519723696265 16.506557799123183 15.127981102544558
Bi 20.95168211733284 19.630045863472645 15.597511148479715
