22
Energy = -78.85889098 eV
Bi 9.510297847419452 14.863733203126703 14.23661616413161
Bi 11.168092988997675 14.573105158958002 16.937466149079764
Bi 10.974113477775429 9.126712824912278 12.711961387090183
Bi 11.021305182211497 12.329070134034954 12.857455503327515
Bi 10.118549810070016 11.808669245384925 15.77970846217282
Bi 6.9440648913183445 15.318378998482316 12.487242016295303
Bi 15.72265873917917 13.883733628319732 8.607947199600083
Bi 15.86051311500482 14.442504451244876 17.041106020477628
Bi 15.259891695631907 12.758861630161089 12.888676143842778
Bi 11.410606865082222 8.869413638994388 15.644377312541678
Bi 18.220739558382803 14.57553948696493 15.198417247946912
Bi 9.627866797031954 16.444799146113112 11.564551794005247
Bi 12.990430358469155 12.713891835265482 9.300854453805353
Bi 13.355094922867549 12.15867992044316 15.813003801426907
Bi 17.68424539655875 14.355980003311316 12.157201415264142
Bi 15.484446841765244 11.271817704187987 10.170319480220957
Bi 13.528538321638916 15.089840022346646 15.026903402968475
Bi 15.64555242485403 16.090235377539152 10.749724453351039
Bi 16.883786250725873 11.89491169545858 15.701502622929642
Bi 13.693484336632515 9.582237788520834 13.803475717504133
Bi 8.799353620181657 13.674728188973885 10.840999778673696
Bi 12.933831740883123 14.825801601013074 11.614886733638821
