25
Energy = -89.66347975 eV
Bi 16.544387464891592 10.65758466959339 13.726744891077711
Bi 17.74184213849173 13.988289171824231 8.87871315982486
Bi 14.739453485182324 9.541962208313699 15.940481193017774
Bi 13.422074374048353 12.02171024184541 17.115229370623076
Bi 17.53741832493548 11.068390511412487 9.736715590529874
Bi 15.320938815942666 8.310140446532358 12.189752360769344
Bi 15.449915717921959 14.63857489760344 11.661113919319726
Bi 14.83859782161678 15.69832715754722 8.807898898463465
Bi 12.752633595039608 8.4734970968769 13.909367823541743
Bi 10.668043768069127 10.935989582932832 17.578985196872456
Bi 16.584170016944316 12.053064834798676 7.086727872424997
Bi 13.926687832576288 17.237993648299305 11.265183312274335
Bi 8.666288608283814 14.508659827674254 10.309139320784418
Bi 11.652353742136135 11.135199140236441 12.869403346974634
Bi 14.839954947533652 11.137206156500193 11.232202014205587
Bi 9.43694303775771 10.43625019603433 14.802734256327827
Bi 9.430773270353495 13.739344880788297 17.688931590552595
Bi 13.105772900733083 13.431316848335861 14.422051559539913
Bi 11.570499506258304 15.430481992258994 16.33276183485669
Bi 12.607141533716334 14.574245765450312 10.580377141976895
Bi 10.335156338952876 14.82362416213032 13.59026433332114
Bi 9.771426222566085 11.815277868551751 9.510052117916866
Bi 8.121745128987582 13.217909197539367 14.909674007016271
Bi 7.543451927638108 11.959207166801425 11.51942160859713
Bi 6.986703223740894 12.642417093707797 8.61254966208886
