23
Energy = -55.99145217 eV
Bi 3.5355588873560513 17.930223371628813 -0.3623169873043222
Bi -0.6531061736821282 19.193499643926305 18.094920954016544
Bi 19.171192458658442 -0.4943190109223169 15.443386025977023
Bi 19.146310243322034 19.126468723553682 12.843832964377196
Bi 1.8799093962081297 -0.9279542721142332 -2.2264900041218927
Bi 16.50572932597459 19.126468759730056 12.843832964377196
Bi 16.480847117362714 -0.4943189172010663 15.443386025977023
Bi 17.826019782895706 0.09081576460961632 0.7161301909443881
Bi 14.038741190520616 -0.9279542024179792 -2.2264900041218927
Bi 16.571756757840195 19.19349976540603 18.094920954016544
Bi 12.383091702481808 17.930223479276272 -0.3623169873043222
Bi 16.403224662075075 16.71126649709923 16.30376675117086
Bi 17.826019751909357 16.894766456534082 14.148049682556795
Bi -0.48457415467304393 16.71126642646929 16.30376675117086
Bi 19.066726595134025 16.341621681842952 19.097085041193168
Bi 1.6233338602053888 16.122945149130445 17.738929235433584
Bi 1.7446778034519252 16.05814406091462 0.6039468197506173
Bi 0.7824414038032058 18.522977272119242 0.46914795837495443
Bi 15.136209119300148 18.522977333833804 0.46914795837495443
Bi 14.173972721894565 16.058144166548608 0.6039468197506173
Bi 14.295316663129736 16.12294527979518 17.738929235433584
Bi 16.58531291950586 16.34162179601149 19.097085041193168
Bi 17.826019750364196 17.176180559265138 1.7879673938027183
