20
Energy = -73.16728262 eV
Bi 10.879440261014718 16.92020027936428 18.66691328241767
Bi 11.050550222205846 19.53710038994584 17.07654649465523
Bi 13.60624625025474 16.105178878834955 17.575042537645665
Bi 13.768435315957307 18.692700570973127 15.98626187810367
Bi 9.264308704161763 17.28165583174845 16.133797156345025
Bi 12.401099666597561 14.085821592834936 15.724773091852793
Bi 12.636804934466785 18.07310985296755 13.283445893479696
Bi 14.985631909957924 16.415884374358363 12.335073229509588
Bi 14.884790162639451 13.828454521936521 13.997223149606256
Bi 10.751233583985305 15.830108479009432 13.920372116796276
Bi 14.462575233037484 10.226305862925704 13.372914477572515
Bi 13.312775698605412 14.039140288502534 11.426492008845138
Bi 16.657541422637966 10.58028375891624 11.357342105919187
Bi 15.331288958613397 12.71281801110973 9.57886478884353
Bi 11.988741941012849 10.405454149455949 11.644320034576596
Bi 14.368583792380843 7.131873964285722 13.331084512596089
Bi 11.849396556847548 7.329699495514993 11.620608242075084
Bi 13.109742171330641 10.70401579223263 8.863237327733891
Bi 15.563016939288904 8.965597384739251 9.047931643093952
Bi 14.46890901693844 6.47570926227849 10.398868770267752
