20
Energy = -70.9717832 eV
Bi 9.946336074248247 13.0068498165999 14.4527053721177
Bi 13.235129210815515 15.448514482749886 15.991831746287145
Bi 16.762713214151336 14.74007482386605 17.099680648652363
Bi 8.782735387536407 12.251523145739322 11.73659352290139
Bi 13.219715124304988 12.500622433336934 16.920471188413472
Bi 15.531303022143462 12.052241644843138 11.060635605513967
Bi 15.316736251051921 13.218357850270687 14.87992853080276
Bi 11.558241554678307 10.122183216685217 14.97178906338583
Bi 13.055990166363964 11.031270952678076 9.59871154550355
Bi 14.386961132539106 9.886039371939718 14.144374122528257
Bi 11.636327439584203 16.6934611360479 11.854798266841701
Bi 10.759736708430866 9.98692194764145 11.970156383852308
Bi 14.8448840285079 9.080889032593028 11.198640976327846
Bi 12.340216268907795 12.793604843965317 12.357216251745049
Bi 15.238048082307568 12.651539073195673 8.061779813777571
Bi 10.472700531186362 15.990157559534216 14.600784915139018
Bi 13.689566590339009 15.127403590755835 8.874775343790064
Bi 10.806368127977986 14.251411143249138 10.150921157644573
Bi 14.377824178290338 15.360545680863071 11.810118677434781
Bi 14.511906161708145 14.487971302989067 18.88759862252891
