22
Energy = -79.67567267 eV
Bi 7.046474698754748 13.773314548041906 16.24134867480916
Bi 6.900869595334173 13.107315207062145 13.26373887223492
Bi 8.580402159243892 10.60237676027835 13.279369632348441
Bi 8.817325206422584 11.739854649018142 17.57396615090876
Bi 9.84416816375257 11.355516778148038 10.619162707761166
Bi 10.07924191533211 14.21931560048699 16.250570554492228
Bi 11.439269979001875 8.792500386159528 11.191243456568536
Bi 9.100228963713725 15.165197066518482 13.187302420875582
Bi 13.452897582203343 9.193128305258886 13.43030252718212
Bi 10.74658361015342 11.36566750431311 15.226355436401946
Bi 11.064377029552137 14.09462645315373 11.305984723458876
Bi 14.38705184361546 9.024385894183764 10.535749808934737
Bi 14.152523954801511 12.012740243078435 10.022706765794565
Bi 13.084599056023299 12.262418785044517 12.920486876528106
Bi 15.181191808336235 13.736939135023544 14.583420589186607
Bi 17.066916889166222 12.760947560466464 10.384706377301661
Bi 14.994627348614994 16.23559964615078 12.96221978190145
Bi 16.327026310940244 15.65347181703292 10.288474102690667
Bi 17.504664535156497 12.340142264402955 13.327559796572542
Bi 17.69836581397557 17.14352824510748 14.084077276413996
Bi 19.414558821048352 14.671642227909755 13.728089787248708
Bi 19.0283367800203 16.55023133899713 11.395807735464277
