21
Energy = -74.96878204 eV
Bi 16.41605068528311 9.376014825515403 15.724910618400436
Bi 8.996691602688648 13.316705436745671 9.273693852987778
Bi 10.6827980811862 15.130369361638996 11.4731109061348
Bi 15.252038164203379 16.77414735752553 13.353255552105013
Bi 15.483024754629305 13.007757112201519 17.279068513746775
Bi 13.942750528667906 14.631028538910149 15.201816989464009
Bi 14.06995515064537 8.48290491080165 14.074723789539327
Bi 12.312037135006307 10.787727524695335 10.500582450963561
Bi 13.451122939794976 15.270111295478403 9.3059406253833
Bi 12.29187102638239 17.394137178138696 13.164810720258306
Bi 9.29395158293103 13.00830644656405 13.704731496773151
Bi 12.033741591119226 17.77886365243771 10.226431704031155
Bi 9.332771078783024 11.094037712753773 11.318989866299171
Bi 15.438010538810625 14.460616046467756 11.397820704939438
Bi 12.791507690072173 13.089606408429797 12.419238660591857
Bi 15.795228096158683 10.769242583250598 13.118131353143678
Bi 16.88110043762331 7.944036438961745 13.108254966897805
Bi 11.598632151102258 11.463116120130357 14.840649055195383
Bi 13.444392957571273 15.075594909973805 18.170998478464828
Bi 12.60388125332678 12.215294823679494 17.699463829810398
Bi 11.686284189446114 12.690443774773353 8.214576317287591
