20
Energy = -73.43958474 eV
Bi 16.357568547460197 18.0939172964023 13.980479523704481
Bi 13.941026074017978 16.7704746619354 15.236571759245471
Bi 16.111301041110462 17.635770409740168 10.998745390933518
Bi 17.95825991913658 15.878579512835485 12.6821783628492
Bi 12.264377919585094 16.712716816022816 12.749289501958295
Bi 15.069583373314426 13.992911140624283 15.305842481946092
Bi 12.312108178550256 12.749852986330682 15.521545915230272
Bi 14.08507123117578 15.325274850752088 10.803900367868726
Bi 15.920406159888577 13.58287229219671 12.458684483487916
Bi 10.452281161863372 14.53512818721006 13.832737929256504
Bi 12.809471187112553 11.718686822197782 11.132461844964913
Bi 12.809218474520334 10.32499704800669 13.787549339069642
Bi 10.15425563182768 13.153591385741803 11.166530334707899
Bi 9.925814034899663 9.631539825486398 14.325888548482984
Bi 8.306496462630928 10.97621250839259 12.180511838657567
Bi 11.83067104960325 9.367958383153026 9.40499432587518
Bi 10.087294620218678 6.784690402593958 13.32433333121007
Bi 11.947220621925519 6.733405616615747 10.952940266468286
Bi 8.805226450701248 9.485714093692275 9.61828050653015
Bi 8.89269406335128 6.586051962963604 10.576880150446518
