27
Energy = -98.11803489 eV
Bi 10.91393059845341 16.331753065952103 9.509853080241188
Bi 7.726194436605463 12.167780545901156 9.934769448879472
Bi 13.091598183705281 14.705987537575227 8.253240686218613
Bi 11.119345113586315 10.76251796011275 7.181224685594334
Bi 9.984090296557593 13.883044754198206 11.138432756179702
Bi 13.661533804270752 16.112039319586312 10.822143840587012
Bi 7.672007347598712 14.491183568392904 13.130983540072313
Bi 8.98050459753975 9.532307900709263 8.985445619430898
Bi 12.559867974025765 11.890635993723912 9.654891055247143
Bi 7.376419150909005 11.502266002950334 12.875958784394308
Bi 13.154072674120656 8.453790474116149 7.323250406037868
Bi 14.990843745524089 10.671005533316839 8.247844877603528
Bi 13.066156748364433 13.839292880049193 12.933032095297023
Bi 8.908206096749538 13.510590356067333 15.755001289195013
Bi 10.62167676616155 11.828010440835483 13.918718299436195
Bi 12.333844642162632 7.1655506916988 9.950440076919282
Bi 14.870519740033 7.240657415488075 11.629307905091773
Bi 10.978534910898048 9.528883999671237 11.275275206584828
Bi 16.576650480821833 9.495658483804787 10.5637180676001
Bi 12.850173740939065 16.302838585211795 14.762495504953495
Bi 10.92079228895453 15.427819483027951 16.94227928813597
Bi 15.828264569832264 13.356449445730844 14.253624013203948
Bi 12.348741859016469 10.729777112715023 16.289989124620444
Bi 14.286379775733142 10.105859728708307 12.474108803493088
Bi 14.922495247207047 15.006548819364752 16.643985001564115
Bi 15.235548731935781 10.595096073608191 15.331870027460804
Bi 12.785058553642433 13.227074539361105 17.957107540463166
