28
Energy = -102.20473547 eV
Bi 14.295718343550508 16.05790407150598 12.066373092701182
Bi 11.910487167170388 15.669660549346556 10.166690034655328
Bi 16.236349025527744 12.108464821082283 10.192438907039525
Bi 12.141792638888067 17.006235186580103 14.114684173673707
Bi 14.113445829207416 12.458816986534135 8.009206338746347
Bi 13.808542751240957 12.822460026949534 16.868678524466905
Bi 14.26717317920496 12.963989742635977 12.355739366746612
Bi 9.781651159504829 16.223464036649727 12.291615842890874
Bi 11.746453332937275 12.59961222523368 9.907674807420497
Bi 15.864259290504263 11.912783730816313 14.741472956140825
Bi 15.984729506406799 9.26886101429997 11.30606910731346
Bi 12.024285148162798 14.061753061591139 14.716503509313764
Bi 9.766391667866126 13.633449718321362 7.818886048421911
Bi 13.764596151801143 9.593418678604493 7.061438772811025
Bi 9.526841968456424 13.439973569428515 16.249216524822987
Bi 7.37482001133326 12.318161587151197 9.210117922674305
Bi 14.00669091080923 7.79689604870877 9.516117015776759
Bi 11.380142850535485 10.950906748458882 16.62120851866912
Bi 14.541221880154028 9.255876540109478 14.020739968714947
Bi 8.714201737231916 10.971403195520544 6.831404768911349
Bi 11.776710413812056 10.552470993620277 13.620052286708615
Bi 11.398924013687347 9.152918805588817 10.354271638752403
Bi 8.99556709423368 11.566219996151437 11.733308654726091
Bi 10.79137359541443 8.81426127755041 7.422519299723738
Bi 8.121372330675143 13.864045824886723 13.55809268142706
Bi 10.031659035389538 8.080659215488007 14.27567861333959
Bi 9.404898576704504 7.097976759912041 11.472371783421684
Bi 7.54320760881721 9.070862806500877 12.81093605921677
