26
Energy = -93.05655913 eV
Bi 10.894710054098047 17.580598975857765 11.409621225374213
Bi 12.744800679687902 16.411641927509645 13.60643638942703
Bi 14.548494483618262 15.575837943306329 11.359247873315828
Bi 16.64419469235386 13.80420165939241 12.956550386319009
Bi 12.31217235393547 13.16854576695048 14.293158557071418
Bi 9.19388871947169 12.792854864906431 14.51812212058924
Bi 12.147254457633732 15.711825482063984 9.386570953677829
Bi 10.243928268326664 14.586706088557406 11.51001479607306
Bi 16.33814147482771 16.442229648776806 14.516728642244864
Bi 17.857520950043494 14.778953309765697 16.644059614041876
Bi 14.178958822789038 12.209816104971033 10.303060767642425
Bi 12.104143534262365 12.79362032209217 17.41623591442852
Bi 14.869599893057748 15.059424154107885 16.835480357104345
Bi 9.228655666762641 11.747653265337009 17.509681199471395
Bi 7.995037649860005 13.30894950949127 9.811012454682974
Bi 17.03176595081231 11.045265861644664 10.474361179860873
Bi 16.028280648541855 12.474787855772636 15.635545480168869
Bi 13.556874416112715 9.874250557816515 8.21829952819131
Bi 10.000058419815664 9.891792745220918 15.23401756343226
Bi 12.995685410838886 10.407414704329838 15.804813582120028
Bi 10.7046004860019 12.139809297143563 8.854495135833762
Bi 15.372095176093545 8.515899957057059 10.253514900330282
Bi 14.96366064963425 10.43075041458004 12.660482302907399
Bi 8.037696829537953 11.203227229331217 12.020261907585546
Bi 10.684993645852197 9.089011264068867 8.921473289011534
Bi 11.003780448179894 10.635924872097219 11.527747661243922
