29
Energy = -104.06186185 eV
Bi 8.352705270822941 11.804375537248575 13.509995215316566
Bi 17.68859170459442 9.574152461689762 10.676509522623972
Bi 15.897194714369592 14.682618096815894 7.838226097194141
Bi 11.828865422630773 17.020328556229043 13.99959366399732
Bi 9.475698119312131 12.596011874753593 9.85912071454052
Bi 12.757843022994194 16.929989901257525 17.01559720755021
Bi 15.162579185008312 8.330122727848773 9.871926825213892
Bi 15.180392363995635 10.26042179523951 12.330183339450812
Bi 13.217592154665201 11.056429572771044 15.329793048706573
Bi 12.142480203775223 16.883187674243732 9.966396037993587
Bi 12.296880590559281 13.785931130021012 9.655213869867422
Bi 15.10252836837696 15.76985060313684 15.618123691069233
Bi 8.543000391120684 10.984075820270382 16.46636969118903
Bi 9.541416964383998 14.494241444741226 12.24466794239978
Bi 15.793747396805724 13.310332829778046 10.612223996665776
Bi 13.407337219627872 13.433135842699544 6.8158692883586
Bi 17.0095239350601 11.661626300921125 14.914280822554064
Bi 10.815212921602889 11.011263701316574 12.077251750938828
Bi 12.368837474078708 13.852581765803901 13.372660801577483
Bi 15.026213786415335 11.192473876191565 8.45542824433606
Bi 8.742294249161269 13.635682805642059 17.924647194435867
Bi 15.0549820702035 12.961363288519161 16.856603536695363
Bi 11.29346992416338 10.079673885419048 17.514845325839925
Bi 15.555117541263716 9.050501138161609 15.160054345491575
Bi 17.891974686901396 12.231867590526104 8.695297800265642
Bi 11.540882855775688 14.127375277197663 16.77483119155057
Bi 11.201667416973873 12.518105221432167 19.36314229538008
Bi 14.2091659186461 16.12685647405167 12.345900237780594
Bi 9.832770748318 17.56638942767958 11.666212922623087
