27
Energy = -96.98675158 eV
Bi 20.929182070806394 19.207144091957137 19.934387198157623
Bi 18.41188707203264 19.559559388575895 1.2526016207858357
Bi 19.843806904412997 20.483802575402144 16.040472017265152
Bi 1.6219883751682096 20.187296461213307 0.34931713678737397
Bi 0.33797968015953495 16.8586343700316 18.224416989916325
Bi 20.541598742250322 0.5795150351898496 13.490874743588448
Bi 0.37185354359855316 18.32795578940716 15.530420036455041
Bi 20.148388463590155 17.137322094788036 0.4904242979600515
Bi 21.27827338413314 20.08319903325065 2.718530493922044
Bi 20.09892232978978 19.71581728741856 11.74726671606881
Bi 17.591602108605308 21.323549693928047 12.965740847358258
Bi 1.3740968433871847 17.703927602941093 2.0435102371230545
Bi 19.166382027144365 18.101804628811415 14.209233014611563
Bi 15.626306941903774 2.3470075555153116 13.792734525715787
Bi 13.823010763946115 21.52107961532534 13.425323286989729
Bi 19.101029774402196 15.956974559293037 19.16966479559762
Bi 15.515938908554736 1.0538949647790603 11.105680605640435
Bi 15.625321861623226 19.721688072182612 15.258458818990766
Bi 17.675394551893625 18.515097718116394 18.18569288634747
Bi 17.117953209172953 18.282367386571632 3.7629751639159137
Bi 16.326945495494375 15.560701218794016 2.6780706650534936
Bi 17.230315135708658 16.076512509489287 16.354247427190714
Bi 14.927491808300184 16.937610810692753 14.344475993150452
Bi 14.421560049723709 17.85454749538894 2.433676839494842
Bi 16.357136468210307 17.28608212063764 0.11052792781249296
Bi 15.142706389391444 16.778939515822184 18.515688284013198
Bi 13.242114306960168 18.172608565121614 16.483272469365442
