23
Energy = -83.31238591 eV
Bi 17.246636415124332 14.001371015089193 11.409360631026063
Bi 16.82433137258129 11.177286058980838 10.34829845474494
Bi 16.47826554573784 13.770116736335344 14.395301229345412
Bi 14.894257786114801 15.16597469255657 9.806896736543928
Bi 15.029888136966843 12.538900064623615 8.199518302624925
Bi 14.285160237300907 15.811890466187203 14.043644211053934
Bi 15.065857406568297 11.121907772974886 14.788571813713675
Bi 14.229739317152687 10.797129550053738 11.86035572026634
Bi 13.017164039929597 14.051752839297087 11.937758336108272
Bi 13.480496119731319 7.847847063439326 11.440443694500997
Bi 11.7930077575285 14.874653665253836 15.530251687488782
Bi 12.153449532517406 8.807564495656045 8.828179806669153
Bi 12.240711500822544 11.844778245638487 15.729011756989586
Bi 12.251906666341268 11.811074571638779 9.23588416008681
Bi 10.802943021782998 11.331398259347091 13.07396788182299
Bi 10.851516663530735 8.277845568346322 12.965027651191972
Bi 10.671707235202389 15.834235701359976 12.825890241928034
Bi 9.459266324628867 8.777209960049772 10.302591692172049
Bi 8.299846712775848 10.888649136247532 14.696383199576024
Bi 8.378111528374266 11.651642794164985 10.061904467734518
Bi 8.345884701044637 14.396492865176132 11.515741415250618
Bi 6.711038099301456 13.309464044020155 13.803450871665857
Bi 6.461841477269637 10.694637912233231 12.234803528417986
