23
Energy = -82.58537958 eV
Bi 19.150438932704287 17.16765693551836 19.50050379731988
Bi 1.0716999550401187 14.890247289744162 18.276976125841173
Bi 0.43574913825174694 13.535876248788416 1.1619416496861141
Bi 17.311601531430767 14.876918159326447 0.5832709338701235
Bi 19.357487072922027 14.098721046200351 13.967512704395682
Bi 14.661592175972817 15.696966966080657 18.810154114916283
Bi 0.25232080279447944 16.28351773234138 2.52417850486097
Bi 16.962006324486268 16.364602807680072 3.200568789762253
Bi 18.39958528934191 13.70315682383551 16.808431379303165
Bi 16.650604062321086 13.729162411100162 12.641947554699856
Bi 16.874022673144186 16.342704518440375 16.807408305334608
Bi 17.947148030724904 16.441709168827607 12.557811407574944
Bi 15.03754312706601 17.821236475805364 1.1836201480270347
Bi 15.383338223126444 16.072542856143798 14.169292402152207
Bi 17.66686796057957 0.3603478360867193 12.816585942644576
Bi 14.774617850060439 0.037411891249002786 13.694041415189826
Bi 16.421004804164344 0.03371360424151889 16.865827669816618
Bi 16.712151271371084 0.3667984332393367 0.11759993960349602
Bi 15.48173961402458 0.9062040311473388 10.822001065274437
Bi 14.52850053963673 3.038944777447352 14.459198264046968
Bi 14.272511134760785 1.4860279972930133 18.439657753781866
Bi 16.712746500351216 3.234070898046532 12.330303754273771
Bi 16.341193084120597 3.083668669296645 16.92266654261159
