26
Energy = -94.33205085 eV
Bi 6.2135047629236855 12.14303761326377 15.082203802948571
Bi 8.845156538570233 11.220063135517895 16.395519427581604
Bi 9.526779602168697 14.073443821617875 15.554203506356624
Bi 12.981584238147969 7.282067672604834 13.872640556388962
Bi 8.739191703555063 9.235973453575118 14.107962535092025
Bi 14.54215292756428 13.609511395816261 14.484263059578936
Bi 14.711188315442634 9.109793488257182 15.573446815234034
Bi 7.7741715691728395 13.981232445144895 13.101730353861106
Bi 7.130717268226684 11.10363783966943 12.375852189190429
Bi 12.771499256300345 11.447218729891949 15.244643150395419
Bi 11.433517544051456 9.746374749601815 12.758906049526656
Bi 12.171460359346277 15.501653183848877 14.76602346730893
Bi 15.747521150761184 8.10965915640956 12.90391034789507
Bi 10.503054773937523 8.323077124101998 10.070149194268302
Bi 14.786317542329677 13.65617759416047 11.179515067007491
Bi 14.243961531079947 9.82956045573556 10.910626919623937
Bi 10.819153447751775 15.576595625149126 12.062483943044494
Bi 11.851607428474232 12.901925989913403 11.111520419367098
Bi 12.368540103967899 17.617422204317975 10.380258917270618
Bi 14.956387776833308 16.290974146807876 9.641402398164146
Bi 15.856594627898344 11.607358579654727 9.095469576822808
Bi 13.272181348655641 7.434821897459609 9.261540844854327
Bi 11.738592148772813 9.2740271893904 7.440823582670848
Bi 11.311727121725665 13.455838941984377 8.204400328392893
Bi 12.632548825636874 16.157395785728973 7.740535549400812
Bi 13.54051171808379 11.735716200624129 7.1163075999681675
