29
Energy = -103.45739059 eV
Bi 16.578757916456457 13.961094618258038 8.73710970110269
Bi 12.266267273213181 16.28501799386822 18.543882530979076
Bi 15.533234488885615 9.17592186748346 13.447334236765002
Bi 14.078249478408457 15.418334361495699 12.919941806362269
Bi 15.1971010098771 10.949562814534277 15.869957804438505
Bi 10.406760496499283 9.130195372616122 14.708852957448814
Bi 9.457607523405942 13.72025595661945 14.069770050348168
Bi 19.10152017803586 12.523819961586183 9.39992713233809
Bi 9.915955887546524 14.85888731751461 11.155992958592334
Bi 12.527899569521981 8.852479099766775 12.667605299752887
Bi 12.284138882757663 13.347889154197347 19.233956073148825
Bi 18.875244309451098 14.8470111776242 12.961866759455072
Bi 12.727811896823411 17.592024186024872 11.13572727266807
Bi 9.501551610586972 11.13867480677492 12.27998069157431
Bi 9.42712606805556 15.9412163112088 17.382430722084585
Bi 16.678635148239554 16.07999561527847 11.382888268971621
Bi 17.11000678598751 10.990098807878805 7.78748975652601
Bi 16.02172422436957 11.545653156546651 10.65368797607132
Bi 13.631347856229487 14.256945369809376 16.63074015767084
Bi 10.098682505237349 17.723757987206092 12.456331343634085
Bi 9.4896150446676 12.951131759415546 18.031446780003343
Bi 11.261517685064641 16.06590910165487 14.925304370902769
Bi 11.369307188410767 11.894794861615985 15.806078052993964
Bi 8.694280527377469 12.499981565240486 9.527345952112233
Bi 13.76602014928363 11.72167770951214 13.177897050902768
Bi 11.454283033237973 11.480461519912975 10.013813248601133
Bi 18.439590134272713 11.763192352302353 12.53656486782518
Bi 16.442240038835095 13.3779997394644 14.317635629771294
Bi 12.873855892959423 14.464444897794015 10.287704124948338
