27
Energy = -98.48385921 eV
Bi 13.164495390668677 6.205822742785239 13.320472399757495
Bi 13.903499346999938 6.527736040599703 10.38555985669901
Bi 16.042528866240076 9.488758093405073 12.79582707781071
Bi 14.822674890410223 9.403698909830247 10.005150255351895
Bi 13.763658988991722 8.855455314443802 14.688889709941988
Bi 11.006586329916336 6.625795923356534 11.267066083843027
Bi 17.43792420950672 14.098026737495866 11.847021606841125
Bi 17.422499664069207 14.065486663375482 14.872680345925687
Bi 11.976149755217492 10.163477780570647 9.20937933069241
Bi 10.249050028168854 9.668623018691557 11.65110341566616
Bi 15.370265226085655 12.422648311937342 13.30083093229112
Bi 7.9014931768747925 11.731520391154147 10.850427112786292
Bi 15.318649529496419 16.030836081383846 10.821882682118
Bi 12.85098482111249 14.241400554407035 11.272832932072317
Bi 9.012476670906462 13.629084634695527 8.742278700944691
Bi 12.062434600256399 11.182121680416865 13.62512029801819
Bi 12.03351371516608 13.144232032869837 8.549031094154747
Bi 15.254838773324474 16.02161767113313 15.73492795400704
Bi 9.540631554927977 13.499474672034811 12.671011209875108
Bi 14.970140104515114 17.788569357218147 13.276670786976151
Bi 8.61823524996861 15.773412035364677 10.894793243303946
Bi 11.46007208306005 16.919666367632182 10.884907830815648
Bi 12.716233183411461 14.658908405671797 14.651475279652066
Bi 10.29977668879535 11.123133073649786 16.159238697593622
Bi 11.963757058543735 17.53508341599832 13.841785426619337
Bi 8.301265149917553 13.326668718477178 15.474247032370595
Bi 10.806939137935784 13.991248742744233 17.015971627297148
