25
Energy = -89.91869468 eV
Bi 17.590228553035 18.2618797646151 14.84847037336461
Bi 7.9895559723564835 9.557710884571469 10.934872604432497
Bi 13.957236421394288 9.777649393562683 13.744644742356435
Bi 9.582462748735242 11.781805732226077 14.115837658130317
Bi 17.235059351672884 10.49164526404761 11.792120098162755
Bi 11.879980666446025 10.779143017022072 11.575830220149854
Bi 12.517357433458368 14.08821417783772 12.57764451170653
Bi 14.939430365341094 8.617569273605705 11.036058185241643
Bi 9.668737926314854 11.384075465421931 17.126626343382235
Bi 12.057717816095492 12.741786182668731 15.799285783329148
Bi 11.791387051399926 15.721270253394621 15.04261303534688
Bi 13.327016598779805 15.59477617256784 9.99555634117431
Bi 10.571096177039875 8.023609607475592 10.850001859585692
Bi 8.823983804436311 7.901607841325115 13.299320822279356
Bi 9.317757269195443 12.426808744184992 10.227781992300642
Bi 13.85609572885498 10.915445815304839 9.268773292932787
Bi 15.810220974287024 12.889187202691271 10.514531115592705
Bi 15.845037385254471 16.774294421944738 12.884656189505174
Bi 11.668476794543215 13.574223960374576 8.388545371882538
Bi 14.723905633546218 17.124555049756808 15.658692773685068
Bi 10.9155249700511 9.288520820067502 15.215483747920773
Bi 17.08937779181713 15.303079045660692 15.206515431019628
Bi 15.53639279630082 12.41370767569468 13.513303146904699
Bi 10.349654707600097 16.057375880966646 9.565808200881117
Bi 9.535645692220678 14.728716896683792 12.250505621935577
