23
Energy = -82.23966125 eV
Bi 10.197639193694675 12.499625735519778 7.847401571779529
Bi 14.106896487130037 14.252456409766637 8.603776385291823
Bi 9.69330747749102 15.827843937891277 9.655897435036989
Bi 7.959517522533886 13.34511423124979 9.824931143972849
Bi 11.664643490288427 13.561442204896672 10.23876090888256
Bi 13.715409129211606 15.108882640857834 13.319007123046953
Bi 8.760763111954583 16.267575860270984 12.56415254456409
Bi 11.768572296341157 9.906276830161163 7.695512395311837
Bi 14.52122378421648 11.269814401600799 7.936982198777427
Bi 10.600930911010884 7.108838827977519 12.621151710377955
Bi 15.651526236657984 13.935104541570087 11.228502074675589
Bi 13.902858834709773 9.598927452154454 17.017803052198996
Bi 9.606777193951917 9.88064751280164 11.941103507423087
Bi 12.129059374819091 8.928732497732945 10.647361161878631
Bi 15.898066455833455 10.979907129481973 15.187104128123227
Bi 10.790268731911052 14.718664837349008 14.169293862892324
Bi 14.487190618253683 13.605972816563646 15.877514080126812
Bi 15.962118285434947 10.978235018144257 10.642951764223081
Bi 8.41598356291811 13.220508287754345 12.881411575503602
Bi 11.90804119475195 11.364267999784657 13.559913228564161
Bi 11.999093167395465 11.958693696582095 16.685370001924525
Bi 14.416309414695162 9.593537990783537 12.911751985955686
Bi 11.507225986207287 8.791581006904584 15.161148209493604
