29
Energy = -105.47422532 eV
Bi 15.665612977952176 10.36066679438427 9.15315982979263
Bi 15.939809600074984 9.426306873860508 12.04520441461615
Bi 14.585120527199086 13.210193419512223 8.937156242382187
Bi 13.076405975004178 8.77238224658357 8.849323364374772
Bi 14.440411291572758 7.004162704423191 10.930692883042342
Bi 17.139943801716733 14.44447464166559 10.040379567864603
Bi 15.193015184597938 16.72777665059831 10.787684503111814
Bi 13.522316870089362 11.005948756821132 12.984051470379676
Bi 11.53895828709594 10.608122957898125 10.707309551835717
Bi 13.330598371322296 14.366623995669583 11.515940945679379
Bi 12.15317116579017 6.6059432023793425 12.95568210929701
Bi 16.683647954651473 13.628257634568476 12.980685412334333
Bi 10.828851164355916 15.407250787167294 10.019957122633736
Bi 17.266947768660355 16.57925131304745 13.0895268065278
Bi 13.255272891232265 17.531874253631603 13.722076793961982
Bi 9.13975642410799 16.94199640261731 12.030633869131085
Bi 12.965638283035645 8.721579409366056 14.918601366535285
Bi 10.043966056486552 8.069478459998178 11.406045995844675
Bi 14.285499071622842 18.883688834823932 16.270044776287218
Bi 13.936796914214588 14.780974482963256 14.928358314665708
Bi 17.058877647899042 17.696382632689602 15.960805166563762
Bi 10.391882660062263 17.23484114285269 14.780425675326017
Bi 10.458880620745584 12.61336476349318 13.564871382127867
Bi 8.612774651990925 14.013864321347434 11.572207680084563
Bi 14.940372924436621 16.18653805908259 17.48994144285511
Bi 10.983517401673351 14.490804226372633 15.903160840077703
Bi 10.189422561916746 8.795036780751781 16.164026313853253
Bi 8.27543773083572 8.330624473426367 13.870439258800813
Bi 8.418783264489234 11.076613628132705 15.172217930610197
