20
Energy = -73.02356825 eV
Bi 13.202822845647074 16.42731889924069 17.376733310476762
Bi 12.936154242238846 13.402847360489272 17.25231059600855
Bi 10.44671095044192 15.102688438187199 17.171984374371323
Bi 13.083890007938555 17.180027713620333 14.42440830145599
Bi 15.075034797250709 15.0343601269021 13.772452481613659
Bi 13.502428400469888 12.563899076786868 14.374339733349833
Bi 10.320845062407578 15.905892019233292 14.22950010791965
Bi 10.816187383033824 13.136013514560615 13.117608146587497
Bi 14.490400614057604 15.068526238101812 10.804269228588486
Bi 11.44112339193199 14.812919612348267 10.662140585607816
Bi 14.924500462923223 12.208457113827276 9.81362650823899
Bi 12.454211958511639 13.165903996491588 8.285100554735747
Bi 9.266762577925396 10.289235992707876 10.391116431478022
Bi 11.253027205414014 9.601284685211096 12.58187247696533
Bi 10.883662804192156 10.572071609020647 7.891409634201761
Bi 13.98408395949933 9.723557753241263 11.322029224377077
Bi 13.290894521016897 8.894786566100546 8.496573296595194
Bi 8.90445123860809 7.303314295952849 9.798419491859434
Bi 10.930203560362049 6.595046551069973 11.976588803182523
Bi 11.69583330071215 6.379982213969999 9.062156628358633
