27
Energy = -96.7586316 eV
Bi 17.456027852770028 14.46907382880646 12.153986132480576
Bi 15.508098351281996 12.070167524283177 12.108647497115841
Bi 15.876462456872597 9.704599233896444 14.788030563991514
Bi 16.256319863398488 13.282253102331783 14.76487825883747
Bi 12.917609516968005 12.58569080087748 8.433790481401457
Bi 14.700453000855266 14.951117022442174 10.95482637715886
Bi 14.564125230863132 8.406234393816954 11.082947309764823
Bi 14.571220605823912 16.57765339616009 13.450597469796616
Bi 12.269360830077606 7.535227765241415 9.228136930807672
Bi 13.969334766852665 7.4833709216284054 13.924491912215146
Bi 13.531767497863019 9.630551321808635 7.464229230063152
Bi 11.399559444499566 11.37520812026097 6.112411163459197
Bi 13.931226458468593 11.148288421951563 16.50156177942481
Bi 11.75100330206934 17.742932029930945 12.859742869801677
Bi 13.443772903641506 14.42837882964113 15.405641706076878
Bi 12.081569725127265 9.865268297902594 14.391763972345721
Bi 12.065144068902766 13.082997513448005 12.97732201913207
Bi 11.967332593172433 10.058331132953978 10.881913801196838
Bi 9.157353087447758 9.094305140847839 12.153408457051908
Bi 10.851082655084376 15.362715269790439 11.156375346237045
Bi 9.55240475978543 12.777279612401825 15.033343090064614
Bi 9.879786734849395 12.777523161457722 8.374367986661639
Bi 10.245806747813328 16.298086912394385 15.039165950705941
Bi 9.256352567835833 12.045702911449998 11.406650257895132
Bi 9.112608519540728 9.691736160788707 15.1110863499757
Bi 8.299371219117356 16.06531475366485 12.735394697820052
Bi 7.161194495784748 13.266341676587963 13.28163764528495
