29
Energy = -105.61571306 eV
Bi 9.182720515942853 10.860814070175207 8.278425318520831
Bi 6.982967746172592 13.692250281174871 15.520104373798327
Bi 7.594757532803475 13.33612830249851 9.239852008540879
Bi 6.8492837701693725 11.53434241620114 13.370294800581158
Bi 9.609866477200223 15.226422242158874 7.893493612892895
Bi 10.682608497324438 12.787745596874354 6.40203653007108
Bi 8.525450486169031 11.076001826282255 15.861381544834758
Bi 9.07761298525638 13.101270490268046 11.863437363847398
Bi 8.773160202815872 15.480557544328981 13.8018413681952
Bi 11.273427105305661 10.607294271379537 10.614625817182729
Bi 9.538396407352305 8.507495417512814 12.062764691322464
Bi 10.929966977131324 5.876106516778561 11.670650276940627
Bi 12.271581523845157 15.81445299949998 9.373462232583242
Bi 12.845665277077766 12.951301442238316 8.597623043650268
Bi 11.105569713628475 11.674312191142585 14.31309479262728
Bi 12.946596193282007 9.010322578731357 8.592878559546394
Bi 13.576724258379954 6.598853190081565 10.319231708070909
Bi 15.889530801440342 12.752408483513308 8.521159200158353
Bi 11.004206378257761 14.442237898124228 15.614975890748362
Bi 12.701707790373243 14.083856724293735 11.903000295125612
Bi 11.548271712076629 7.642205564915258 14.152184908768874
Bi 13.699901079166825 10.876131594808173 15.634746620832727
Bi 14.328267905641411 10.768417058674586 12.32421155507131
Bi 15.684151074611485 9.915944916153396 9.650147436857385
Bi 15.664203044966756 14.481827193097352 11.04529363056807
Bi 13.520764186768353 15.67768061076232 14.368254707080148
Bi 14.404331790289543 7.797274866411263 13.01518818494672
Bi 15.319931591971873 13.465992996641086 15.476990806893115
Bi 16.810919928191908 12.450642120168862 12.98510337161365
