24
Energy = -86.54411525 eV
Bi 16.052159172938662 11.54099508910042 10.346457514872467
Bi 14.412866503979126 11.013880579035 16.47289493488796
Bi 11.408478885914594 10.045540222497728 7.547320512226242
Bi 11.013030401912696 12.815089095470553 17.71130575171539
Bi 10.691030330926358 12.75331141206024 11.275075679779023
Bi 12.748395495956482 15.938168577283516 16.075412395323582
Bi 9.087019216497904 11.02338234362523 9.209967305655546
Bi 13.51637812039714 12.153178356523792 13.656746117889302
Bi 15.695312657020825 8.625703480114643 10.677683366868546
Bi 10.336802722739419 14.29607829660623 15.082220544591937
Bi 12.498606609510956 15.668027801719962 12.132621834138424
Bi 10.403116474165543 8.373654459422717 9.786548301811607
Bi 14.671880562879878 16.878649384073093 13.924945329882405
Bi 10.840411613491058 11.307159337993523 15.175686322485376
Bi 11.6575591586321 17.25523033220069 9.670494230698102
Bi 17.40203872421728 10.970893094259042 16.20440023631368
Bi 12.908785247466136 9.745321278025926 11.174233358439936
Bi 9.430328740427722 15.210136334653253 9.86717318247651
Bi 16.846038177764775 13.913505794227543 16.012055466749683
Bi 13.025037093260202 12.162810447414714 9.311691679625232
Bi 16.066232201783098 10.355834650498759 13.282872306193495
Bi 15.9509068199314 14.20666173279094 13.206909061604351
Bi 14.06055948819559 13.809691750784546 17.768158197526216
Bi 9.859884108600925 17.23602469337651 12.084317860829474
