25
Energy = -90.52524885 eV
Bi 13.905040150492036 9.124258299983769 8.07253059116033
Bi 16.80818637262539 11.273095555728123 11.353581035198683
Bi 15.32241427051957 11.718695715802994 8.729994105117294
Bi 14.048163909790532 7.416038802141024 10.458278071456549
Bi 15.537653260539658 8.844794992593162 12.66376050451691
Bi 15.227040351704147 12.980238589690002 13.408307957011827
Bi 10.60088025687359 9.722010358251705 7.7681295987792645
Bi 11.087658338459027 8.71965063969463 10.657569164203395
Bi 13.15031574019188 10.745939259550928 12.958139472563092
Bi 14.457623570558304 15.061409286814886 11.26496416488141
Bi 12.802877229748278 12.867758040018566 10.014521035080469
Bi 12.661010381207854 13.668719782175156 16.46020289490294
Bi 12.027510928777264 16.491318809241957 12.45716057365168
Bi 12.436759454020766 10.68261873617736 15.958434782472597
Bi 11.665096326499564 14.704000590805894 7.8862777690966235
Bi 8.552755564623336 6.981926916977575 10.909724666359104
Bi 11.432876919188205 13.758108659461843 13.652642489919188
Bi 9.423214807250632 12.57909096393129 7.922126106706421
Bi 10.025381166128938 15.922566578971342 10.160867670831806
Bi 8.480674398485068 9.747262401027482 12.142898303434704
Bi 7.751220039291968 9.35549383746164 9.242499592729308
Bi 9.3450555459203 10.798193912158803 15.925717583561434
Bi 8.578675747593394 13.498416600877455 14.765142667383332
Bi 9.319611340359975 13.024991655074713 10.911770390480754
Bi 9.78342710399992 13.344652833465247 17.563025624493182
