28
Energy = -100.99476863 eV
Bi 6.973093106685573 8.256450311621334 7.863703001170081
Bi 6.765690327019135 12.667135969123075 9.028091190920904
Bi 14.116864592600777 5.434541910713835 10.381935001081935
Bi 8.117088064903163 15.1168263458246 7.843909336476672
Bi 15.008157309312892 14.138208517084971 11.66666087544275
Bi 6.75049765726276 13.90488515395732 11.819927837655714
Bi 7.68686397222251 5.2142361714862195 12.811303730443587
Bi 13.323597806624946 16.599152412932987 11.147892875710346
Bi 14.139052131787126 10.157974160074666 10.556601371165694
Bi 7.639093881160693 5.361385316355416 8.407823267778815
Bi 11.448412331489711 5.698644857796176 12.133709087023966
Bi 15.3940206423069 12.537601637282867 9.109480832381337
Bi 8.127238724522513 8.842843383411978 11.619198074605023
Bi 11.375075600565626 7.594221851353307 7.87917266738772
Bi 8.827028806467444 16.124187867186922 12.250394694047642
Bi 10.734175463574882 12.681523429428685 10.665712794507346
Bi 12.554861696658925 11.628218220657827 8.461038420162005
Bi 9.549833813635923 4.040660523866814 10.422589859931335
Bi 9.34213350037789 7.196447469022529 14.102830653204613
Bi 6.0148205555891865 6.822576537800472 10.511431087443246
Bi 11.878371782803168 15.683369857418809 13.557557184676078
Bi 10.577902148943704 15.564049250809546 9.837171753241122
Bi 14.38660149605264 7.852511199067818 8.539365995697862
Bi 11.003670049162968 8.373304706145788 10.828210884676745
Bi 12.654665889967639 12.754513285801117 13.01947431797783
Bi 11.992214822381733 4.659772400277961 8.414556703354497
Bi 6.523585525233255 16.378775715382808 10.039405093809297
Bi 8.838844727201783 10.38711245564116 8.842657515397816
