23
Energy = -82.58455929 eV
Bi 13.230762891349686 8.533264765973618 8.62663974596792
Bi 12.975550286803879 6.199419904668734 10.875953488368223
Bi 12.374212546711748 5.15388196663164 13.906588415051118
Bi 12.093459733686034 10.582257262200207 10.542456067565205
Bi 11.061730048644256 7.630671730872875 12.757488503875937
Bi 15.134313166313714 10.175015213524848 10.264451961143322
Bi 14.026111386924638 7.623095786875695 13.309591562479213
Bi 13.781954750658509 12.407991765122379 8.666203981778173
Bi 10.62215268999163 14.249213859865717 9.166324975273204
Bi 11.949488405543201 13.768744689166807 12.57804890223946
Bi 8.344485733819546 11.181488233732177 12.498503504802992
Bi 10.42450672534349 10.941843214362356 14.75682848957736
Bi 8.946517457409806 11.72042879482468 9.52546061931569
Bi 14.183198744058142 14.800631377150111 10.57936506428491
Bi 15.784045332945293 13.203803465161393 12.459809203083253
Bi 13.485847728121628 11.457854332216534 14.01547084179943
Bi 15.683383946221085 15.160229965483168 14.790650975233008
Bi 9.178828259183307 13.578602603217231 14.122602441953855
Bi 8.253820714135985 15.77272720614465 7.87911024297633
Bi 8.760156761493187 16.0643337358607 10.828082581699885
Bi 12.709229653777426 15.731568017931071 14.80379651486676
Bi 6.817616344106586 13.965500087052376 9.841375911982537
Bi 13.782900609409122 13.40069705991973 16.42398576873241
