22
Energy = -78.84166875 eV
Bi 16.49139594624233 13.366236178631631 17.5763998316688
Bi 9.656415564168814 10.367286308490813 14.577996089892512
Bi 7.685450495319964 12.677326976584883 14.204177977248058
Bi 10.846886059140147 12.369115764743889 16.679919868552815
Bi 13.525522551051248 14.784571170102152 11.085623704916603
Bi 9.544804634301583 14.793174763238339 15.39203961595201
Bi 17.26090505618499 13.812704199307012 10.608357732168438
Bi 10.576036863238143 11.932605663076027 9.075365435269251
Bi 11.404320877357549 11.504104727565151 12.300946383266801
Bi 16.535112454873786 15.98467356011259 15.972297150244664
Bi 16.1825859608958 14.14360398879211 13.521652970237852
Bi 13.088457504432537 13.022136586091278 14.644588944258961
Bi 9.766022156807486 14.06352416603817 12.401962059977745
Bi 16.038275582787268 10.32740991152858 13.207864008689832
Bi 13.561233392201588 13.921075058944009 18.233460860834576
Bi 13.82508914451512 14.531353666940655 8.001695120440973
Bi 13.50509185029056 15.931836722587024 16.042839858811927
Bi 15.032058187184363 11.14663848571211 16.010875803534717
Bi 11.049201972408591 14.929135792290358 9.184298633536407
Bi 14.760652208065082 12.010547357535058 10.74157286322509
Bi 13.285477319848846 11.531811234170947 7.904135372780214
Bi 18.393694129802086 12.171541998221633 12.951604373211266
