27
Energy = -96.67677114 eV
Bi 17.577790349373217 8.257568747606632 11.848912432905665
Bi 17.50349695646765 11.202892087653487 11.225664232230592
Bi 14.250952013924737 14.713355207671352 7.599888876266071
Bi 15.223597193672683 9.469385004388995 10.407676192968218
Bi 11.180547503885483 9.766350814851048 9.753010982440202
Bi 11.648838240170756 12.448453947591625 11.13551825760386
Bi 14.584751598940953 13.461495218080968 10.334983009428667
Bi 16.259750923565683 10.160558112978705 13.927180416739043
Bi 11.474799402981574 13.975753175549942 6.603602243824455
Bi 9.892541962774448 11.637437822493476 7.729258330435611
Bi 13.475502918468305 9.084144769018167 13.130226680530065
Bi 16.07383433494077 14.098924910156795 13.632662205031489
Bi 15.863427188447426 10.801135624335123 17.040611795003922
Bi 11.909619405318658 11.462263003786026 14.31777349478829
Bi 12.894504407571343 15.938210315627602 10.07429359941513
Bi 13.361699331406355 9.490712999735376 16.34060871423557
Bi 14.336334417081677 13.36251625692473 15.976058150319563
Bi 10.012688277949467 14.383541703629415 9.25767030562023
Bi 13.5052083183751 15.679078511451188 13.469756695458042
Bi 9.438055609314139 9.670270903280185 14.158009524775009
Bi 8.873758662588951 10.837623595833673 11.418137734773056
Bi 9.752703983558735 15.234795273065046 12.899989154867471
Bi 15.478650792023195 16.25661876085653 15.697551608636775
Bi 7.035326100352162 13.85388136936915 13.29504964420192
Bi 10.165979633098646 14.20010421273369 15.73476822431093
Bi 7.879926604736575 16.177246179356594 15.086663232475704
Bi 7.983718920365185 12.013686523328664 15.542479312069847
