26
Energy = -94.30453976 eV
Bi 11.951986697287387 6.764541716230866 13.028288070032431
Bi 12.560595890702334 8.30458448969145 15.53326187337251
Bi 9.587582217458401 8.30339033075274 11.901188779319472
Bi 13.833066374696184 7.900450058128506 10.964089354802768
Bi 8.294246640567932 9.634672549062403 14.272599642403371
Bi 16.351304122665887 8.413846303133727 12.545685632837625
Bi 15.201444957135575 9.762323836260398 15.066377148168572
Bi 10.851492821630437 10.786650680985973 15.32655738204622
Bi 10.177175164878008 11.260431702616687 12.273222410175517
Bi 13.608538962113727 10.925866451683845 11.087899763164645
Bi 17.07741821669466 12.561357919202951 13.178128915634078
Bi 16.69935382139378 10.845123932571383 10.714742788148953
Bi 14.063220218906329 12.283569634281434 13.848179849209876
Bi 11.722924152637114 12.445634157256828 9.332321917401401
Bi 12.265657214983593 14.675160769804707 11.322454115040667
Bi 11.380955202135402 14.7583207971895 15.458659433726304
Bi 17.083540005359986 15.40702391607333 12.053543138283072
Bi 14.556494327138807 16.075470599132018 13.607235382716821
Bi 12.635037126113259 16.75046417173737 17.41869386634516
Bi 15.038484225194818 14.443226048912775 9.941032849939905
Bi 9.739713529198326 17.034350570046943 16.597429717194867
Bi 13.191121963466347 16.78842496498199 9.350024612161375
Bi 14.325220660530013 18.462397984915054 15.574319296197869
Bi 10.339684787292455 16.969173704824104 13.60701124112976
Bi 14.431518469502365 18.371840689470854 11.636709891585417
Bi 12.234525432684205 19.33398258783074 13.591797257307304
