20
Energy = -73.03746582 eV
Bi 18.25614472376426 15.787631768479594 13.644082395452958
Bi 17.955887684640395 15.106909289237414 10.676448874116506
Bi 15.766138118124728 14.123549619163718 14.180252693563608
Bi 15.424343785054567 13.46286378915361 11.20421664368917
Bi 17.171280324803707 17.857739024876214 11.743410911576944
Bi 13.756521077066528 16.311233867035146 14.60674357454493
Bi 12.46212040535278 10.264131137541641 13.702448186930155
Bi 13.915923527784841 15.70770673521495 9.873735843931906
Bi 14.15905344901927 17.828777267831562 12.005829511733
Bi 12.224873273813877 7.232967925909797 14.062006818665786
Bi 12.14486268411602 14.002889017590675 13.323063252784706
Bi 11.589675792599534 10.493535327547702 10.830833279202745
Bi 11.058081277436486 15.429575068662004 10.96236805118669
Bi 10.538306584646755 6.254911570380532 11.76227018804669
Bi 9.899094273420033 10.83439991213408 15.16416467465739
Bi 9.5492374860506 12.744755771197536 10.805686244521134
Bi 9.163298325535033 13.43809967894586 13.776703546596263
Bi 9.31209427176763 6.573682314582937 14.552625018843733
Bi 9.110829137354592 8.806587652691691 10.876511028626126
Bi 7.9347719394266125 9.149499166287212 13.669511169276033
