24
Energy = -87.27245048 eV
Bi 9.49452514510042 11.185223498028746 17.898616723307
Bi 10.339022338975303 13.226157528915987 15.771321289802813
Bi 12.33512484444582 10.609136648413395 18.773298031744797
Bi 12.13968620881796 15.099535861374822 17.330567293627883
Bi 11.59470123295214 10.470405550988415 15.824640281058063
Bi 13.594736863065734 13.310618027115462 19.29307458333541
Bi 14.31380826355784 15.454504476529076 15.187773769379321
Bi 16.2041878841341 12.628140994433492 17.851807720077296
Bi 14.645768948261269 12.414271243807086 15.238517991992905
Bi 16.707151731408587 11.600594614372227 13.17525738529638
Bi 16.583908948051715 15.569248918138339 17.232375793843705
Bi 12.56277676176101 13.850583862148298 12.638762021114074
Bi 11.249186758878972 11.352971866434132 11.35501069952153
Bi 15.274965793109978 13.504769205058878 11.26071149931939
Bi 19.039663540879825 13.582101607359514 13.027323815808566
Bi 12.966936881701738 11.405498020911608 8.8839232815844
Bi 18.431940806845294 15.881268255566452 14.838754135002683
Bi 9.293680820460791 13.55727847524396 10.724337657295328
Bi 17.17556568496091 15.814040640670843 12.052406763325788
Bi 13.101149525058533 14.348061410047398 8.183920251862146
Bi 10.679773173404655 11.049469100244485 6.850402955921083
Bi 8.5537347309053 12.932305460185567 7.838180556130541
Bi 11.462378215803744 15.622973115681434 10.348172035086993
Bi 10.79938097812965 14.019385952475742 6.161873433340377
