23
Energy = -83.25759341 eV
Bi 13.463565398825018 17.154620803650822 9.472089942075806
Bi 13.985437611299767 14.56757779497643 7.970983467229451
Bi 11.164784779069048 15.590360450418702 8.307803816837813
Bi 13.64149666385977 16.442387914615082 12.44342228872345
Bi 12.93468139944604 9.064861742086398 8.351728428891963
Bi 10.462062916886506 10.565587644658454 7.535557046573486
Bi 15.552124870725992 14.23344038782861 11.72296881547173
Bi 13.767832540837599 12.362459957607975 10.137228380991445
Bi 10.635105396661702 7.588867162168957 7.052621786219742
Bi 10.838365148307059 15.389365424628764 12.40188385508857
Bi 10.827036783602498 13.164409576255267 10.397309521807673
Bi 10.363782202260744 8.637684852253976 9.88258331603711
Bi 10.99222642051715 8.679200474793124 13.491826599456283
Bi 9.230250577096403 10.859695906736677 12.493638957275213
Bi 11.599816283616617 13.416300670417368 14.60635772396616
Bi 13.370097818610256 11.102854866106782 13.634061253338896
Bi 16.1357541870944 12.387933426480053 14.127590690705507
Bi 8.980880458481769 12.049149096136357 15.293317087935364
Bi 15.777096004913945 14.05099304531569 16.633084727264155
Bi 12.901964117488314 14.895764326150404 16.930793125480804
Bi 10.27218141492151 9.488890812143236 16.34948105163192
Bi 13.27770888150719 10.011117293615797 16.46953285271755
Bi 13.860180744811283 12.379766531566023 18.306651678140554
