26
Energy = -93.75658427 eV
Bi 15.716962325935972 7.150798507343531 15.190427757765047
Bi 6.632849030228483 14.008613173342686 8.527006609779075
Bi 13.396125757144905 13.385452886454148 8.302902832502536
Bi 8.160951332265439 10.892858161657955 11.985514036315756
Bi 16.42740912792446 10.61809499499025 9.883249049658394
Bi 9.326313230560514 13.584564827960245 9.946056837791966
Bi 11.03695108572149 11.37323877456713 14.470750133012144
Bi 16.398435992872137 13.399792707002893 8.662589330777934
Bi 8.452686169542899 8.942779199581588 9.671797967585393
Bi 10.772543198243666 9.256825726989893 11.641172497818658
Bi 9.071966397773126 8.960239585321835 14.183638136345932
Bi 12.539650500559675 12.6578878514049 16.82858455332035
Bi 9.102217219859249 15.152064517088064 7.269617565778762
Bi 8.038084525865703 12.506872192482367 6.281667368992227
Bi 10.926168061102143 15.810114413792357 14.240159981877508
Bi 12.616833133918075 12.49755635664148 11.666352025394412
Bi 15.483293299266219 12.283154853568329 12.4335983578611
Bi 14.489871361236528 9.918010754616605 15.098810172355975
Bi 13.627448840676465 14.383988382240608 14.558778339843276
Bi 12.793795093580375 7.491477622309497 14.43646364411679
Bi 10.031369499046969 11.146968464774254 8.203115464592958
Bi 14.977641441101717 8.365079662219445 12.510378064628794
Bi 13.473407533994518 10.503006043313869 9.178421905226413
Bi 10.1393954109031 14.599967602358905 16.92233935542122
Bi 8.890422589438963 13.572793889579927 14.323683851447704
Bi 14.762665487469352 14.823256494627804 10.868381806022121
