25
Energy = -89.56048109 eV
Bi 14.726039076812414 14.79004843293814 6.892415396053163
Bi 11.662717322261893 10.685251780935337 11.183954662457115
Bi 15.126436114864246 8.225995338795938 12.375579586119256
Bi 14.6416856837743 15.67521466571602 9.775895981771601
Bi 15.74194181606781 12.95950381431889 9.072297217664504
Bi 14.28107748942339 9.74836192319734 9.86001182666589
Bi 13.775396398140368 13.29614944939523 12.823264944177435
Bi 14.738434891551552 14.378369771470833 15.524119737161989
Bi 12.113995871461322 12.851631333747545 15.336436372833578
Bi 14.749170241516733 11.380238743948526 15.454288547797077
Bi 13.92440392872336 6.694228116809282 10.110136601953275
Bi 11.402410740406804 10.963242164464372 6.454579480526198
Bi 12.100250321089376 7.826625412875148 12.306903682793779
Bi 10.78938467761055 9.381696408363242 15.357491102425115
Bi 12.6600448076555 13.084529695579347 8.338880038431506
Bi 12.150221393115192 15.78479194038936 11.828833682594643
Bi 8.367148528470087 8.673931362261207 13.674741139607887
Bi 9.073723950443775 12.337727591643487 7.676259488825203
Bi 9.991093287565315 9.679435475232046 8.821868164712324
Bi 9.560250914619978 15.442498512391346 13.764018734989234
Bi 9.935288587247541 14.066556730563537 10.34712138709143
Bi 8.551502457998142 7.67306452049511 16.506422366540185
Bi 8.607109152920726 12.758621350883109 12.798432878019863
Bi 7.4385443491770955 15.336319171660506 11.670069813289222
Bi 8.084581848874642 10.60854645886956 15.968643939064092
