28
Energy = -102.20375337 eV
Bi 12.620324786583115 7.322816698240748 15.377047993339131
Bi 10.991718083198485 8.018390175853687 11.482289184509698
Bi 10.014799159126179 8.572868621993642 8.624683915913769
Bi 14.98302779802044 7.5448170084603925 13.454454536126475
Bi 11.017421766496081 9.88759815603917 15.38565756369506
Bi 7.935108306177857 10.964378030517612 12.260567804406868
Bi 13.8956461648304 7.858130166073956 10.616903671468242
Bi 7.825520543443661 10.661747528095539 9.21822341123717
Bi 11.026006943008822 10.945793983360634 12.47790472840865
Bi 16.04570777312592 10.075131733016672 14.79607819650057
Bi 12.500824640765508 9.958308447968959 7.377980253871749
Bi 7.2330878395349 13.966121935740029 12.115619310468727
Bi 13.711470391655798 9.849081884324358 16.766979101091014
Bi 13.494092429913927 10.845693725333739 10.090560462212157
Bi 10.131257688054376 12.595530262079686 9.355942017789172
Bi 9.06779469950092 15.900041801710787 13.68423243685507
Bi 15.797604355201678 12.634692406023529 9.190970365749896
Bi 14.275882114106922 12.247887342973582 13.648200287550587
Bi 11.32624197091333 14.031763448764824 14.504919018558123
Bi 11.494570737336542 12.758456202658602 6.667799059631417
Bi 12.572628434111701 14.317588785766679 11.084046134628709
Bi 15.60992019178426 14.317739333894009 11.773936488437922
Bi 8.522130509318878 15.159408857612128 9.597632797949846
Bi 12.354805758558959 14.836768527658624 17.280073863812948
Bi 13.593547431952205 14.495762689275615 8.160163604688753
Bi 13.280073881318108 16.358254787624883 14.85756083058392
Bi 15.022661648661973 14.143949764317467 15.979682018197558
Bi 10.671401625719815 16.74655536704154 11.185168614738195
