26
Energy = -93.45169724 eV
Bi 13.507850507803822 10.669795832728653 11.754080359808345
Bi 14.584481826802467 12.403312643789153 15.240606161143022
Bi 16.366217354201282 13.693292153912001 10.50650170796243
Bi 13.114930170831586 9.80344979213651 15.760946320256732
Bi 13.058771056714509 14.923104771748731 14.245665793145877
Bi 15.965106694502259 15.981809941948708 8.711731995448663
Bi 12.394937788619675 8.219938880555246 10.299004168833045
Bi 15.51209367059923 9.867321863510634 13.85732796197603
Bi 8.63315779133969 5.880985358412532 15.02965483972466
Bi 16.163068030697733 13.207134391873304 7.51635144173148
Bi 14.032691910500809 17.080835291284448 12.302214761570736
Bi 13.129728713569309 13.647539132325216 10.2258351175138
Bi 11.135682979374378 17.97466990294588 12.951933782725016
Bi 10.956474939328663 9.145839957915058 13.638536952664866
Bi 14.634272236447913 9.870275517508096 9.020964867848154
Bi 7.360314825052684 7.054123207699527 12.480104959861364
Bi 10.130140416876865 15.099747168658531 13.49243157978904
Bi 12.889221905288892 16.654480229752693 9.542613350553884
Bi 9.308304201401018 8.60209391631212 16.175807392826506
Bi 9.952536882335421 16.2614348532044 10.714594025369815
Bi 6.461343638302883 7.9222435787362 15.22665625805963
Bi 10.11212418884619 9.808471932787029 9.097605949739442
Bi 13.25580198893487 12.174325056694332 7.562122085703062
Bi 7.871482666261557 9.790085423252268 11.221531493788769
Bi 9.389543935304737 11.685636833894904 13.14322234714009
Bi 10.134410779915681 12.63274346626737 10.336645424669957
