27
Energy = -98.65348051 eV
Bi 8.572264195786351 13.01995729032646 16.932448731421307
Bi 7.446654570211586 12.610859603693827 14.14427195582874
Bi 7.0869750841537344 9.706526927656816 14.914064643760279
Bi 11.017652545746525 14.81937085860027 17.12413417594795
Bi 11.353405746020734 11.815249792512427 16.87099764561347
Bi 9.834321234927852 8.471574663125432 14.764290280256612
Bi 7.931601466899603 8.181740683906881 12.428548036837784
Bi 9.900618873278408 12.522279107581891 12.389540449097858
Bi 12.129818616583496 15.554047423982261 12.09916468231739
Bi 11.776166240776961 16.782652623213224 14.917974323560909
Bi 11.680943873229838 10.755194246212117 14.022111919463795
Bi 8.576680237649876 10.471762155105973 10.568780273335731
Bi 12.869998623074714 12.660163332105373 10.094135299152976
Bi 10.737160861222407 8.790736042434856 9.23053486044335
Bi 14.654554237883406 16.098584472780246 15.61233083271179
Bi 13.859205515100557 17.953493265505283 11.349803979278477
Bi 14.114662580178742 13.844387779497678 13.635598326765795
Bi 14.469455271903314 10.592293889936704 11.617578376195906
Bi 15.614796245261749 18.33479021453065 13.781485540037291
Bi 16.502481138554977 10.350171905533726 9.285881129228562
Bi 12.07411811440091 10.998979989227273 7.687373000813921
Bi 15.706704945702514 13.396689542237382 9.209415438144823
Bi 16.7072378836043 16.953645440908375 11.319070538814136
Bi 16.683272775709955 14.005470633448418 12.03521452016923
Bi 12.78999055227155 8.051928651245472 11.322605584344078
Bi 14.840498228744213 7.326310079053818 9.24799992074205
Bi 14.61001781101092 9.445569190429639 7.109559108859466
