21
Energy = -76.44417677 eV
Bi 14.955434786030416 10.25738343727012 9.732394633807969
Bi 16.567744843606942 11.401565012324447 12.05834508749152
Bi 13.548482400034226 6.8606838014645986 15.497767538469246
Bi 14.803237922705586 6.948087529246995 12.680839859700392
Bi 12.847415312609604 8.688917506475557 11.212880228835823
Bi 14.334024592527319 12.875126615069385 13.465469225100206
Bi 13.126794993642005 12.646870168630246 8.973574574383361
Bi 14.681269067791906 14.419697958726964 10.850892905344185
Bi 15.231942010378168 9.264348394569543 16.399193051352757
Bi 12.29617342009817 9.546750963880722 15.867967806536159
Bi 12.018205572066096 10.941749172514273 13.043425985714912
Bi 16.8110827228728 8.918025172821606 13.78166997275757
Bi 10.585550551743562 11.899851286122662 10.398742047961735
Bi 13.198738260627293 17.083125197879937 11.083139993400792
Bi 13.21478206232299 16.683878396924566 14.036061970429303
Bi 11.064269528996716 14.573788343330625 14.482144085546631
Bi 9.4563505258708 14.266461354361683 11.955323476270893
Bi 10.310755480810846 16.6551131863479 10.38742879318787
Bi 11.237260026905895 18.95764225038077 14.611703952670307
Bi 9.084134376875575 16.859097201101978 15.091196794691177
Bi 9.126938075255728 18.473583199456716 12.516344997187021
