24
Energy = -87.25504111 eV
Bi 16.63362925188802 17.134033471735126 11.436304043993475
Bi 13.39613048388555 14.61916868130436 19.307207707786656
Bi 13.389345345516197 14.43991390423758 16.23155206145694
Bi 17.47109495296928 15.129167626186726 9.246066644710579
Bi 10.620282455283222 15.469694541665051 15.721256368004129
Bi 15.11860060975871 14.803725367252456 12.856596969569663
Bi 10.726170527626039 13.458965152855805 20.057753072268728
Bi 9.043400818434103 13.622907940361747 17.545234134467297
Bi 14.988259708659507 15.914957057932838 7.635763951385057
Bi 14.11967151073095 17.84670839469758 9.820772413549905
Bi 13.004946520201978 11.590894581044413 19.41259242270904
Bi 12.943620976047796 11.437093950742927 16.34726362787543
Bi 12.583215103513028 16.117050399983142 11.808237920655904
Bi 9.9655291628419 11.16417711811937 16.056983430139862
Bi 14.992799639336269 9.232498429475289 10.16886439633023
Bi 9.71946769268212 13.234649774017475 13.799852275326646
Bi 13.30448203993321 7.948773247224865 12.367621568209211
Bi 15.90409562690876 12.813260344112239 10.645572081874821
Bi 13.168644463917312 6.902651477285733 9.517848189743674
Bi 12.341684123911948 12.338224160322884 12.5653312785935
Bi 11.425302965599453 13.887316951425385 10.115140037984395
Bi 13.85524961208134 13.178467122556132 8.457747270981079
Bi 12.216861796614706 9.780441731552852 9.010482762039285
Bi 10.907813108108865 9.764887726540204 11.77779510383085
