26
Energy = -94.49033662 eV
Bi 17.340689241577746 14.132949828985831 12.42012715269497
Bi 15.292707336704666 14.58894364700621 8.667691077353759
Bi 12.278634260058208 15.12292171921052 8.374368162185322
Bi 15.865849406382962 16.430420934573387 11.02294261263334
Bi 16.8198981993444 12.30706241545545 10.037795286677142
Bi 11.31355504854566 16.02007975406267 11.086846112568942
Bi 12.28180068690139 13.45436978626936 12.341416563894224
Bi 14.652484211925216 15.058089185240746 13.447276783637218
Bi 10.839593171656349 12.523083952471815 7.700887982905916
Bi 14.568926221662853 10.928951163524301 11.53237758911332
Bi 8.414743814605774 15.138482416622562 10.871670016443144
Bi 8.38100015122511 12.407751189660823 9.46176495794839
Bi 10.94988817583357 14.125698038656896 15.009409439305655
Bi 8.136535319784166 14.69234334086042 13.91050727206578
Bi 15.24205149486298 9.404181467578796 14.184227828817527
Bi 10.827000954757331 11.350289823575109 16.28531886864447
Bi 12.765377839282577 10.440771094620972 8.82796440805571
Bi 12.211311918906363 9.941613589291597 13.93347024613514
Bi 9.596389903327427 11.13833764537489 11.991542582289146
Bi 15.10697043015363 7.915609723460377 11.560608971505266
Bi 6.982216303801455 11.962972136987746 13.41335346650239
Bi 8.049576223922108 10.211124196583196 15.645800178905548
Bi 10.552727920512886 8.852902610362152 9.83733715589553
Bi 11.08587816083969 7.161800879096074 14.113661365253185
Bi 12.251534553717855 6.783363640086564 11.29926912644614
Bi 8.47240854099796 8.43317347707181 13.185879204666369
