20
Energy = -71.44529949 eV
Bi 12.410441999434811 6.751051164093155 12.964722084681577
Bi 11.099802328060766 14.99627214449308 15.22553727349797
Bi 11.328200117424608 9.718034732736722 15.852495273490243
Bi 13.140633687259383 9.669210714859638 12.157236624730942
Bi 10.523189524452617 10.514019134349065 9.051237528795538
Bi 8.285628502323766 14.690337063467275 14.016993940011423
Bi 12.07820497131007 12.276431109348788 14.232549889533534
Bi 7.945058601660785 13.704442359575097 9.512052385964688
Bi 14.888693144667597 13.49257826332548 14.220826433695647
Bi 9.149601218548215 12.417380641067744 12.047657161860059
Bi 16.44434964437782 12.614993235147292 11.694660721559673
Bi 10.703180665291944 13.371002613477431 8.1960029804944
Bi 13.231576826913699 9.309568820540521 9.065701331907766
Bi 15.710355111029335 11.105866496885024 9.116330990370713
Bi 15.09705685253558 14.071495823827707 9.41166596156446
Bi 9.647944135080781 15.350165653449638 11.410718898370396
Bi 10.275195261506536 8.894830743347551 13.087827131227058
Bi 13.889695256863229 8.34676868975574 15.04283482240428
Bi 12.466627304242431 13.262635901751203 10.82759502572288
Bi 13.091963462200185 15.563661002045126 12.90158706452906
