28
Energy = -101.15316588 eV
Bi 15.002611876539564 11.751082301831085 8.29317320974147
Bi 12.635997904204615 10.01122217215023 9.00612703061634
Bi 11.612072987993749 7.083968948413597 12.055880588805834
Bi 15.94841935086147 14.220315492889782 15.711260710384746
Bi 18.411192536716737 12.203264396330326 13.831584228364324
Bi 10.178715604626714 16.987937572651063 13.152681250115277
Bi 19.003788730692744 14.152029272665805 16.042338334810676
Bi 15.630068423179592 11.182592424916919 15.249937790651792
Bi 9.421797265400713 15.320808019287487 9.50856085267199
Bi 10.008664398278318 8.639187264349685 14.145310402559474
Bi 12.83742883365432 14.286805614551422 11.209384746498865
Bi 9.200504438347993 14.428897264381451 16.19160802430648
Bi 10.709971516529981 13.580006206523723 7.352149461426215
Bi 14.122990612558718 8.63407260246297 11.216660616245484
Bi 13.741351131809449 11.213041763632338 12.789108028136992
Bi 8.965572265002715 14.286185814575761 13.081233354679473
Bi 13.500639686593702 14.421854736044812 8.168022110353508
Bi 17.9221387604491 15.084983066901387 13.390208698677627
Bi 10.898926600174962 12.310838201641495 14.834106540468534
Bi 10.667807681810373 12.230132732107451 10.122343419892882
Bi 7.569437603156989 7.573183096691111 12.65704243701454
Bi 8.484789109458815 10.43126799606616 12.173703644216795
Bi 13.159924635245504 12.099488249268044 17.180030628780255
Bi 11.953577048914903 15.20177260300007 15.170636052301008
Bi 13.661406494133137 14.880138100514676 17.813537390675208
Bi 9.39904960681912 8.196099884058622 10.262676405568502
Bi 15.663291304860255 12.822972572177681 11.089226833133582
Bi 11.61299393261057 17.07301522074216 10.432423366743764
