23
Energy = -82.02582824 eV
Bi 13.440475234175414 15.898062826277338 13.733903012773947
Bi 14.30249921620104 16.218479225015745 10.898657703867904
Bi 11.538196061410746 15.11585665854464 11.239133866324114
Bi 13.91620331791584 14.004368215602504 17.24252492749179
Bi 15.722228748489885 14.006630705032787 14.591815097027794
Bi 15.683149055272189 13.143206696468534 11.52294587553478
Bi 8.144143752443545 13.257778054284369 10.382910260598099
Bi 11.622395671553102 14.751603320193187 8.023331694454978
Bi 9.187942502466512 13.124103535762321 13.244484382743426
Bi 13.943230865196456 11.122724047200835 17.902354172923378
Bi 12.829217899303986 12.22399580726041 11.032433562831073
Bi 15.570119094996823 10.92354569022927 15.038711689291654
Bi 6.880348972526839 11.392811976708835 12.43367828655891
Bi 16.139087568682786 10.114560256178706 12.04049147962821
Bi 11.51820736377334 12.318495134717061 16.57736540393849
Bi 9.58281766572034 13.108606000886313 6.509525235013056
Bi 12.091338804440749 11.770528420637607 7.616264762893631
Bi 9.360077702336357 10.953247242887036 8.73330922804439
Bi 13.881445936156771 9.267233020783308 10.225724517188533
Bi 12.733237706455974 11.150290697059171 14.014428608524979
Bi 9.757143941969993 10.22653267795301 12.071085306382505
Bi 11.72632637457704 7.591441294677986 11.295569884669879
Bi 11.262623356798214 8.509889550275188 14.137034922220943
