21
Energy = -76.14847707 eV
Bi 9.652612985798795 11.02069626424929 8.086933312956237
Bi 11.475064666810374 8.60417491109833 7.577843016037572
Bi 12.202653405382067 12.410176093139997 7.163548802830389
Bi 14.036063575307288 10.084629843923262 8.478564334339882
Bi 10.319455298148512 7.53564509360269 10.102699045046267
Bi 10.212486643595822 10.676995296861893 11.0596248747799
Bi 10.856963981215353 15.481824015011664 10.643947531150511
Bi 13.18655761115853 14.058516347522541 9.379763007993956
Bi 8.84679370537396 13.428584788400608 11.666074604978357
Bi 13.167320552330738 11.351887343004698 11.10321752484052
Bi 15.099849421264848 7.5199305983887585 10.134980976298715
Bi 12.554665555419 16.29772437435122 13.025854138710669
Bi 14.243290367048894 8.738743868257743 12.675074935492294
Bi 10.178957197134011 16.21258629719711 14.851937283584661
Bi 12.702860072032593 6.36711378344465 11.544596224622687
Bi 14.055501005241805 13.817459476451521 13.824759166708878
Bi 9.32997800404356 13.343777346021794 14.641766726763946
Bi 11.743518823597041 15.91440444207736 17.433314249557185
Bi 14.489946159306768 14.928394931144537 16.661921809287325
Bi 11.958728206451905 11.893405904549818 14.862743974557247
Bi 12.37960568637902 12.969891780377619 17.7061052680234
