20
Energy = -71.24131319 eV
Bi 9.967954225069123 12.192558403142334 17.435912086603913
Bi 10.92680404021576 15.8123747472527 15.129830142252388
Bi 15.195493080009252 9.389838569175694 9.492618022287788
Bi 16.278785513522468 11.344801121823606 16.603930930458713
Bi 9.99414054344636 12.11890917987399 7.974703382710659
Bi 16.649876250872833 11.986449847356619 9.709954379044406
Bi 8.888523170208623 12.393443144995901 10.780659341515959
Bi 10.606912591573591 14.59969543028945 12.101497894633908
Bi 14.870579240046991 11.098285972774619 11.999173944450746
Bi 16.204851227321722 9.410217588105978 14.239601495490717
Bi 12.740160471766076 15.397189469786236 10.008969441086451
Bi 14.051482337974795 12.73004614621754 15.055075610193962
Bi 11.348209321842921 14.753424698191113 7.444576960672305
Bi 13.75209590717202 9.851188822674704 15.985871168790009
Bi 8.881072192844531 11.535448921437707 14.696346696953773
Bi 13.850307850149822 12.920536798071181 8.579179162000706
Bi 11.268592638388357 11.721153003327283 12.722614955831789
Bi 12.353872668502207 14.098221686650126 17.1763167816569
Bi 8.383333162047807 14.291322802843279 15.848701331260042
Bi 12.204813714696174 10.589196194905282 9.61201611718
