21
Energy = -75.10867251 eV
Bi 15.465330192081392 11.103638773956474 15.235778155697114
Bi 9.683319553082685 16.422263102458245 12.454832060238758
Bi 12.835160283007045 7.733969967964059 13.773189104245281
Bi 12.493721900361185 15.410085939111127 13.09533624255946
Bi 9.425460328656316 14.30520980168732 10.293831796159202
Bi 11.509626216293801 11.99966852907262 12.654175854361347
Bi 13.001286719201739 10.602173591599739 9.355789704878916
Bi 13.343569904467808 17.617497922175854 15.147821178651556
Bi 8.83237269877263 13.602369242382096 13.176633371798731
Bi 12.49817339549811 10.388853285702753 15.185763751360064
Bi 14.742067216943719 10.992008531772127 12.023821863253886
Bi 15.539298896997305 16.1395568538603 16.72163725186242
Bi 13.978837471635488 13.740436622569648 15.674899898919719
Bi 15.91097614110443 11.409009379478439 9.142235428014297
Bi 12.327968539145067 13.57823691974641 9.296876039379462
Bi 16.283554688008888 14.954999034002778 14.006109351596013
Bi 11.335783580662568 7.73872334513403 11.108345896357722
Bi 14.85097756861039 17.25618758399952 12.528567426768497
Bi 9.817185886728453 7.380797142496542 13.685496707046102
Bi 15.012471641685934 13.806120454102315 10.8460331467926
Bi 9.388541612170188 9.903759829779286 12.001132280019995
