23
Energy = -81.64976863 eV
Bi 16.54350945549166 0.324452852268914 14.999093730398414
Bi 13.717581832341608 19.11211669921575 12.118419842995772
Bi 0.012539005288024459 0.18612016823861338 15.839855168198778
Bi 13.214601797045914 1.297634068562584 14.428717617992929
Bi 18.711241413508436 18.18215970400129 18.25455892717025
Bi 18.370419267441566 17.875467621386857 13.335604167656964
Bi 11.88700354003742 18.209284797295595 14.462022353706153
Bi 16.76369456779276 0.3382834422962993 11.98727995794925
Bi 13.23911337994858 16.83410856112153 16.762900584773757
Bi 19.185603924368674 1.5388629509286338 18.61883575011765
Bi 17.622244426586096 15.219044236123361 16.50367768441672
Bi 12.972704348516299 14.247194061429573 15.264149827142182
Bi 15.907176300045828 13.22781652401887 14.894399671339121
Bi 1.865031580496202 19.18812125300041 18.995032211067244
Bi 2.371022552549925 15.807783452890474 2.5849734766004238
Bi 15.67046617545762 16.82731356507237 14.749074149223192
Bi 14.380793677697108 12.657375014000346 17.45033994539503
Bi 1.6298902321051307 18.75315870722186 2.398248883758965
Bi 15.687625044320155 15.039876543949033 18.883017320424205
Bi 0.457481753988778 15.249220197917252 0.25834445713165843
Bi 19.09179984774519 16.59947754237092 2.778594472699975
Bi 16.452395335993515 12.61101775188248 0.9332097568808815
Bi 19.186720102038244 12.724874511213155 1.6785791311170863
