27
Energy = -97.00531279 eV
Bi 1.2837257520759393 18.317498067420072 16.907105088799025
Bi 2.2626799528503523 13.712765903936175 19.23666701073866
Bi 19.18392497766494 15.399897169595572 19.228262942246328
Bi 3.0921896897915664 12.681465461308928 16.493784352200656
Bi 17.303590151641608 13.393377177483398 0.995230805576401
Bi 3.76970960971974 15.482630232312772 17.348552875220573
Bi 0.27429764229241915 1.6082051496169742 17.721456537941005
Bi 0.8981545657170831 14.672995273507503 15.810229850054068
Bi 0.8308713700301977 16.32134601378303 13.187331559478698
Bi 16.508595809927385 15.755189734361602 2.734625469046322
Bi 19.385973750076253 14.773390584776097 2.6570282332081896
Bi 18.49402856544003 14.000484273495147 13.301436883004657
Bi 16.83344618383961 18.483235327562706 1.3360717617077549
Bi 18.457070381397163 17.877399448286354 15.01822552581043
Bi 0.4405470860130321 19.09539607160496 0.16307123721397393
Bi 13.354597280016756 17.736805304537132 18.458893658369323
Bi 16.926163145361112 15.272294533846896 15.576367036638622
Bi 14.385994582304576 17.04431580484003 15.04523101851448
Bi 16.336828509692744 18.045557499680896 17.92129102547974
Bi 16.54569210410021 1.5096704925220696 17.664335788673306
Bi 13.229280388965517 17.61361814022402 12.297602919236018
Bi 13.813650416316754 19.36291403990445 1.4259458377962468
Bi 15.386747052017226 19.417725030629256 13.454392029044357
Bi 14.705566661436213 2.4620870229587766 0.34896191078791483
Bi 13.706519689761404 2.594466917030732 17.039246185399982
Bi 12.471590443537858 0.5850109337759755 13.785062010606524
Bi 11.859283575949886 0.25350647190221115 16.813998679185612
