28
Energy = -102.16534737 eV
Bi 8.612235753269006 15.925587163982012 11.913589076334118
Bi 7.973027152322507 13.614584038916806 15.562380247870685
Bi 7.54382790368438 13.13198824540086 12.56799590184413
Bi 10.471072974078279 16.253454613437093 9.476110914066114
Bi 13.496025525014513 16.896989232412384 13.434118947400446
Bi 11.504159288186466 15.06780378982602 12.051468882928381
Bi 8.725504528599636 10.885053310846086 16.647296414193494
Bi 9.928540868698416 11.350248769380599 11.988297193170073
Bi 8.940328138099453 9.320304196744429 14.047166234285363
Bi 7.857469014970982 9.780216049133927 10.316005726295431
Bi 11.264900988194574 14.088927178150614 7.443214793126831
Bi 10.781571524842837 13.110199880322126 16.619106889231446
Bi 11.467242948964609 11.320000661696445 8.759322560155914
Bi 9.394443719953745 7.186178050690878 9.941681893580267
Bi 9.401543908240912 9.303327821632545 7.741234173195862
Bi 14.039011634049723 12.914062187029916 10.946155666394672
Bi 13.918242669481794 11.123880566693089 6.953186051563598
Bi 13.308989887508263 9.374827504246268 11.11874968469395
Bi 14.441686569713093 14.52291744415163 15.111155136035238
Bi 12.407181768541479 12.377998688209441 14.162040620923717
Bi 14.281649327899371 13.94605566501166 8.063410000472105
Bi 11.888179764745766 6.7758283802158115 11.661363070074705
Bi 15.695383126535626 15.073670684340758 12.389972523605163
Bi 11.53242186373478 7.85073159216781 14.558851073989288
Bi 15.456179833273728 9.313176842825564 8.915686992084163
Bi 16.61109099949652 11.248262123608725 10.975172782002756
Bi 13.771701787893772 9.890394163884846 15.282080705091326
Bi 15.633572841372446 9.054042075997916 12.976197786772277
