24
Energy = -85.9221882 eV
Bi 1.1872832086467815 14.782294107761373 15.808566000400889
Bi 18.27350402570711 14.039673021005186 14.861707241675374
Bi 2.8608299774698955 12.993383378964312 17.635755104292578
Bi 19.27386925444403 18.79722749663673 13.137033968181262
Bi 18.80385591594457 15.88891873904501 12.490511987190919
Bi 2.088348630259852 11.57982896099306 0.35946791992334776
Bi 2.7918484578558904 14.49027201488403 0.38507082127841963
Bi 17.907460447815616 19.310272839020218 15.873028225420406
Bi 16.638884194954645 17.89535282218176 11.842981458595862
Bi 19.83735523563344 13.585055153852933 1.152401600649823
Bi 18.62410846100197 15.938802594291984 17.163319499758476
Bi 15.406408419590251 19.443828457990556 14.21108360802209
Bi 18.48430929589656 2.3611904103904373 15.180045144229373
Bi 16.707364597330923 4.214506255153023 16.809297502192813
Bi 18.113400819571236 13.276155485508342 18.57689243247128
Bi 13.104874993956592 14.59139331183354 19.68193501589937
Bi 15.921788443611797 3.502128776158075 13.997322844445812
Bi 16.033446215569178 15.364370731318036 19.52805489301598
Bi 13.943006214243514 3.0191993379739532 16.281329660355713
Bi 13.157351226735083 17.548569675137195 0.45283671669194553
Bi 13.68131701568677 17.73919215608924 16.07415949312241
Bi 14.500483773689895 15.53391068869496 2.294251161044156
Bi 13.047178810554103 0.42360181923752976 17.601553094767272
Bi 15.423064179487726 18.571583407021084 18.39062185758739
