21
Energy = -76.0378677 eV
Bi 12.703973228534172 10.574244160305954 16.61089819374103
Bi 10.996536259139623 8.090518354731362 15.900880424355606
Bi 10.057734224309423 11.838164994664387 16.143093343355364
Bi 9.093953859626705 9.558041451451809 13.972000371870068
Bi 13.336754092391049 7.807330235156584 14.098283390793322
Bi 13.93654277194266 10.995659148619335 13.790598988033972
Bi 10.793459197164655 14.525418077546519 14.827426969038978
Bi 9.329626364863833 13.414359808423148 12.447330656235255
Bi 13.730276532639076 14.057794620431876 14.482981575324716
Bi 11.230470299524535 10.95805296741785 12.325501900312979
Bi 9.28746597764815 7.314240428290226 11.65677234780162
Bi 9.983121659583285 15.166094000283328 10.050811409149565
Bi 11.161755667245238 8.955636583867458 9.948917220983873
Bi 12.534476116300752 16.614284994846525 10.690990248502903
Bi 12.182317723368042 6.5857927750492795 11.57516414867884
Bi 10.941679600211154 12.734823423696266 8.598783399048543
Bi 14.481948771861864 14.524455655168422 11.570795782732072
Bi 13.668481007574375 16.5162419538891 7.87129158072333
Bi 12.271938821569057 14.327851322555889 6.330314012679859
Bi 13.657052228894427 12.155365344693132 9.85402789367329
Bi 14.989004224230651 13.797425647345067 7.594514483909985
