22
Energy = -78.459539 eV
Bi 17.19108596195905 18.65890559019416 13.809559390218999
Bi 9.047265410644597 11.341698495048746 13.484130990902555
Bi 10.69917175651363 10.649345806100902 11.002152666264058
Bi 9.86586523167085 13.504912400376273 11.387493760783743
Bi 11.775656929212314 9.477831863775792 16.61890060332183
Bi 12.796250723073477 18.487719578423903 13.237598198169794
Bi 13.213308333864422 15.5762706852211 16.895319409194162
Bi 16.68490494561543 18.615798920726228 10.852871569753274
Bi 12.248390173921742 14.532871944364084 12.975450307093235
Bi 14.2640117842656 18.092254185201487 15.822117345765683
Bi 13.503099992071716 10.006630213234837 12.09953559050429
Bi 10.66096273042561 15.603480769652386 15.340634265696362
Bi 18.097768107868138 11.966252543328682 14.989166686553984
Bi 14.133206506584953 10.781275433336928 14.988438987597991
Bi 17.638783356123284 10.876519586610112 12.234881917673315
Bi 15.09415276151012 20.516221728777566 12.596636311943618
Bi 16.82455328801311 9.250585944793878 14.68399053316515
Bi 15.4027670505246 13.661807132554767 14.654611281428208
Bi 15.139981284100559 16.578154024566576 12.642477419101613
Bi 11.045621718308807 8.623001368284871 13.988156189153186
Bi 11.245920651815561 12.544718022157413 15.246326066066398
Bi 15.162202137608464 12.694528287156698 11.766586156277414
