21
Energy = -74.55617538 eV
Bi 7.96311620327242 13.612965772780582 9.612087995722435
Bi 15.257640602974538 16.243959815797393 14.59936678004192
Bi 15.197453589819412 14.052011468485183 11.970553319060745
Bi 12.240566014083763 11.651758449905081 17.55738739036794
Bi 12.3600462487023 12.321575437425246 13.901238354628184
Bi 8.740492099687444 11.8474571840307 11.986708946945456
Bi 8.647867535355317 13.876297390986025 14.24289837534515
Bi 10.548532117752616 12.454684082510994 8.391907100561793
Bi 13.605757474175016 9.684117181659364 13.073105467145497
Bi 17.556700212183536 14.57383846304947 14.251769486315691
Bi 6.891392861611874 11.322714590897585 7.794926662901978
Bi 14.261262656528345 13.710482065370606 16.06494296941847
Bi 9.396958544394797 9.644193670116977 8.168182811821797
Bi 10.75603878593148 14.077342063173809 11.968999920941137
Bi 16.21051142336003 11.332005519805742 12.773787989831472
Bi 14.22423955099279 9.855029003948008 16.209018673707348
Bi 9.152731889561021 11.47381935587475 5.80204126043357
Bi 16.642813030655887 11.879071204522642 15.93928225236106
Bi 16.13155922440959 12.130759517347247 9.619693994701517
Bi 13.34396529833949 11.679092585521317 10.345317489569869
Bi 9.944398622587693 11.374813954481338 15.511665316686138
