25
Energy = -89.67236587 eV
Bi 17.243567145879506 11.757342906257408 10.09251754440106
Bi 13.396609336852725 9.10934832698959 8.584630136220081
Bi 13.467288476170664 11.780042061268293 7.068545025010649
Bi 15.130112678977827 13.536319701364736 8.844483692172792
Bi 15.972398757446353 10.098491451208716 12.297737805835734
Bi 16.72527601301201 12.881523457763695 12.91000583169685
Bi 12.969743500976678 10.323126944515217 11.340294563519576
Bi 10.470230799569242 8.618789142143378 9.073990248630011
Bi 11.64286777540658 7.577995455736793 11.544070825633229
Bi 10.754104065930598 12.930621009256178 7.778520362494167
Bi 10.148931873926312 11.752938570025515 10.580244261906506
Bi 13.823998010535949 13.732527669772393 11.775887198850967
Bi 11.084494622916072 14.58339016842199 10.287497045241343
Bi 8.786186164374584 7.704859090115777 13.432989949756541
Bi 6.806401790426697 9.240602773956228 11.77841603462421
Bi 14.517667008577487 13.373130453599984 15.911229438274889
Bi 12.012480650179796 12.944717614461792 14.309091457763994
Bi 8.557048776223068 10.692325232066128 13.772123472174833
Bi 15.638402084062687 15.998792545431352 14.824386788692886
Bi 13.693962697819765 16.713931442726306 12.652171236718743
Bi 6.264319640302438 8.960450663573942 14.731443460535061
Bi 11.102914941147814 15.810232408494064 13.924140889158489
Bi 13.239531009134314 14.993664475268709 18.214318245845195
Bi 14.340184028704657 17.610461975820122 17.092231375008133
Bi 11.431446635472428 16.911263927600473 16.75495461944366
