27
Energy = -97.40434636 eV
Bi 9.193780522474922 7.133399510137833 13.820794260614202
Bi 7.284745763261869 8.815841017445063 12.147113324477676
Bi 8.238636758480457 9.834414539468769 14.838955956697976
Bi 10.95076203324811 11.022859496274242 13.890452954065875
Bi 8.60705190305218 14.038672405663018 13.7883120721164
Bi 8.830293703306827 11.143964381203629 7.987419875056709
Bi 12.011797783985353 8.193359571455508 13.240444991412561
Bi 10.884374162933732 8.797400314970615 10.483288311930574
Bi 10.236290612318594 16.391821585245125 14.796084071543017
Bi 9.033967927749847 11.130836611405622 11.097006877391019
Bi 10.64994112335004 13.711539107415 15.997172822126924
Bi 14.593832319118045 10.7995105061164 15.149415673997364
Bi 12.889445008644707 12.97690453401322 11.857484367594163
Bi 15.835036720403847 8.310363800926364 13.977341494187817
Bi 13.322981009978502 10.275651559656758 9.354871042373336
Bi 11.562709109778865 10.230777240104157 6.876561407683024
Bi 9.979153060063602 13.933466847758918 8.333061606951253
Bi 10.449519329467007 14.755631977236083 11.332046242989424
Bi 12.97152330457393 17.06432990323714 12.963955362114211
Bi 17.614799303393973 10.586815149259603 14.918060984834133
Bi 13.559671861995309 14.454636377067988 14.48198312031945
Bi 15.925161826048537 10.905553267594845 12.427092195419036
Bi 12.792629763046918 12.880445873029961 7.83042088380888
Bi 13.668172208396589 15.558858234507673 10.334026636057226
Bi 16.139356091006345 17.41867228825661 13.579044338503412
Bi 16.672474130363522 15.716305727210155 11.160960552927833
Bi 16.678952221050086 14.495027734831714 13.913688134297638
