24
Energy = -86.63948243 eV
Bi 17.83800615913467 20.70832179488558 4.848990822741446
Bi 16.92387291526425 20.70075969449807 0.9831673193409776
Bi 20.764140209297643 19.942318674369126 5.119251899349869
Bi 15.565689039608047 22.306804578282087 21.288616288078952
Bi 18.50907684810062 0.17442561321510006 2.6554896100366783
Bi 21.384863717820746 21.562135832955395 2.5555709899202874
Bi 18.829868444886387 18.11869463011602 3.6282260371647483
Bi 21.79472909533655 17.821911200867167 20.548155827410334
Bi 15.026011729390525 19.766782911284366 19.724180115905682
Bi 19.360135504162415 20.624275612813815 21.811877669925142
Bi 20.786410609077073 18.84310497339298 1.3434557730951093
Bi 2.241505569955689 17.353217944273474 19.92777288154409
Bi 1.4439879514691996 19.636030439742168 21.706419235046557
Bi 18.041113076067077 19.070963022778294 19.51102962522175
Bi 16.955560881967465 21.743692205178785 18.57361786679832
Bi 1.8965548214311696 20.117696288933953 18.71334674910228
Bi 21.396159663645534 19.739080433932198 18.140034647505136
Bi 17.83925360184989 19.623663397070192 15.626947098352945
Bi 19.927262521272272 21.751287995671696 15.190039104253673
Bi 22.140581111437065 17.735977902197366 16.0323734741506
Bi 19.37913550946788 17.089551122840593 14.869996371560546
Bi 20.381191545829974 18.492347106009518 12.337720768812407
Bi 22.284799841453736 20.106208690756414 14.108471777544452
Bi 18.319773741372472 20.729450372036045 12.78864550710957
