25
Energy = -89.8448152 eV
Bi 16.373446776276282 11.403182551908639 9.338197364064557
Bi 13.943235120168632 12.983521516487869 8.662334606350935
Bi 14.023133198562464 9.20327191609767 9.366454855372481
Bi 11.404120535788687 15.539423907359442 7.793820768945575
Bi 14.692230960734836 9.189824227957695 12.337478362608838
Bi 16.044129589466674 11.913392193116564 12.354347520275683
Bi 10.669673519583913 7.6260025660068065 7.838067677557935
Bi 11.570552286695348 10.70839333212109 8.197799851923811
Bi 12.669048041335259 6.383476913208682 9.59825970395883
Bi 11.171685942751822 12.145782427246697 12.804155320096761
Bi 14.466362871216067 15.712177044497107 14.475885268969664
Bi 13.698259188816355 13.736523639992852 11.582998009347667
Bi 12.458976048760091 13.923282024661514 15.861796596737948
Bi 9.416051046140067 13.896731769595517 9.379066822252444
Bi 13.503680444499222 16.393243611620665 17.282332326895535
Bi 11.648473175412082 16.676805557626963 14.922977954338512
Bi 8.844875342771626 16.818196087724893 8.78896231602234
Bi 11.041984788692472 16.057930218103074 10.752184862824683
Bi 10.118043827428547 7.397880165741665 10.897342675597008
Bi 10.503552306215925 7.913791392262522 14.4320084893369
Bi 9.804467431865024 10.42389153927549 10.664231995816197
Bi 12.651323364354921 10.068303842307518 14.39509665075788
Bi 7.841098193815798 9.292227330531858 13.71657852484605
Bi 8.857092147388679 9.380073862955111 16.55354608357907
Bi 8.752607575250483 11.923171803534144 14.898003200894646
