23
Energy = -83.6932558 eV
Bi 14.71921066826994 12.276807070221412 7.768406133591275
Bi 15.400501730989989 14.957668478030026 8.991769452530068
Bi 15.122671281645687 14.627845414477898 12.010445865061477
Bi 13.438774676577406 10.929637544044681 10.202141011502558
Bi 12.682006101364072 14.596644909543285 7.715936316933419
Bi 14.700827996685561 8.203014394745168 9.628948408248595
Bi 15.627877005537158 11.647570634603003 12.121916975814703
Bi 12.129887487145272 15.025539145273632 12.142885139653394
Bi 10.94077654750401 13.344743614781672 9.893991154941423
Bi 11.608160971144768 13.202013181803641 14.515209112722067
Bi 14.639505808934732 7.010108974322711 12.426943994407145
Bi 13.940613748467758 11.200513596022283 14.589311858334186
Bi 12.397618746757493 6.368056951849514 10.467695776132894
Bi 8.648911956870997 15.376993991939726 10.053699218451326
Bi 7.996617495207223 10.815019887950196 9.979254583202545
Bi 10.849845381027155 8.85107903677708 11.417670697104578
Bi 12.520399131747585 8.563785805866733 13.971415661173094
Bi 9.381263421636428 11.863507041634556 12.84693868060182
Bi 6.367614614548046 13.368905237125295 10.270005932070552
Bi 7.696717565129737 14.41079075462049 12.798462745610099
Bi 6.313138869708076 9.228673281397784 11.964824922953937
Bi 8.604581120406847 7.534880708931231 13.052248301592984
Bi 7.686947917954615 10.009971674623454 14.574966308315645
