25
Energy = -90.76591405 eV
Bi 10.07842510016719 10.85945252334829 7.194974774029702
Bi 7.08368478393672 14.860351066038232 14.96339869309495
Bi 10.150687531615327 10.496874296784327 10.220389669604952
Bi 9.119208328581458 14.813490401653121 8.436554231764331
Bi 12.538277819916404 12.392353143126073 10.197947362997922
Bi 14.290857654706892 10.676698939755525 8.321360992579285
Bi 16.049786578018157 9.025543016866902 16.481044646669687
Bi 9.806961982979175 14.486742887892401 11.366192287962493
Bi 14.59278889016809 7.404310098399919 12.297232357637046
Bi 10.106733182415669 17.1852452487294 12.813432787705361
Bi 17.531293339590498 10.658031486656592 14.428794003308221
Bi 12.685095308241902 12.179988429187658 16.903246943614374
Bi 13.089388934218114 9.924583026741493 12.892206377304538
Bi 13.10606030455045 9.339101979668698 15.85532877793276
Bi 17.1119604066771 7.7093133468014035 13.958151186998483
Bi 11.698010977765936 13.451770719045259 7.431846055928821
Bi 6.820026651574774 14.399985236794823 11.975111714151778
Bi 7.867228603289272 12.085040597881243 8.914168505596889
Bi 11.167558850468046 12.883800392731468 14.344583351828048
Bi 15.355620669666495 11.913468505870435 12.751569472813044
Bi 15.700765304186547 8.283585876339771 9.587149450777533
Bi 7.041934289026144 17.242900124232314 13.0567479049549
Bi 13.966669956557451 13.923334756331576 14.816912983283148
Bi 16.798464000522237 11.039925109374682 9.958673228552565
Bi 10.045244528364922 15.523354606596374 15.385892771048976
