21
Energy = -73.88539889 eV
Bi 14.161735219325527 16.44972954586322 11.119733066363528
Bi 16.87757755111003 11.479478974374864 14.956851795937627
Bi 13.271859400461842 9.106495966151305 15.220857971262797
Bi 14.047038580128367 17.444104719357227 13.948286514585917
Bi 17.27931902416555 8.935496292651827 13.409512871016844
Bi 12.157406727836191 15.185014131358253 13.077972231215387
Bi 9.423424818879074 16.14129688104393 12.142784357600489
Bi 8.524024579782361 13.566466977177367 8.170246199358996
Bi 8.422637782002486 13.376476693737802 13.010082729822807
Bi 18.05157522330256 14.359805599315571 13.734067942926382
Bi 10.847023988883707 11.624127837510878 13.577079774856603
Bi 15.630944862311669 13.814459267376328 12.04877313528858
Bi 10.902732448866598 12.083323817755245 7.292549163676346
Bi 15.103725312178497 10.164976877998697 17.379312517781813
Bi 10.598797317508264 15.468081300541215 9.431717260837807
Bi 9.309550832444673 11.635849329148295 10.636990795627122
Bi 13.020881443932007 12.031944340642069 16.172467054981546
Bi 12.04431598202291 12.860893092034278 10.056355862448214
Bi 15.302105429899136 14.772806970545725 14.93240927977514
Bi 10.583853268158732 10.245626431914022 16.3289399228625
Bi 14.955392743003118 10.533906928243706 12.723442210362279
