25
Energy = -89.09984376 eV
Bi 15.737708869966157 7.635077321531512 8.876215890794763
Bi 11.988725558031131 12.203252975934008 14.870982859191871
Bi 11.43977597457558 10.077337009495725 16.92276161986989
Bi 17.242248353978102 9.853872963257944 10.248003657585247
Bi 13.40207537489721 8.112639166376937 10.849276885529397
Bi 12.161007774809404 9.301067019604393 14.147198723312997
Bi 15.111199386748726 10.108019088614476 12.469000426663175
Bi 15.863049889780887 14.028655772554371 13.404178727810368
Bi 13.483366133945925 15.46390388797602 11.207277212456399
Bi 15.96632641762833 16.858961981628795 12.47111075928003
Bi 15.430730891759618 10.497791508473602 7.84183398694072
Bi 14.478797979682161 12.518468102139694 10.675893043366866
Bi 12.484164839167882 9.98091445763788 8.623128025592822
Bi 8.830264876680513 9.225057525746728 14.662173786890373
Bi 13.955802763075006 15.986241121208923 14.569799724897507
Bi 10.741011864952036 15.412736669921987 13.30844346227808
Bi 9.643307160976825 8.524553900129822 11.762615001409365
Bi 11.769793499587509 14.618809358087189 8.59497434993519
Bi 11.434456496433686 12.244056808909638 10.458305954149491
Bi 8.977286771396914 12.80929907259568 13.349808950313383
Bi 10.162208872759937 16.443518931571592 10.431976512696433
Bi 7.476411668739304 6.918600413475873 13.152024838805094
Bi 7.751592054811973 14.665472665029265 11.122285583232784
Bi 7.633603138594536 15.425239190184625 14.029229588164544
Bi 6.910979150440568 9.72039480301783 12.20805641179787
