36
Energy = -131.15306554 eV
Bi 9.837275462279862 9.271627973359442 17.5414956264004
Bi 7.5306122850512605 11.0733232297574 16.720440621881167
Bi 13.815218440001777 6.956112620350293 12.901225377391595
Bi 12.89826385493968 7.001387112287883 9.996218561382909
Bi 9.868785466312119 9.364443979600576 12.63377305317462
Bi 9.205580574277151 11.825672739165942 14.297440162807929
Bi 13.082725286918341 10.856890552676422 15.261859895133625
Bi 11.913342904097828 11.481392129958131 11.793975112711076
Bi 8.492755797839528 13.60080087151163 18.172637923299078
Bi 11.228641606886738 13.341495145476621 17.00062828814505
Bi 7.263986526233632 12.607959480909576 12.004046551463594
Bi 8.496468385116088 15.33827228777415 11.491506617813268
Bi 9.623451075945027 12.841905748667234 10.116175805770105
Bi 16.44081416084811 13.228966530878338 13.674970381430693
Bi 10.275613614771945 15.180490501656118 13.974020134124151
Bi 8.844524985446643 16.246613354291554 16.519069053295954
Bi 13.036313617911901 13.594113325869134 9.014338852481059
Bi 12.788058042947558 16.581989227859438 9.663082002534676
Bi 15.313126341942626 17.067592922720152 7.998358897358617
Bi 13.61198935628489 14.451925750277706 13.978091383672702
Bi 12.28998736861618 10.794281959224717 18.309243227623654
Bi 12.142737695991766 9.933081539884896 9.113471134541145
Bi 14.225165478774066 16.976191455795625 12.299081602846867
Bi 11.615690274164299 8.208538359382318 14.862743378077298
Bi 14.884896652460245 9.558030333843703 11.919011294196299
Bi 15.64940623852197 13.270007961053185 10.675831474602912
Bi 16.060185334398863 10.391134470148057 14.657625972647317
Bi 11.745465889047292 17.90946388379072 13.857610245101647
Bi 11.468764078424499 16.211714692027318 18.076309361298925
Bi 14.627557432163384 14.458153377317375 6.538942070440798
Bi 15.818724334636826 7.735088910393177 9.532565485545122
Bi 17.395696790753092 15.548351153227358 9.651683000754772
Bi 14.8752998536838 9.966287214155296 7.646274574163156
Bi 13.616254297449254 16.86992998377225 15.98843517358134
Bi 17.254094071291487 11.30085530029162 8.987979215475494
Bi 17.552184428155932 13.759294938113916 7.178977828893371
