35
Energy = -127.1262965 eV
Bi 16.43552795578883 6.526891894680931 14.52907732526489
Bi 17.88153820596215 13.496383186427641 10.632540585248456
Bi 17.883550132932772 16.097412267361257 12.175807341815192
Bi 16.010450024672853 13.798708157462398 13.056961931180036
Bi 15.290386749880929 10.715821050509717 15.761240622672661
Bi 17.9767677783833 8.449312113169942 12.764331124072756
Bi 14.083264242768172 16.183536753227077 12.437202690962252
Bi 16.062126640238677 14.724683056072642 8.523334924598963
Bi 13.915265224205887 7.930259347584975 15.667288065032357
Bi 12.331175631507104 16.746366490633758 15.610869978258263
Bi 15.81578946793737 17.291091208947638 10.202861463995472
Bi 13.257964948766208 13.028730474055616 15.305523900583246
Bi 13.512536364892133 11.717719006251476 18.00276921526496
Bi 9.757350826436205 17.761645141348644 16.937071603351033
Bi 16.021111708666492 6.5202474602898 11.529062968686281
Bi 9.813642299102208 15.202670844644473 14.950444400638629
Bi 12.228926629848157 19.115940569731002 13.678213723454133
Bi 11.900303454795514 7.36489128139047 13.43703040907807
Bi 9.006792984128609 7.968391309109423 14.48591466277729
Bi 12.279091978118664 16.022974578928558 9.926702861876704
Bi 15.184799295379602 9.409889316700777 11.983827007418704
Bi 14.103824366413257 12.959111826411508 10.01107544206178
Bi 9.267690450828201 19.54214988729058 14.529116376080117
Bi 15.299181967608549 10.29486441431141 9.057844806876572
Bi 8.450238085982248 17.0451822238825 12.937892697455654
Bi 11.618900806058097 10.490993652623274 15.827393770429973
Bi 10.64368769566721 18.24677361505583 11.235440567857811
Bi 12.30243036215677 9.586235939126578 9.01697057908681
Bi 11.706637953071429 10.079924834500874 12.008943759121339
Bi 9.865696056767828 14.096088441948 9.794632813642659
Bi 8.579039077695601 10.718964658417717 15.83008990544334
Bi 11.771233052134406 12.44490130193888 8.0544330883711
Bi 8.085720124464657 12.05430973472069 13.104036612834806
Bi 10.835841930170043 13.250991170061717 12.534773906765395
Bi 8.74040124575046 9.345115119586803 11.758702723069511
