35
Energy = -127.77892421 eV
Bi 17.68896232221369 15.370604653921793 10.409168191588039
Bi 18.535420755296396 11.432988371853464 12.309981713053249
Bi 17.356223224198473 14.094967418872306 13.134566605401796
Bi 17.631196731838042 10.826960214834953 9.443633101561895
Bi 16.349231915145143 13.388607685949015 8.517444184126601
Bi 15.395112432020483 17.408444753584217 10.602862985678076
Bi 16.710192509259524 9.321485531149616 13.527131541835525
Bi 15.979729490948207 10.352447493785034 16.285220241950487
Bi 14.360503414509825 16.94851238635417 13.41224149251884
Bi 15.298704748379 13.34676177115667 16.223204463118616
Bi 14.887550200040348 9.251348010881319 9.588686832860404
Bi 14.316113696403951 13.84439530653762 13.327029263551033
Bi 13.465500717142458 16.118869810666183 8.616309959864195
Bi 13.676130031917692 13.38266197884134 9.96024690973899
Bi 14.343429028067769 10.66341257249086 12.269836102321738
Bi 13.573591912701373 8.47591733838477 16.20798713303371
Bi 12.991565020680852 11.062823130472417 8.0302244370989
Bi 11.0356639733707 14.00351836707706 15.072286576508688
Bi 11.633875394032685 10.819449407791506 16.253865696515852
Bi 12.61352929320524 13.333609246986953 17.662175148378747
Bi 12.597389562171774 7.155231867342267 10.933269361654693
Bi 10.977645267490876 8.940529509959157 9.069185553822514
Bi 12.147205960796354 8.873275407794054 13.419295470594848
Bi 11.614234091628468 18.011874626568094 12.712615043275957
Bi 10.830382877474905 16.88496785167651 9.93826972922314
Bi 10.307219922255298 14.203185134067063 11.227211989244552
Bi 9.736289208809675 16.76645913896364 14.839158917881589
Bi 9.371096735704997 11.367390210811648 13.186590286105448
Bi 9.163030345450684 10.528202228426956 17.957386669042084
Bi 8.445337959209954 13.23276623318918 16.725523947031984
Bi 8.510076970047441 9.89279052622571 10.612083148095985
Bi 8.07210700485397 15.810004549645267 12.45183990801893
Bi 7.418893781587081 10.672940458123788 15.454446873046914
Bi 7.959130245240742 12.773173330711163 9.737377164602785
Bi 6.809714739652609 12.989636012628932 12.580999687675098
