39
Energy = -140.90958037 eV
Bi 15.948129635518722 18.7885300205266 11.651395082754023
Bi 12.20143338121026 14.92885238196943 16.68559629749061
Bi 18.19097653933804 16.582430704616304 13.012310020301047
Bi 11.707902098994197 17.904355916333383 13.644952052166575
Bi 15.750146360968087 15.050329305339975 16.918937815829615
Bi 15.684831611523366 14.882137977953406 13.887939622522335
Bi 17.75632506879365 17.016542249041567 9.754265116049915
Bi 7.918349237074553 16.595059927344025 11.513513617978715
Bi 10.28335614956893 12.85316933489488 17.68200092386177
Bi 11.354370042850283 14.841214645514093 13.740472422206752
Bi 18.642706999982966 14.371495768541985 10.893426645037948
Bi 13.914729541364897 11.928194467935048 14.132671490336575
Bi 9.81545700448552 11.565069986915761 14.78756044897064
Bi 16.929477458084204 12.209721736069277 16.947605821777962
Bi 8.389633436944179 15.33791470415487 14.259359288798148
Bi 14.403500071838454 8.516350929352729 17.539167355493596
Bi 13.07013965772453 11.522818023433182 17.301923001003853
Bi 11.780095552020137 18.462739133685815 10.650900483207602
Bi 11.109066573568198 9.292065406937656 16.513586457950208
Bi 7.348704865621085 9.862834306989683 13.852376291458086
Bi 14.659114366209515 17.90932115603045 14.248359718842421
Bi 19.574686603249976 13.664657948722647 17.733785248213426
Bi 13.086670581243641 7.425265480449971 14.980257215764675
Bi 11.93253267079286 9.739604143377491 12.88235375655953
Bi 7.219076906059364 13.674035896884906 12.011473356834976
Bi 15.541258998615035 9.363071440478528 14.919844470751897
Bi 13.822845697857225 14.568266397649854 11.017892062586156
Bi 8.026233196832456 9.975169581154143 10.868610629487044
Bi 18.638910268437822 16.331603531389156 16.705808603392097
Bi 14.478877874089335 17.159716354734822 9.520485069810928
Bi 10.228431234624358 16.15740029556267 9.634015878567563
Bi 17.83755305908827 12.538127144117345 14.017486457658288
Bi 9.31792634014815 7.934583686807428 12.661295779110343
Bi 11.833074672809701 13.200210865654146 9.077767237994616
Bi 16.12925805628865 13.08329567178384 9.691027585694577
Bi 12.954841117294638 10.37170762431214 9.97067338245903
Bi 20.16868354135175 14.422001680662087 14.847499062939312
Bi 9.950723600863624 12.33558423655456 11.444681033507814
Bi 15.529424029222806 10.764004038677243 11.526177297183542
