32
Energy = -115.72591791 eV
Bi 10.23219536509307 9.681375082949994 17.344020660494014
Bi 10.564750395288849 7.646899843206059 13.806448593003928
Bi 14.915682740294923 10.403623723348314 13.438158463231138
Bi 13.58063242193309 7.814185630331319 14.382674462660205
Bi 14.091479613291304 7.108208045510348 11.472567041191548
Bi 16.093836371105773 12.562911462865621 15.315135894254338
Bi 11.24464002228344 9.924287265461958 8.128866690965799
Bi 12.153406482536493 11.474668113505787 15.775587018886128
Bi 16.91416208367453 11.819584641451137 10.685671486333574
Bi 9.803399096103494 12.671297565276518 17.465409069854907
Bi 9.507480139453646 10.584996287626675 14.51826328101197
Bi 17.70983589683782 13.744312782322323 12.98178268033216
Bi 14.153102517123278 9.617443782404576 9.365939229502944
Bi 10.901612913083602 10.31948839722176 11.490599912429644
Bi 13.778506228024499 14.223563079918655 14.139127665078282
Bi 11.134503262103147 7.263717831017481 10.80441863285811
Bi 10.128698241603983 15.460459837687278 15.095470123891905
Bi 8.007947106076156 10.995127231840062 10.697815609717567
Bi 15.407204999544572 15.3889999680601 11.764355168058296
Bi 13.87629867340975 12.204291042300765 10.993001824585999
Bi 10.83299367206171 14.037164900022995 12.440883224428593
Bi 14.11599281706358 17.244549498524925 13.830879712703975
Bi 13.02055853705523 11.965305835860436 6.48778926547993
Bi 7.658709777225195 13.773489585069658 15.500621060427097
Bi 10.164221831596025 12.584497927850819 9.147547079788186
Bi 15.824555944838838 10.917916840140226 6.98434741086194
Bi 6.826022639324906 13.134855677389382 12.564485502543533
Bi 16.375273007152344 13.62567991937951 8.230124313566604
Bi 11.94804533889596 16.86893225342038 11.680492975142156
Bi 9.202492846090138 17.470777540468738 12.988967042616853
Bi 13.32052744178957 14.200900050649226 8.538300561169216
Bi 8.374131509381781 15.22854767010391 11.027397985231174
