37
Energy = -131.65409246 eV
Bi 18.18602413553112 2.0309751583208944 3.580885684344365
Bi 13.730741620180572 19.260901756523207 2.107602582045022
Bi 0.43776089219985304 17.490312514735212 20.341576717027618
Bi 3.8690211040830955 15.607812758757865 0.1394060958598438
Bi 3.1557832226543825 20.468660066075703 0.13586826017148312
Bi 1.6894983778215868 20.253778891008178 4.716897572519609
Bi 21.523042830545627 5.149959244376252 17.3606562227237
Bi 1.5110237807752234 2.0123397546161215 15.299818483262799
Bi 17.463939698472693 21.627208646888644 5.0232293568287965
Bi 19.292200129857903 2.927611917986718 13.6711781337805
Bi 21.216315409168832 3.8586564749741763 20.77967202076195
Bi 3.902989034260785 0.1834382069262496 4.569215418362067
Bi 5.068605855791387 18.28481462161481 21.340774952282423
Bi 3.3851127875837443 18.664010879706577 2.5926791148127695
Bi 21.8247610884778 1.4911107790419302 12.935539071149083
Bi 21.776862515413715 2.1238877528683395 17.744470487887064
Bi 1.9742986058615848 4.05817051693442 20.298782778633417
Bi 15.057365673355298 21.886031071177833 1.4680971296596719
Bi 21.556474109716792 4.533622773398727 12.530038160284555
Bi 1.3613292096508498 1.8730022794419157 4.340687017780399
Bi 16.52823165851547 18.47777190563297 0.9630076994835322
Bi 1.169174515178611 4.432347980826406 2.6590899613983003
Bi 20.32644904002167 0.578005493906669 5.1761191837116485
Bi 5.313673322630276 21.02201832350252 2.1758051032459607
Bi 18.106026040152635 21.40692618220275 2.111940951726133
Bi 19.54705775165849 18.154553352609692 21.552841597502457
Bi 0.2775302755094502 18.730566548483846 1.0402379347222765
Bi 3.294155231410715 3.981200828196122 0.6521518283062118
Bi 20.708713578693644 3.7051711171124038 1.4541019107385262
Bi 22.040659614312727 21.877552855687753 2.7944852491342758
Bi 18.329752221258683 15.82516685396411 0.8368476511994157
Bi 1.2320908672654183 4.989839423304651 14.919111601284163
Bi 0.7843515845428455 15.75776328187814 0.5993221797371749
Bi 19.22574219161351 3.3293880581589566 16.664815096425208
Bi 19.530063036012518 18.05818470473547 2.4522338768884118
Bi 14.309094037995543 19.956826117912954 21.435947302479022
Bi 3.4176457308967305 16.58237392002032 19.500887863320578
