39
Energy = -141.79350311 eV
Bi 17.102817086780128 11.912333495125143 16.863269396646416
Bi 14.615746125872588 11.701550165017908 18.60082022918567
Bi 16.120252786838105 14.318408862920833 18.418449030806993
Bi 11.8623355608352 7.825590188779526 14.315934270700525
Bi 17.793379181317924 10.78396244166368 12.087536263171518
Bi 14.82258327582139 8.512709351971077 14.554111101066127
Bi 15.534893046089131 12.998915115263701 14.405121938201608
Bi 12.335562397931751 14.56843931153049 17.398194778668906
Bi 9.294676899388701 11.809873238860874 17.147428617113206
Bi 13.515837899401724 11.116783728838412 15.67662973172089
Bi 18.463984668332106 10.261745815758237 9.150946919913661
Bi 11.664124463914627 7.9963995214765635 11.296452684244871
Bi 8.595321659671322 10.065809817600194 13.683010170314237
Bi 15.523691552587984 8.856200721926525 11.592239532918857
Bi 14.790158185967096 15.579015686043128 15.92471431121864
Bi 11.508860416800434 10.588573806725181 12.94427182256885
Bi 16.29732441071577 13.307693459183453 10.946459514850918
Bi 13.772958566661147 10.996698196044226 10.128990855313317
Bi 7.951538335422255 14.465153772846339 17.88022404215974
Bi 10.806223170638328 13.44584705480318 15.018762871902624
Bi 12.684500523179882 14.199762524075725 11.977749730359013
Bi 15.78019829273982 10.74255374594118 7.77204337456116
Bi 17.017176606048988 16.169630890603976 11.846405643200741
Bi 17.67217639846436 13.071779109482145 8.209182923364317
Bi 13.601320288200531 14.518069567496646 9.028900825834437
Bi 6.498038089180926 12.453336270372427 16.121480335983055
Bi 8.965021736949787 10.194721497648409 8.71572787123838
Bi 6.942622332122877 12.57117451829408 13.093171278396829
Bi 14.11151110525465 16.890101189302303 12.607529648212672
Bi 9.877934405979074 16.112805773379932 16.182191769508616
Bi 8.617926155763882 8.30805970600069 11.156783661866546
Bi 16.219175626720695 16.524717264192958 8.958113330582815
Bi 11.878677775523375 10.09513162913164 7.770222233421559
Bi 11.120436740379448 13.028271442506572 7.442923094045562
Bi 10.49392094843036 16.38643149819056 11.65561462502353
Bi 13.444343194092115 17.557608634218266 9.662223078642137
Bi 7.952165112641628 15.442876280250813 13.001847920580882
Bi 9.882243904279552 12.712769440773263 10.181239481024603
Bi 8.221828485512644 15.261982678211282 9.936568503916503
