37
Energy = -133.8637379 eV
Bi 11.863925821044136 18.789570637368435 17.31937167275323
Bi 14.52503596538485 19.403580932638494 11.921049919758632
Bi 11.364451221563842 20.402781755639474 14.778024846668051
Bi 10.676973622093717 16.482999380748858 15.574747017750035
Bi 11.178317681701612 16.32066085175158 9.481715272166156
Bi 15.388438045983738 15.379971228210984 17.348867405433268
Bi 14.802788106902508 18.801811622226843 16.62506442235461
Bi 11.86211965502523 18.13938949573153 12.671212389813569
Bi 14.849814149867786 17.14346578805128 13.989041972277235
Bi 13.889968622706846 15.877354395245915 10.797826601230339
Bi 13.07963495184137 14.611876791400812 15.360972930300347
Bi 8.524132326850728 13.77946096682514 14.736367186756649
Bi 9.411250255528564 14.453391713737094 17.55807503862358
Bi 10.301223518724788 13.431600611640265 8.811810471298902
Bi 9.42125479640154 14.79393076294553 11.472547166158476
Bi 12.113920066970785 13.574996266791207 12.309228931159103
Bi 14.30914136509693 13.874421264720246 8.477208840820483
Bi 12.15554154625252 13.086955833118358 17.84852609399152
Bi 16.833891869094856 13.867987074698826 11.702869797123478
Bi 10.138908872883565 11.462152331840386 13.857824047006579
Bi 17.532951489109347 15.653359989852662 15.2290295830967
Bi 12.60556261094833 11.707039818519556 9.825882637556797
Bi 10.698353366242998 10.572839114847868 16.660718463064974
Bi 17.32890074669244 13.30538356161256 8.725704135111377
Bi 13.862128916005293 10.114534339680047 16.4079529200025
Bi 19.58863863609815 12.807734565476851 12.591440339259513
Bi 15.636027661842537 12.267864859200857 17.933455912710823
Bi 11.201190789248926 7.5945594087688795 15.475100305827082
Bi 14.183516416402533 10.834587404736506 13.427594437761945
Bi 16.58769887380911 12.743758441118343 15.073980453882394
Bi 12.964268784789276 7.940948386058989 13.055209097072028
Bi 16.25702990805817 11.098550291589488 10.453763504045437
Bi 16.624953835114795 8.964494746647906 13.753175156517143
Bi 14.121826517478388 6.986322807826628 15.695965766459096
Bi 18.94363376759746 10.766953623109343 14.81978081501745
Bi 18.86519030895827 9.93592271157699 11.700648135716387
Bi 14.327448709143928 21.046840023504963 14.54830011291413
