31
Energy = -111.39800464 eV
Bi 14.847372329379507 11.474742196475423 19.465032285201932
Bi 11.747344201373567 11.50925873660837 19.169541664187385
Bi 14.825327160757206 9.361396877257237 17.359059016554994
Bi 14.210745817472537 12.936478665810117 16.822356791366122
Bi 17.525552591073925 9.963863693502205 16.14023408546336
Bi 14.524339039956654 17.836772014753766 16.90555057272404
Bi 10.80881182226532 14.419185839828199 18.573279793490954
Bi 11.971215886901645 10.914148006923625 16.163196604857763
Bi 17.028574524405688 12.872454558026094 15.519545944301658
Bi 14.2077430953939 10.364198706969965 13.217871813595602
Bi 16.63901317966344 8.52652447209001 13.415593993488715
Bi 16.828909519788212 16.554050190439458 15.407382397513377
Bi 12.533041678610191 15.575002616146092 16.310072027439237
Bi 9.571670729061108 12.946517599594332 16.241185194071686
Bi 16.970330406605058 11.569341549692666 12.663826702558374
Bi 9.807915165728874 12.745779088847966 11.188653276056645
Bi 12.289482810653695 18.890384424853245 15.159934767049663
Bi 13.43600418872363 13.697023656772505 13.036853282532816
Bi 10.497390862563604 14.558413376078597 13.65577730063373
Bi 13.980094629321497 9.75339550985808 10.158785066406082
Bi 16.13606970156613 15.20891510526449 12.761907975114633
Bi 16.81029445643389 8.640965648589598 10.117011145060044
Bi 12.699373517155893 17.58699639706373 12.377575479522392
Bi 16.352903274921328 11.462224565811658 9.454658802565758
Bi 12.547756001593886 13.515427768522073 10.119163155785257
Bi 9.716038983252698 17.18723867653751 12.166947363141848
Bi 18.105152676426552 18.65092291404492 13.526703045115415
Bi 10.115720511069307 15.37786230437395 9.732585024491781
Bi 13.1271705601688 20.5767187581313 12.795457448025543
Bi 16.074286636977067 20.359997028021183 12.112686114579367
Bi 16.759695166519123 17.659140178894706 10.956912992887256
