31
Energy = -112.98917632 eV
Bi 12.551180434108362 17.133133203728754 17.07384340358368
Bi 17.355355191916605 15.109699705031309 13.693536862636888
Bi 16.10100482971191 12.620383739716905 14.928760744855959
Bi 13.526054482776747 14.406208837228267 15.758016637171153
Bi 18.520470624014603 14.12622804524283 11.003709477267055
Bi 11.046510764005792 17.444078759853507 14.479045493689744
Bi 14.648730624389135 15.41062087968098 12.219196601186344
Bi 12.712499666078603 10.225575758526862 16.006484391938443
Bi 9.61980899237988 16.460234417931776 16.99123493451062
Bi 16.581449441713445 16.237388134697202 10.039705073870618
Bi 14.567245687860654 12.322603567513921 12.312899533177509
Bi 11.823475054759456 12.656253256800378 17.608407785357976
Bi 11.377937796663305 14.47570104030014 13.540819848430274
Bi 16.907127756999525 11.618713368415758 10.526280577433253
Bi 9.519085638632415 13.574993999724047 15.85798195955027
Bi 15.274614524758748 15.131202269210451 7.535368065337447
Bi 15.248856163301529 12.156308727046946 8.026951009903822
Bi 10.392961497154213 8.268854766356327 16.470687865527417
Bi 11.455618803281103 10.860424187650645 13.267581005448527
Bi 13.019365184250171 13.881681967720036 9.170494166173809
Bi 12.777420644358417 8.249232855580019 12.37744855777398
Bi 8.833471445396682 9.981653328360334 14.521374806844708
Bi 11.92066873337661 6.3891910833906325 14.642882490277069
Bi 9.578202213613627 12.381654615546061 10.626005247744002
Bi 11.179241542767612 10.10647604547929 9.353943251365452
Bi 10.458017727812475 6.364228442157124 11.999238493902292
Bi 11.399136286723518 13.804938657019937 6.5979818493350715
Bi 7.957558982295742 7.992180071513961 12.439544243496305
Bi 8.665672835454327 13.304661734647413 7.818292547619222
Bi 8.22528186910166 9.741914174900549 9.91747442534622
Bi 10.234683475731424 11.006267703303722 6.572309908955842
