36
Energy = -130.46787919 eV
Bi 17.33110066793519 4.008228122673411 1.7213134965452364
Bi 21.632583943770502 17.828645749299053 1.944154004152569
Bi 1.205825295742284 3.3745728619379265 21.322762152652402
Bi 19.14199553031469 16.454580966929647 1.033704352847623
Bi 22.7350841816104 8.372920749039913 20.283350942830157
Bi 17.25197617654281 5.49310912679008 22.633211897238212
Bi 22.14934453749322 9.115250385158825 23.168331639644396
Bi 18.74794130120396 0.23853231231318242 18.549452789125723
Bi 17.536986621821466 7.035974235262384 1.6802570698713226
Bi 20.819722989402894 11.83895328046014 22.426869908939818
Bi 0.266091561818986 5.1076404348007864 0.08718480967420975
Bi 21.71451437840041 16.10975848386555 22.97610327655634
Bi 20.47707321338313 3.1711773480641168 0.9241007523078478
Bi 1.2221374791159456 9.98063683883744 21.828523131023786
Bi 22.804797347929213 13.410075854091641 0.5044154765336617
Bi 21.533711955117454 1.4946977647674744 18.389983317867536
Bi 19.557108365306515 19.392265582418233 0.34665312371565876
Bi 22.081545243006765 16.51924251094565 18.726830933056025
Bi 21.01258072954839 5.3079906838634106 22.44475686414316
Bi 20.51858985065234 6.4723263956689445 1.6319267387251823
Bi 18.30165274735016 2.459948939898986 20.603126701307986
Bi 23.323175851397373 20.22324684276466 22.387530396656032
Bi 1.4038009316102733 6.489528623413453 21.179392145575967
Bi 0.7414076162245921 22.869291472026394 20.9845872734537
Bi 20.77633244673473 19.19896599370237 21.08756666056616
Bi 22.235247525502825 1.6747308323639924 21.444920551031842
Bi 14.852515727618943 3.858812181508854 23.49212751599478
Bi 18.797145207499746 0.8437503006871471 23.09838495557896
Bi 0.3033861126739077 18.810969510523584 17.769545841228794
Bi 1.8092737040325302 19.139476384219115 20.41267599144714
Bi 20.493568525135633 22.25356078434913 20.585950828330077
Bi 0.9227940607113296 16.12370105686875 20.550432044053537
Bi 22.698988084589768 22.188862396320687 18.503271521383077
Bi 23.47819976189227 12.738751180462318 21.194152457493637
Bi 15.953383316975254 1.3057228689577367 22.142660735126135
Bi 1.1956877510580957 15.864848582576048 17.51019823774986
