32
Energy = -115.9034493 eV
Bi 8.49620820900759 7.301350957609871 18.101835520381528
Bi 14.682642921383176 11.153101114966113 7.55457733505426
Bi 17.444222816088256 12.481868024314194 7.4995558586015845
Bi 12.472065778828707 10.293305118100077 13.262156907517323
Bi 9.921963952828706 11.024159001883259 9.271957721543158
Bi 12.259713298957209 17.447765540516667 7.977354459981823
Bi 8.817596628793412 8.179951802960273 15.185557023138545
Bi 11.103059993008639 13.552174294624903 10.518277000319776
Bi 11.519928269720287 11.730802192239148 15.80756474034109
Bi 16.437811596726995 10.170364384515112 11.565951837137225
Bi 14.090269669954987 15.028291542968837 7.964412189502366
Bi 15.547290840257778 11.6905360848274 14.800865233340978
Bi 10.373153321754778 14.936732059630799 14.41439094183774
Bi 8.535040631062841 12.633875402709798 13.491753534884829
Bi 14.425850332931647 12.240485777988962 10.471297180732416
Bi 16.873741487160753 14.097134472110845 10.042530718504603
Bi 17.131277416078888 9.674721473452479 8.604137237437651
Bi 8.503987638917268 16.38560839956425 10.676570832850096
Bi 13.850477224217848 13.739184804701779 16.23011027591729
Bi 7.595120292208149 15.821529535228496 13.491881325035873
Bi 12.854320628391447 9.408628862730293 17.26341808718434
Bi 11.10082478081331 14.600768993057848 7.676102387883036
Bi 8.03429127890223 13.2666499023387 10.559091803529116
Bi 14.698074446366606 14.218924761559697 13.31126824198756
Bi 17.60362019764818 13.854084886164586 14.277582839023308
Bi 11.101841107498611 16.853239587900934 12.154636333662918
Bi 10.506836532207963 9.26634417330426 19.187248802845403
Bi 11.822015900209601 7.767308620685025 14.954827674091016
Bi 13.71843080207115 16.785397838304068 10.535526034695879
Bi 9.707034187718492 9.943731860114163 12.051639513315953
Bi 18.59380436488873 12.310046833660367 11.80083271901654
Bi 8.255106349380013 10.219554591250288 17.37271058468781
