36
Energy = -131.13947304 eV
Bi 18.64898732031228 12.043625706348298 13.92453601428796
Bi 16.412890919383642 11.858849612465967 15.981675988484486
Bi 18.079123656588944 9.553254401879988 12.259978755420878
Bi 17.231166018069445 14.385395886830995 12.503574421048162
Bi 13.66754410707813 9.62662232925297 17.0364555168542
Bi 16.27634934365187 14.911913671143914 15.3692713988214
Bi 15.387993449056093 8.529862552767456 13.22709487500158
Bi 17.338664980780152 11.368968458361556 9.961526876621557
Bi 14.03951121082094 11.046172812606933 14.272763609311188
Bi 12.207957963804121 11.859397650151951 18.44839850491144
Bi 14.970748778658066 12.745275709162255 11.256057350951586
Bi 14.35171922503153 17.3420132458462 14.630627345388689
Bi 13.206486467152454 14.177537273169069 16.567870181868297
Bi 12.540552990262155 17.112334429228966 17.012545953632703
Bi 15.373629246971406 14.318249984173418 8.633504343059842
Bi 15.690765742025679 9.4561940972671 8.321881130324417
Bi 14.239389429358848 7.8225738410754255 10.496864168843079
Bi 10.621270564976651 9.586842911346054 17.22917092611815
Bi 11.518923819363549 13.705874261136737 13.977145674546705
Bi 14.461907365721478 11.911209435529459 6.96531230753093
Bi 10.366469731043528 10.467308317913114 14.337066295629535
Bi 11.370525478710332 8.720597050141196 10.086937055871715
Bi 9.7921910516212 7.939763059315945 12.596117882272571
Bi 12.16997409297378 18.067454445589355 12.496494806748156
Bi 10.527024794802937 16.633919805900586 14.589877284307972
Bi 12.553434762759782 15.330118482910748 7.991606119311155
Bi 11.87091438168853 15.385320745112846 11.036570694513927
Bi 11.560722874837758 12.433422382648496 7.7927844801391135
Bi 11.410811794336968 11.683020014432017 10.78049286186619
Bi 7.3612738854034925 10.94651770576494 14.403691224473153
Bi 8.364748928699221 13.640350745073594 13.306816095035302
Bi 7.696599540864425 16.62096371624832 13.221615777632833
Bi 7.311265995274285 9.482071597617951 11.70617291831285
Bi 8.962562836780522 16.327225149470568 10.481221600185117
Bi 8.635890034967103 11.305916868410145 9.594434608414646
Bi 7.193282493992247 13.81893884842805 10.548580195120191
