34
Energy = -124.05360797 eV
Bi 18.206194665921696 12.83561362609213 12.815901402678273
Bi 18.396103120181536 10.995521585924662 15.164518024839431
Bi 15.871526123069954 16.807436590554367 12.085364669963763
Bi 16.911301403354834 15.072525561478638 14.310990256833744
Bi 15.770148796650137 14.363470499870399 10.322396193617553
Bi 15.931024315966937 10.859737727735679 11.395616848339623
Bi 15.998488602459012 9.241049972899896 13.991010789072858
Bi 14.242242375429491 15.203312185639998 7.761498045625924
Bi 13.098140887681874 17.52256345616072 13.301023226409733
Bi 15.581144158365895 11.200644131968604 16.26404561675635
Bi 13.568474731877311 12.707365271259597 11.775427723038401
Bi 14.128917482335314 13.463783964385673 14.789731806333561
Bi 13.192427236355162 12.378388107643822 8.222816086384215
Bi 14.061758749350275 8.31149939619772 10.51940345572793
Bi 11.793464510843682 14.822028577808132 9.490802167731438
Bi 13.289412902571922 16.230531912887155 15.987371073671651
Bi 13.942306629589975 6.82364381440123 13.068751336689084
Bi 9.313463461212125 14.500811665857292 7.675471168158255
Bi 10.295669826245978 16.51374515431503 15.716500599187784
Bi 10.304042778690722 16.384586487607002 12.618778911257067
Bi 10.162538223082304 13.345479019161518 12.380234318238548
Bi 10.682625839225482 12.082707665499886 6.454869951244954
Bi 11.890046088301524 11.91904446334999 16.619358888251256
Bi 11.228302143707822 10.385359695031086 14.088150725027695
Bi 11.503468739583456 10.002814644282118 10.700516439016527
Bi 11.223713829962488 7.344740119804729 14.318140841800805
Bi 9.890622209547233 9.647085560787938 8.102740869562648
Bi 7.96143682903706 13.62325816310172 10.257125248030475
Bi 9.464745748277254 13.717668166606984 16.70204511953685
Bi 7.769065307470373 13.163693696134953 14.234912115448912
Bi 10.025271680151935 7.4437939166858955 11.505423386583583
Bi 7.422098853684448 10.722991466710743 9.477775698618244
Bi 8.267963133333181 10.196948351492667 14.656860501863166
Bi 7.388024833478101 8.94233159765869 12.000602711456185
