37
Energy = -134.10202167 eV
Bi 11.426394353106287 15.478482771248848 19.386414576521812
Bi 13.614012942955048 13.492831595306264 19.72131648530138
Bi 8.969857051222052 13.717124688106916 17.462153147749337
Bi 11.575964054718854 12.089239445915073 17.63873005690469
Bi 10.697941453162343 9.251279552731935 16.610270814704855
Bi 9.286670646469151 16.607556036784544 16.487799617153456
Bi 15.073595894195124 11.199927082233236 16.13221081113967
Bi 8.838288666023328 9.651807627869907 14.244537706407812
Bi 13.391668696215248 8.532492984738292 15.586994286046448
Bi 12.232398110393481 17.17595078858569 17.037222433063377
Bi 15.752377847082382 14.046213988082819 17.787270351563645
Bi 12.734754972717603 12.764921583768283 14.926223392070446
Bi 16.88190194681054 10.368131628437085 13.78132420951484
Bi 17.749802649000483 15.296832498659656 11.967398567933799
Bi 14.198810293265362 15.365174537897978 15.542380431010397
Bi 8.783257137084492 16.938857364810215 13.495060957281256
Bi 18.79440669536754 12.688524016592144 13.256770379545612
Bi 13.005425503971795 8.300467716297046 12.587730639988555
Bi 12.357938845967489 18.804082904087302 11.576963306539097
Bi 11.689033298070534 16.25282076984412 13.028347596020572
Bi 14.72478112956456 14.719931053452829 11.887269476421636
Bi 14.651021108775714 10.765300803864246 11.759159144387501
Bi 7.679412073352428 12.381818604291741 14.96594962506137
Bi 7.410492383511376 14.355651816785882 12.675849910528804
Bi 19.30307539703038 11.64977004862244 10.440049027824898
Bi 14.887957942570084 17.56061471777751 10.752828603897543
Bi 15.23216724928906 8.64226057263172 9.58234741067366
Bi 10.418632001067559 9.641340436061384 11.65386735939109
Bi 18.83081059311782 14.431204561600406 9.2286612792983
Bi 13.938126097357072 14.926482481252256 8.928858587381539
Bi 16.560072388385837 12.413504952586866 9.360440445353921
Bi 11.517185757865462 12.456899147122437 11.541332742566057
Bi 16.49262056682787 10.199803172466714 7.277333363840325
Bi 13.464947605752124 9.960673840093627 7.487676719977163
Bi 11.991860935856653 12.457486048663474 8.521623337589038
Bi 11.20727585390846 16.16713312623013 9.989446790215746
Bi 9.145806447954186 13.758151624483531 10.200932999116144
