38
Energy = -137.13962589 eV
Bi 9.165905673273194 16.54310270255033 10.012454428055209
Bi 9.482762067813992 15.414599422412282 17.659333768192386
Bi 12.263493631082875 15.999688525359032 16.472749948272703
Bi 7.520721141358038 14.62664388513926 8.26040062926977
Bi 8.24095819008453 16.544166185726013 15.142017078083349
Bi 12.509018889713563 17.80459695324906 12.134895518219095
Bi 10.794759106407176 15.77971696805851 13.563701558871582
Bi 11.45625909108712 16.488580850576923 7.996230705678964
Bi 9.424052290339707 13.452655102892722 10.318435348657854
Bi 14.447720821547843 15.346506787404453 18.72640891593875
Bi 14.66690945118857 16.068216938260772 13.608813941379065
Bi 14.86044784334224 12.455635674575312 18.453014125748616
Bi 8.10863019429405 13.546611845928318 15.68153284624827
Bi 15.89432685559612 15.48448454430144 10.791740669349586
Bi 12.6405483081233 12.869532967427894 16.0716941249455
Bi 10.26738113354283 13.752609064332788 7.294310913999082
Bi 12.856454991768846 15.278109626436889 10.435321570182772
Bi 10.341672639770868 12.50928550571524 13.820555617291989
Bi 16.506964674469042 16.314310235269325 16.506081331563404
Bi 14.634789154468269 12.768873966967393 13.703104097345784
Bi 9.815373538789014 9.877773318636253 10.962245611760464
Bi 13.474057071765452 12.106157133233285 8.322579005764007
Bi 19.639171343601642 16.06083596087733 16.347573468692005
Bi 12.534224212052656 9.813973597374716 17.032545174849698
Bi 16.631663752716097 13.297369228305378 16.05705429381781
Bi 18.46246941564156 15.961121423866114 13.587346204260179
Bi 12.532175726748264 11.475705920053842 11.206799692892433
Bi 9.424150028032642 9.587980728806432 13.985001468092749
Bi 12.36727498989836 8.33769426056197 9.115930230975195
Bi 14.559003171129579 9.748452624347877 14.86246135242615
Bi 16.200070665036748 12.612574742212573 9.667035906689467
Bi 9.813308639569348 6.716264123071178 11.14320518033992
Bi 12.007603311080272 8.078165780202609 14.583661949839753
Bi 19.525660221302413 13.482869779514356 14.790549599094682
Bi 15.090499378080775 9.463400157744184 8.093218194637261
Bi 15.313931821854048 10.03908454735302 11.10378220989971
Bi 11.18088955888376 5.533235083764909 8.705528662803722
Bi 12.772028445891115 6.186745278836711 11.20801609721882
