39
Energy = -141.18807664 eV
Bi 11.747823710984976 15.850952765784891 7.236633409857856
Bi 13.261586586869559 13.162266804273075 7.194980702034897
Bi 11.038064135888941 13.755732889915473 5.166956141051613
Bi 16.47274128610961 13.499457670905093 8.335869514045273
Bi 14.945089205755407 15.980327843991882 9.459321625186663
Bi 9.618790543954914 13.776659132931862 7.8491407346436
Bi 13.115162381651752 9.414127938656378 8.311840612053418
Bi 16.00196534615354 10.431306199692537 8.311588247229023
Bi 16.74810404734906 16.815310706593806 11.783054976202532
Bi 12.341773257289894 16.21504128459228 11.01897799485293
Bi 17.955875236223545 12.71233899404357 10.953739904535189
Bi 11.56020584669542 11.86288082595711 9.548528293535744
Bi 9.418845065837138 9.958941772849824 8.400325459450963
Bi 14.127220449914024 17.817502905183456 13.017660792019496
Bi 14.954302249916172 12.486227163617892 11.816675158171131
Bi 7.562932901920944 10.883277736024517 10.70323162959702
Bi 12.884215284998469 8.068248475740223 10.998531980657908
Bi 8.859947237520553 13.59005568655708 11.41159771031276
Bi 10.239121392645602 7.342141598056644 9.752136728647192
Bi 11.632342761075828 13.852120023343442 12.947900736707462
Bi 16.61672782163685 9.978129806547534 11.268411722062734
Bi 8.846354080961778 8.730726040295684 12.455035082197641
Bi 10.675074048600374 16.268654979687113 14.760100851593451
Bi 16.86731163454627 14.303058020332966 13.593839883501765
Bi 11.492654199882875 10.178706667373996 12.875328284504013
Bi 7.724866566268351 15.706920708090815 15.180566574111264
Bi 7.287432342340245 12.88297295346941 13.892568138647203
Bi 11.8384615426196 7.958426337139449 14.964255223990842
Bi 14.72607725423368 8.680830519591433 15.715274765847125
Bi 14.290978791164294 11.596897611326375 14.92503078445362
Bi 9.724418807358802 14.904704161289684 17.29637633429196
Bi 16.585073527380562 12.373096149072284 16.831479440325428
Bi 14.157440585082856 15.243217443654537 14.753822231720006
Bi 7.7034172471216635 9.980983167951345 15.174176119894332
Bi 10.085603350665702 12.328466504386583 15.548947269087495
Bi 14.845580656102166 14.733031447977414 17.74371934660127
Bi 10.118901346440898 9.557452805525257 16.93574712756425
Bi 14.710570804631388 10.382526142842316 18.29056499971403
Bi 12.651520106833656 12.618040616102913 17.715851983330968
