30
Energy = -109.20403838 eV
Bi 23.080914856698676 21.546255980745283 12.189587859408002
Bi 20.671121979966042 24.076131462473256 15.363903687573092
Bi 16.11576299821803 24.72563288565108 16.180651472205497
Bi 17.451972432467464 24.75043840720739 18.869830067355522
Bi 18.023508407977985 22.954160366211532 14.50681662344417
Bi 20.60667993025762 22.87227373264076 11.099751229339299
Bi 21.95977251434611 20.57806482090466 9.579380497789574
Bi 22.237846288131166 19.4298294739261 14.12314086747053
Bi 20.322117693232386 23.894113719121737 18.385530580291253
Bi 15.758909335885537 22.376572117830467 18.081829314378393
Bi 17.668029041806776 20.628289315894605 16.399587984637297
Bi 19.78512714060685 18.560623291939407 10.357045481802924
Bi 18.288305155693028 20.95191793829064 11.622869920127485
Bi 19.421648097891904 18.7846159222888 13.361377260054944
Bi 22.22784612730855 21.596069083138026 16.260143409822167
Bi 20.0184280187085 20.887998149089857 18.250455552808095
Bi 11.773753082458436 12.61797060756535 21.780074257230183
Bi 11.133107771262978 14.198716644597443 19.2798874027163
Bi 14.76873147200687 12.833293888134557 21.40129241422341
Bi 12.815003260912922 12.991541784509813 17.08085065327475
Bi 15.299600864864551 12.050262881286807 18.532685154882518
Bi 13.071041307515474 15.334708325964558 21.305060966159523
Bi 10.937379102090684 10.628320148406976 17.073248950120743
Bi 14.749351867995214 9.185376865804974 19.306908200940875
Bi 12.50369471117453 9.059602744307245 15.056266282831993
Bi 14.99889616683749 8.114748042862882 16.518747429313297
Bi 11.77072007332967 9.329260152211031 19.64790356826579
Bi 11.096137039536693 6.446176969413713 15.75061740522282
Bi 13.608098141200509 5.495142073319983 17.22179519271304
Bi 11.199035205791958 6.464432290435433 18.775300399771343
