32
Energy = -114.59974489 eV
Bi 1.9306052888259415 15.395576552856307 0.30828638226641125
Bi 1.7069599419484998 12.41089129814107 1.002344839332374
Bi 18.79789312176215 15.958123828401094 18.2096117465091
Bi 0.19423783065641406 12.261650643958424 15.623425772146108
Bi 0.6406309336003031 15.288277360971822 15.516746227099846
Bi 0.8571901014882576 10.617126154450345 18.11134384519316
Bi 18.21559029580654 18.093195499450985 14.41792281462646
Bi 0.02020613286030297 1.0595797223010788 15.977545008298726
Bi 0.13564850863477604 15.673431778409057 2.781267613849269
Bi 19.110615250654558 19.024921619208342 18.600673960225066
Bi 18.609376405988968 12.810813427246007 2.6399650786331352
Bi 16.43054231010111 11.980391492853565 0.701539777539992
Bi 17.642072005565463 14.578071082816352 13.748081279294631
Bi 17.399929856065988 11.153372923821282 17.387182080290557
Bi 19.001908334239204 16.37020761202716 11.785644952760915
Bi 18.490126905213014 0.5125905668903918 11.950175370419917
Bi 16.591423806137833 0.12289560517854263 16.934458317870053
Bi 17.053274726893367 17.98828460000071 10.056161235566602
Bi 17.159493594079617 17.51626002604398 2.4547762330724954
Bi 15.016191202923874 3.4728430172892204 14.442804408555894
Bi 14.549831797081758 16.012079731675705 2.6860354886691855
Bi 13.670269917887705 3.090776265380541 18.281623254626368
Bi 15.755466329583404 1.8325241822096252 11.93146399543836
Bi 15.18972838885718 16.706116145800646 13.797000997494747
Bi 14.431539455378843 18.587050444311625 11.543726218647558
Bi 16.549260151740217 3.1251024563487855 17.036991929449048
Bi 14.18998343305734 14.001277586352762 0.4015324550601395
Bi 15.465000796125222 15.673836239805112 17.596024815872013
Bi 13.2777489901515 17.14244677027075 16.025550019061807
Bi 15.058934230889008 17.865649605315053 0.25390953383433756
Bi 12.33903352525366 2.569871716543401 15.587673376438824
Bi 12.636010344561893 0.3451449364899301 17.653063456883757
