36
Energy = -131.04825381 eV
Bi 8.4261499485989 16.054773829551994 10.082696737194146
Bi 12.299697192571788 10.147536358820176 9.025208529814877
Bi 16.67799461883488 12.628002730974595 8.85011847568555
Bi 10.01368543665086 13.586290420529032 13.504335344656832
Bi 14.806790721033803 13.44311991341565 6.603702065128153
Bi 17.15616338751021 12.591600033578407 15.461078150062443
Bi 9.149870710273104 13.23429365371134 9.243596519656553
Bi 14.331545652792977 14.868557958153934 12.426194645741198
Bi 17.651975382688494 8.957789019861302 12.476344777892592
Bi 11.18162504712611 16.568523670986014 16.71506548537987
Bi 10.250185277251498 17.750327748819213 11.868372529995144
Bi 11.06356446588608 10.457487373135734 16.510039961367266
Bi 7.49685255186248 13.675084934327318 11.749545831608726
Bi 12.020857336038397 12.90525163797181 10.422977762315934
Bi 9.210440186893704 16.372024909393474 14.396596437162632
Bi 9.804374353524869 7.034200828097229 12.536247518581305
Bi 15.113855776364609 11.696546698521834 11.32013871715212
Bi 9.7903017898059 14.232675990988374 18.165038193083802
Bi 15.97345538544991 8.081058777730476 14.80752034594494
Bi 8.371051089389638 8.83578573908588 14.483342600739562
Bi 12.812969951485336 10.989114499914931 14.040999873857189
Bi 12.373463565935575 14.63446238563555 7.94385139878615
Bi 15.651367947251106 15.232596435254539 15.200606983067658
Bi 8.707363247314797 12.360513664627998 15.950795744627284
Bi 14.97702616143192 10.618095257968662 16.182171107443107
Bi 17.901079901386403 11.937574070452659 12.587851998074473
Bi 9.627361144262142 10.033510310616013 11.972018724386857
Bi 12.451652945931055 12.648413564307798 18.231468924960083
Bi 14.18316906467873 16.911859219144308 8.89316054576035
Bi 16.462127752967994 15.484543556255815 10.336693650600031
Bi 14.69206289603301 10.492324755094646 7.221429017064212
Bi 13.236560266000758 8.052108670647717 13.268030727249666
Bi 7.153867060080486 8.311436611171823 11.760935966921753
Bi 14.628819631749732 8.756728823773651 10.601517101655471
Bi 12.806877601550372 14.221547395040725 15.654256297406272
Bi 13.293731536551403 17.650503419136033 11.725731754912653
