36
Energy = -131.21205667 eV
Bi 18.798483401313213 11.826057524740593 12.329744966324236
Bi 17.03668704657878 11.030547508780119 9.95315758336257
Bi 17.32093669410893 11.003385629961072 14.857988232054769
Bi 17.83143203679028 13.954799734665738 14.268623891908312
Bi 15.684783881658447 8.729281968290694 11.4433388894018
Bi 16.956046033735348 16.742931564154333 11.63640288688209
Bi 16.98549272889888 15.200238670285652 9.025940231042233
Bi 14.894696152143359 13.018547796229914 9.03873664590435
Bi 14.172677196071085 10.231145567031916 18.149460202388642
Bi 14.674199772795193 10.784878263999664 13.397739694593282
Bi 15.342435614035084 17.73169319870171 9.255941039643186
Bi 15.097450572291896 14.882387398153531 13.281865402096068
Bi 12.881926077164708 8.176495766346491 10.295510332035718
Bi 13.944953981522099 8.555840883072548 15.329582015132967
Bi 13.88477087808631 13.115579686308978 16.865371697296673
Bi 14.746549802356983 16.081273910176414 16.08504016668787
Bi 12.379839671847355 6.8295660359958505 13.008035958291355
Bi 11.374505721549447 10.643537625568879 18.709834338854503
Bi 11.827095099499093 12.596270078869644 14.576501972670611
Bi 12.779543161195342 13.983524880613853 10.998137863059611
Bi 11.144681169752184 9.755842958869573 15.717130431512773
Bi 11.307584595445698 10.693926149550917 11.037172201564182
Bi 10.926532518332458 13.658631143498866 17.34968678807213
Bi 9.645111381428666 7.656463405761114 13.820794770535272
Bi 11.8696283134351 16.676556483684887 16.549553256701163
Bi 12.815579840130015 17.09481826589878 10.86347903557606
Bi 8.88195902277493 8.884049704149916 11.15541730208297
Bi 10.922681093270551 15.869643735779075 13.767888086205073
Bi 11.416216565042465 14.19187223781716 8.300861476015415
Bi 9.969456852284338 11.480903391487427 8.373550360216923
Bi 8.96571454426333 13.102129962666679 12.355892319128255
Bi 10.198279988723021 16.870296016246076 9.247209521050914
Bi 6.822818041939048 10.973686490207026 11.973790357284908
Bi 9.110930786819297 17.643922521970687 11.97771902788053
Bi 7.8672913238708935 15.549682650036765 13.780594482710029
Bi 7.567462837459073 12.850039279998127 9.682786727628494
