32
Energy = -116.97276383 eV
Bi 11.205587032918725 17.27836036873923 10.210358488026102
Bi 13.945802275287647 16.187929928752304 9.330440056795796
Bi 16.235007756461385 16.364151022679685 12.782141670046236
Bi 10.245705100311458 15.991165838452421 7.596459990219556
Bi 15.76651258829757 15.772335454630705 15.741476179621717
Bi 14.22876988220817 14.27333334311028 11.712687217452556
Bi 12.70668323199136 14.139582925382769 7.38686600322894
Bi 18.097175765218495 14.522757637636001 14.254034794248213
Bi 10.54142625488365 14.410950536004236 11.106487657908735
Bi 16.370753331264464 12.598617396667915 10.29798688466639
Bi 8.228106440809315 14.290325911967901 9.154911643445105
Bi 12.914110165519748 14.814975704552724 15.211816593741165
Bi 12.14487847271731 12.009010097323912 9.524809163168326
Bi 17.91749582891339 11.848476443900557 12.783316954691166
Bi 9.026903191414473 13.482479609211754 16.35426390019165
Bi 9.996078011835602 12.634538733815964 13.58134214410055
Bi 11.787221425377526 13.443249821662027 17.71948290380894
Bi 13.35515934512416 11.948865666524153 14.141726635547544
Bi 7.256530217309013 11.565384802336366 12.867906092018476
Bi 15.662327601747274 9.633356039635697 10.028799065874065
Bi 9.364685175589608 11.621965882327988 8.239834388202775
Bi 12.333991583969969 10.578853711095125 16.726878251850408
Bi 9.279419288868219 10.500344371517183 16.94026607308156
Bi 13.27879681931046 9.522306530787231 8.089857456523319
Bi 11.635436908618885 9.714591186374001 12.246891058128776
Bi 15.989791806089574 10.47745109046872 14.645557860052568
Bi 7.530729336678166 10.174129383231882 10.177683567522857
Bi 7.684384915716221 9.15414014886628 14.659299579130202
Bi 14.531466189848539 8.621951211095691 12.710613761871734
Bi 9.84702846659913 7.469064161238564 13.36666039955298
Bi 12.012201022608503 7.602957683365282 10.075975056548211
Bi 8.953268553629329 7.473309026533825 10.469010945202093
