30
Energy = -108.4010334 eV
Bi 15.886638283889537 14.767413697545804 10.347387630761279
Bi 12.593923538192968 17.176279708326263 9.86558226999741
Bi 15.611106307296328 17.808952741607172 10.29962650636938
Bi 16.30588761822574 16.321577866083427 12.825004822887186
Bi 15.720488963587131 10.971555031691286 10.9085356733663
Bi 17.0526177858104 8.200976987233387 10.672705695206497
Bi 15.233271826470299 6.174174889041583 12.002923877614078
Bi 12.621181465877736 17.268650547317936 12.890803619021
Bi 14.229929684487944 14.24897510479193 14.459376420557343
Bi 12.700827593500296 16.077954742500072 16.429869410709905
Bi 12.842806249398004 13.851248275135701 11.017979668435759
Bi 16.89053986861697 8.15809388029199 13.709689218149169
Bi 14.827780272812547 14.121270259439594 17.44643280460719
Bi 15.10072031457007 10.65861721486434 13.862188407014667
Bi 13.089736879364725 8.3184298114671 13.921220774805722
Bi 12.788694994116028 12.09986784142047 16.4462207495148
Bi 10.559642947245804 14.035083180062383 17.19721146256158
Bi 13.204270818368185 11.369464603062024 9.240068835105763
Bi 9.738916859301602 16.54688389038101 13.659567921303687
Bi 10.561795791284235 19.01878160055306 11.181658629387025
Bi 10.378970010603904 14.53706833817792 9.289753143734783
Bi 9.037159518062763 13.683048530718729 14.565821918359015
Bi 12.715446948996174 7.66862723353003 11.049497670672434
Bi 10.406633600748028 6.30633932594799 12.61281235913452
Bi 10.393250756350735 10.136331895726332 9.395854701717512
Bi 10.007696702920109 8.924170554974095 14.331578635901684
Bi 11.121240727100135 12.00201384074047 13.17369892747527
Bi 8.686041258812512 16.596532556789203 10.840675040193247
Bi 8.97905874279244 12.366703697781723 10.955564879062948
Bi 8.803776064853702 8.637204472107415 11.586855099940975
