34
Energy = -136.71365008 eV
Bi 19.337251144541455 13.484114466361891 12.377203304810594
Bi 17.941606284655894 11.972791440212605 13.912893796946392
Bi 17.057519074559757 13.281013092456401 15.880518602936425
Bi 17.45669586330627 14.701882626158543 13.651987507101854
Bi 17.285308979819042 13.241501241336776 10.9764206586193
Bi 14.371236682640626 9.722838890509388 14.077951024799805
Bi 16.17816842266848 11.235472606258629 12.162243842111828
Bi 15.46208956455221 8.75157342611312 11.947392457264714
Bi 15.191259347930009 12.24628543752079 14.547872114908651
Bi 10.789939292009679 15.721629825074494 15.937328285377365
Bi 16.31533058640509 15.064163045371535 9.505625554114488
Bi 12.352224325555596 9.300650922367401 15.598879086182622
Bi 15.662036954561815 15.342167844892105 11.905265757980386
Bi 12.950205274460927 13.145818827824938 13.972703156819758
Bi 10.358493757903986 13.411453356953091 17.007543026543228
Bi 13.47425272173877 16.56753989064106 12.015265870656114
Bi 13.249399332903835 9.859609907833308 11.254843282946517
Bi 12.024331446237435 15.412816595444301 13.771346286922034
Bi 13.822705375514722 14.396098489988558 10.060667600277503
Bi 13.379056091602974 12.405952143072653 11.608195781554645
Bi 11.698263526440416 11.00497190403601 9.308048777459009
Bi 12.295091821451715 16.43671938355893 9.7191596732497
Bi 8.613174238879479 17.00443626475626 15.42147410949863
Bi 8.479159801057184 14.365799900806048 15.506020545309763
Bi 11.489203491150365 9.444827308714464 13.227464614542653
Bi 11.41075519458426 11.749244283008775 15.293446702350037
Bi 9.203035626340808 15.730503100258696 13.25310704122358
Bi 10.848944550929424 12.570309719102612 11.314909580772605
Bi 10.858254934892212 15.101515758664936 11.370864934137009
Bi 10.946127365721733 8.663749581078838 10.477582593495262
Bi 7.861475344161843 13.48164491108981 13.213572504530612
Bi 9.691175980744303 11.643358404307243 13.33640477520555
Bi 9.030323649714607 9.244303881295023 12.49828853212438
Bi 9.279277156692196 10.656614729258772 10.250881823557203
