31
Energy = -112.86899554 eV
Bi 12.917820451818274 15.58233665603211 8.224055604974216
Bi 16.67708602157458 12.87077052600751 9.617826552063631
Bi 17.45330690546614 11.276778844560498 16.144098510377802
Bi 11.093246558596816 12.593059826090368 17.116108321439526
Bi 15.239662431009664 11.743385966302649 12.088608111265057
Bi 7.724257220193859 15.608567806548235 12.593534846362926
Bi 13.160621028793338 14.866350689063896 11.238352948593443
Bi 14.185785190676333 15.303653957461018 15.309392627443678
Bi 9.626734204161215 15.260510646909916 16.929053489936102
Bi 15.903958071275866 8.765910868498812 15.409346085825007
Bi 12.154063310848366 11.762412716353236 9.478834008444919
Bi 14.496318352028645 11.08964947608373 16.770532658700873
Bi 12.929541601995481 12.558147165854878 14.594157412160468
Bi 12.953900598564278 8.777470417328612 11.341490091923388
Bi 10.818737483406794 6.908336019798403 12.432612481210656
Bi 11.204873869583412 9.665320806391797 13.67340234564543
Bi 7.293918916028228 12.69397252606103 13.386285821706045
Bi 12.616523904200847 17.033853568570713 13.337021406995742
Bi 16.822419760622857 15.429005707111202 13.75229863095266
Bi 8.207499027482886 10.248468228771904 9.880036851569972
Bi 9.855693217984674 11.821696206012925 11.952992816150767
Bi 10.530569004817586 9.598851658163092 7.985776761089451
Bi 9.38079620809008 7.468141804456598 9.822519783798267
Bi 9.925930457235994 15.741016331083632 10.449623503913964
Bi 10.362372126720862 13.862812121607737 8.112805317519163
Bi 14.331329089146175 12.932250082901291 7.616681669038992
Bi 17.808952542950752 12.5771925746305 13.420661160686137
Bi 8.135808390176622 12.698168308032338 16.360985388062925
Bi 15.871469654864695 8.778155679241683 12.36715618063473
Bi 10.370790624163003 15.003623096514103 13.980510154745968
Bi 16.106028055663867 15.640143997696862 10.773252736910278
