35
Energy = -128.09036837 eV
Bi 16.358725978133833 14.775926081710185 16.54070478116515
Bi 15.542027412062463 11.947150171409941 17.355523589933725
Bi 13.714297835037707 16.03500767266881 15.60028002861328
Bi 12.515211378806953 12.462297416402846 17.300716027215103
Bi 14.822873579426725 17.450259833209294 13.123027309296157
Bi 17.117956952711133 12.398702583997204 14.800516205676999
Bi 16.554780755432215 15.256669046525298 12.005001271145328
Bi 12.31388298071798 13.57393188927859 14.486714954414252
Bi 10.773879475933626 10.06733873738613 16.4904850078065
Bi 9.87771633331255 14.756806957134405 15.917198275224338
Bi 12.400007194367662 17.990934559900182 11.312761991311861
Bi 8.49341990854593 12.14022367248139 16.665298636642625
Bi 16.160702506037897 15.865114702827784 9.064079236224813
Bi 8.300661763194126 15.874077674186324 13.542099089772188
Bi 10.820075119558515 15.45581533297591 11.852967125441745
Bi 14.34408106296225 9.41360211555414 14.471321642206526
Bi 15.106506610920935 12.598231534006093 12.505623206355466
Bi 13.385087488151548 17.0677503509071 8.580061352511875
Bi 16.130829070177807 8.160536025020145 12.383067743731997
Bi 9.271797636278048 14.946683458485381 9.290207790564514
Bi 11.149202694636461 10.228238294503395 13.464260053459508
Bi 13.971906757160173 6.496253236616806 13.663486721901062
Bi 6.644842263974282 11.481323472814658 14.33360075689441
Bi 13.049639114144965 12.767131240661529 9.75760675780754
Bi 7.159391332647333 13.450273178904295 12.0972817925724
Bi 9.725330937052297 12.313116771276889 10.930395921747364
Bi 15.614718987937763 13.006437765818163 8.14865395845331
Bi 17.092610608682193 11.570580041173779 10.394467364892204
Bi 11.826199310229129 14.606937511793669 7.662496197924053
Bi 11.164610227798148 7.2585196107742425 12.709235978646902
Bi 8.17617667003639 9.141056748343118 13.145666465453763
Bi 15.62550763144964 9.045864696895038 9.52411307756955
Bi 12.873181893707596 9.955129928908097 8.538117166193858
Bi 8.266930839943292 9.75235616906035 10.156711378468271
Bi 10.844267587563746 8.039719827772174 9.780020999266572
