33
Energy = -118.33570624 eV
Bi 10.824402500302421 13.112299899741108 14.167295133592084
Bi 11.926701067883949 15.046275208613997 11.137561285134831
Bi 13.156090217792684 11.29248497124189 12.459187509273038
Bi 14.860061474062634 8.763073093418432 12.611726586177246
Bi 11.448737620275272 18.10166604942737 11.408990827277055
Bi 11.894449491342913 8.752179278882087 13.56160819596719
Bi 14.869502953999154 15.26510460506199 12.893842280810151
Bi 16.345269183225387 15.141830395836175 8.411202397209513
Bi 11.190464090975526 10.773225462344165 10.14386162225622
Bi 11.03954185439591 13.468430281565166 8.659763040180664
Bi 10.19038041905345 14.95521977131114 17.57245381302619
Bi 17.28884595241106 14.123284009700665 16.927405118772075
Bi 16.23320005579948 17.02998366951559 10.7998796598458
Bi 15.87153831838625 9.50790943097732 15.43582784064973
Bi 15.76803886167513 13.020277459388696 19.68424356341654
Bi 13.771772845970307 16.848109673450928 9.042942133136187
Bi 8.944546598087493 15.436784771382383 14.777750130109894
Bi 8.888620162614462 14.427315012693652 10.641963325889003
Bi 13.503411729840478 17.945162802057194 13.670541939310883
Bi 9.526855716755257 12.053633912226447 16.761293127955582
Bi 13.081917443266434 14.246946892009573 16.82426528095713
Bi 17.736109673102305 12.141077404542902 8.26923278556285
Bi 10.537933632642495 17.97034493942236 14.331810227850697
Bi 17.568742353651615 15.812375635475416 14.21402766832432
Bi 11.437609794401496 10.219654994135743 18.280365592510506
Bi 17.046460121898296 11.4310530289294 11.104970724736924
Bi 9.004951838595764 11.761652079791633 12.094439683262417
Bi 15.641637592561814 12.51952634214922 14.86093644642331
Bi 15.213658864644039 15.734908714426602 18.50972607603667
Bi 12.751595270411254 12.73034310922827 19.388870651595504
Bi 13.11703159208955 8.564107782794519 16.319573409343786
Bi 18.338744321699778 12.966794031957777 13.462346404579097
Bi 14.896202465818199 12.606575720229309 9.299748764038496
