34
Energy = -122.9534634 eV
Bi 16.887369673403075 17.567852071176308 2.892623902888833
Bi 18.00364598260391 18.505318445429086 20.943467383351468
Bi 18.47926716755005 20.826477951559667 0.5116139285088891
Bi 16.44881180629104 14.017738273123692 17.165483937985456
Bi 2.0878050237864323 5.353987355188951 18.542747313249023
Bi 15.828891118428798 19.24207759931659 0.5229746077810636
Bi 1.0585261292174644 0.07080352150654622 18.97589994414602
Bi 16.673714213805354 20.902094238803635 19.440497014821997
Bi 17.21862312718594 20.36566476644386 16.48903209281403
Bi 17.149885417819757 14.723732216527884 20.042253753249742
Bi 21.53839593293124 17.43562965030124 1.9181079824124536
Bi 16.381014349178 16.995024111276994 18.009870604964135
Bi 22.285201603061687 20.449809831054683 22.327597018509238
Bi 0.7093555778557226 7.085817150337281 20.58421142089727
Bi 20.58380321792224 14.601694597529162 2.5736699005235866
Bi 20.236924200842665 15.714805335557095 22.15331072527478
Bi 2.9929031769993104 3.6288757657228006 20.985269501699584
Bi 3.7382435453666334 3.264998994764583 2.1894060695367212
Bi 2.2575078061612124 5.636168493499651 0.7467797478107823
Bi 2.035169607235356 1.0552248459333 1.0280847919334688
Bi 22.145249795097754 3.3969185418701175 18.839748534139638
Bi 20.377567567693024 19.70609365233664 18.45182814104723
Bi 22.3435483333435 18.201622910198115 20.244259851302484
Bi 14.610171482764374 19.594343636641263 17.632263663167578
Bi 19.38935263167773 19.249799514507796 2.99236879880578
Bi 2.651968645282506 21.33183880154836 21.307513530484705
Bi 20.793833877386657 0.14039508130810985 20.581636188541093
Bi 22.133764267905608 2.676174509633934 21.882499410116978
Bi 5.195159707709084 5.0265546373388075 0.20355722082086122
Bi 0.9662097141866797 19.648647717890054 17.758583460322004
Bi 17.793356149558942 15.073197526295662 1.480418130663875
Bi 19.253026005351458 14.718183341796145 17.927845817088397
Bi 19.045271304124643 17.663495475530546 16.563641130207603
Bi 20.708799007053813 5.361269177918128 20.65196823343163
