32
Energy = -115.44947434 eV
Bi 2.404685657060705 15.343334631642701 14.045950615242113
Bi 3.861612204003901 15.505101510683279 16.674836893733424
Bi 1.7303606785295749 14.276160133250828 18.6413983692681
Bi 0.145725559548185 15.517076089647539 16.207749746007682
Bi 19.251119497041746 13.32044279411391 19.11263422864439
Bi 2.7563714030527797 16.49619237658441 20.471034703953105
Bi 1.6969890684460363 18.12816352527137 15.011504491244722
Bi 3.6896326942877424 18.27087197228974 18.099484072577553
Bi 17.399150517558002 14.535937247624428 0.6391296351571958
Bi 0.7342095727306909 18.150550786312234 1.493918523655666
Bi 17.6324233267239 14.226656781786307 16.789142158904024
Bi 18.541224403304973 16.971703506997674 2.077267803257868
Bi 18.271466599610445 17.856963404570198 15.451373927512494
Bi 0.3339789900370528 20.43668418108953 13.412403170194557
Bi 0.21357784018561202 0.22404300225279564 0.07696258499775312
Bi 14.19744361729036 17.525795574002792 0.9153304133157765
Bi 15.979363983106884 15.877107738652846 18.8373827365409
Bi 16.72349660538917 19.29293425998269 1.2571849659022447
Bi 0.7912929785801179 19.283691278843204 18.041994659942254
Bi 0.4608529475295318 1.1697595515053403 16.158449465032888
Bi 18.36356727406472 0.3254755287227464 15.003652787873875
Bi 12.251994578038344 19.852252419330647 1.1272887639681246
Bi 14.961538133635797 19.611653681679336 17.927072262918536
Bi 18.582586544035372 17.451998101231112 18.482885947109136
Bi 18.011691202672587 20.38792076315086 19.3073331507632
Bi 15.339345370486306 17.366416989524158 14.581490728536512
Bi 11.471457222871548 17.47587920054182 19.948174586639077
Bi 12.859074965070631 0.899590766000474 19.128060080240957
Bi 10.582081002361834 19.791602285521616 18.069172227640482
Bi 13.38742474701561 17.157526677593715 17.04455861893182
Bi 14.312252426484733 20.2288679932413 14.980757798580052
Bi 11.55129787355902 18.902998053446446 15.31498986736097
