36
Energy = -128.15951206 eV
Bi 18.683095914612924 22.227389821180918 20.89266940787329
Bi 22.464797199845997 22.227389821180918 20.89266940787329
Bi 2.0993745940805555 20.57394655722946 22.26658346361069
Bi 22.464797199845997 18.920503293278003 20.89266940787329
Bi 18.683095914612924 18.920503293278003 20.89266940787329
Bi 16.419016520378364 20.57394655722946 22.26658346361069
Bi 3.7374136679779597 20.57394655722946 19.72446889846176
Bi 22.56520998268378 15.270679498608175 19.136171038901146
Bi 18.582683131775138 15.270679498608175 19.136171038901146
Bi 14.780977446480959 20.57394655722946 19.72446889846176
Bi 18.582683131775138 3.247711615850745 19.136171038901146
Bi 22.56520998268378 3.247711615850745 19.136171038901146
Bi 16.840262314083496 0.4453824815876169 18.617452276182625
Bi 20.57394655722946 5.174765532583883 21.015959502321753
Bi 1.6781288003752626 0.4453824815876169 18.617452276182625
Bi 1.6781288003752626 18.07300863287114 18.617452276182625
Bi 20.57394655722946 13.34362558187472 21.015959502321753
Bi 16.840262314083496 18.07300863287114 18.617452276182625
Bi 16.268879023940617 4.322775465218402 20.79101546774205
Bi 10.861320899673725 20.57394655722946 19.31610151755062
Bi 2.249512090517987 4.322775465218402 20.79101546774205
Bi 7.657070214785196 20.57394655722946 19.31610151755062
Bi 2.249512090517987 14.1956156492402 20.79101546774205
Bi 16.268879023940617 14.1956156492402 20.79101546774205
Bi 3.1626897416691726 1.3895094362533378 21.04859527518378
Bi 6.0703970115654196 22.12254549230527 21.394337548866922
Bi 22.477258023303005 2.9847789763930668 22.123721309342674
Bi 18.670635091155752 2.9847789763930668 22.123721309342674
Bi 15.355701372789747 1.3895094362533378 21.04859527518378
Bi 12.447994102893338 22.12254549230527 21.394337548866922
Bi 12.447994102893338 19.02534762215333 21.394337548866922
Bi 15.355701372789747 17.12888167820542 21.04859527518378
Bi 18.670635091155752 15.533612138065688 22.123721309342674
Bi 22.477258023303005 15.533612138065688 22.123721309342674
Bi 3.1626897416691726 17.12888167820542 21.04859527518378
Bi 6.0703970115654196 19.02534762215333 21.394337548866922
