39
Energy = -140.38711658 eV
Bi 23.232469543032323 22.58898062169429 18.070746238685146
Bi 5.125578254045298 5.884827143422587 1.395234116216516
Bi 18.880374784900162 19.583931323254717 22.252562270767342
Bi 21.966859929702945 0.2039714556921317 21.59637068962296
Bi 23.382055289707203 10.450330924318566 23.395936388628293
Bi 16.10987855307781 24.316400389726837 1.828242001827466
Bi 22.636199643867805 12.681698230959613 21.41398074048216
Bi 6.214373455978148 3.8891346964488904 3.3633645687847697
Bi 22.781509377894853 18.01586770876255 21.917151365812266
Bi 19.907451496591747 20.033972863299564 0.44104887237712487
Bi 20.75694515099308 16.42931689155841 23.518818205357576
Bi 1.0931095279830572 1.300001773648715 22.967394706839677
Bi 1.7660367145948614 6.135774554618781 22.869703312864655
Bi 19.491633419944208 20.807587197887553 19.2000627222117
Bi 23.523298504691883 6.925687303704337 22.799435085766653
Bi 20.354022375609606 22.971994998940218 24.38159931251794
Bi 23.266083200925983 14.675507943205195 23.64349520085118
Bi 20.517295156360873 11.248332570306255 23.062471787077946
Bi 15.825246902774044 21.857777603613833 0.07903654109849215
Bi 23.23946165036951 1.5490876773325002 19.18806336160249
Bi 21.618291591226356 20.85191139677679 21.46708097380107
Bi 3.1214760910127595 24.280174958917364 24.439767829750476
Bi 20.672464738537442 23.850350971199475 18.999357523227626
Bi 22.204555504441274 19.697104242249722 18.63670619039174
Bi 23.423450261378346 6.324925523029732 19.822236316300668
Bi 22.643290457873327 4.04879319312559 21.624779726978634
Bi 22.48330190061494 18.426542481469458 0.2660678270498982
Bi 2.424026767582473 5.446576751693112 2.6685515594569336
Bi 0.7861522974563534 4.182244224529506 20.642707513323433
Bi 17.16842141421269 21.65185932561957 2.786149587807118
Bi 22.077263942013882 12.449414531008706 0.6759000129201036
Bi 4.053504877429529 3.3478421060475823 24.568363387846997
Bi 4.734275519370686 1.3141954117313683 2.023290942754278
Bi 3.4250660993297246 2.9749562811297845 4.187953777572511
Bi 24.67549122562688 23.98021511472705 20.572641294254712
Bi 17.90153805566339 22.50892836413882 22.665621127239774
Bi 3.983902664407651 1.2751392186135793 22.16606464505146
Bi 1.075882573860232 4.024255033788614 0.2340385496747145
Bi 19.080891298143023 23.94880902234061 2.271239038788256
