38
Energy = -138.01315437 eV
Bi 15.778106625023485 16.89638251632087 14.004218676479116
Bi 11.5301311379026 16.287863305143315 8.796882939405084
Bi 13.960503725640917 16.355819354330677 10.725414065607321
Bi 17.587026272611784 15.38776213093512 11.69703716023133
Bi 12.796059798496072 19.20556698935819 11.260714576181645
Bi 14.969364227215054 13.771659011813993 14.993637349286239
Bi 11.087119537796976 13.37658505918859 9.643548707349508
Bi 10.444654105188173 17.272604573009566 11.491893130172297
Bi 8.787371409619409 12.299828929602334 7.985605567669182
Bi 18.773907511910018 16.88406088596063 14.232630760979715
Bi 15.141852273549434 13.879515768105533 8.613975562991223
Bi 12.12867466062217 17.143747816541254 15.222096469569017
Bi 12.135007886527168 15.076870646838822 12.932532154065242
Bi 17.595171284400152 12.549818652746858 9.79328362634323
Bi 14.197511190905653 15.841442963849103 17.087640332766426
Bi 18.036720870711267 13.954922895635342 14.328015891610589
Bi 6.7592380470627536 12.203336321385526 10.244438400298373
Bi 13.886618168956106 19.346257543446367 14.083516997142308
Bi 13.043806262620988 11.718054246421996 7.9729072402789205
Bi 8.793911915064777 9.94039886322191 9.862029838002769
Bi 15.108773348389672 12.799605898263836 11.530227758917832
Bi 18.175720259380537 7.507052598747406 13.966278069521287
Bi 8.474106851746471 13.611723570995592 12.395746655080599
Bi 13.321474716689464 10.383350320899579 10.70799166131357
Bi 16.77858468290837 10.036802671234039 14.7696811894617
Bi 10.221710886429275 11.050006662336722 12.398584144319653
Bi 12.933917333689868 10.358988635332304 14.947120859286212
Bi 12.435242670285222 13.519384110955322 18.148959874994834
Bi 7.799594206590767 9.321137463214411 13.396445877381012
Bi 6.6648977471035105 11.993188743761973 14.268564102936756
Bi 15.578203819754433 8.324114870830122 10.696090574672152
Bi 17.854951585526862 9.938083691534333 11.874225420367639
Bi 10.963830907107274 12.800198698853624 15.531830780231747
Bi 8.26628448342821 8.886465184155501 16.39437164204918
Bi 14.656515021414181 11.571822220238044 17.198791312534016
Bi 8.241400336438426 11.894421743274044 16.94168018642815
Bi 15.176981477456428 7.604454582018734 13.660563875438873
Bi 10.950802916419157 10.042450022081026 17.236576731217387
