30
Energy = -109.88598919 eV
Bi 11.553067819667715 8.740951079565571 15.294604083319571
Bi 15.4068163126758 11.18839886472024 16.01545459500798
Bi 9.193088047310349 10.450930752416388 16.330487928065924
Bi 11.318587452633361 7.361912978219479 12.536379762437166
Bi 12.770024222114802 11.42387336543382 14.462258229222837
Bi 14.704343585093218 8.302701067245675 9.152607836868135
Bi 11.345961231354863 12.509850848556633 16.943884476438665
Bi 7.480208365899397 11.624969069086802 14.092578278400241
Bi 17.558560632762617 11.31371293249182 13.860107227014918
Bi 12.621523782630096 9.661837498724035 10.95622396061658
Bi 16.788845540766964 13.809326306564135 15.405961558195063
Bi 8.5240377059738 8.409403482040563 11.93879217233853
Bi 11.690309166218578 8.580678118663915 8.27218599008804
Bi 15.216323249229202 11.976727357484208 11.946160624611357
Bi 14.739604514609148 10.685487880928482 7.352878380753824
Bi 10.504024445270632 15.146989466139557 15.611392639365553
Bi 16.142154954338185 14.775393448727089 12.544059609132987
Bi 8.703523521133972 7.8195568575472185 8.947488174626308
Bi 9.529990925217017 11.279689895959127 11.910929448476875
Bi 11.574072782060714 11.401000612675727 6.921248612930929
Bi 15.95248634035316 12.837807435326443 9.120851757699882
Bi 11.552765634710521 14.324828415738608 12.848869615019135
Bi 7.774125959388444 14.642639284424387 14.388172315297044
Bi 13.612324610215659 16.292724243270154 11.779903037363901
Bi 11.536898738218541 12.97082742692872 9.500581222631794
Bi 8.446094416829114 10.43917560009728 7.577479778344305
Bi 7.417983075832828 12.114673263075577 9.892900821371603
Bi 13.756360061456606 14.992213030666822 8.977398420918128
Bi 9.150974774044704 15.875458076377257 11.891751348423638
Bi 8.979023548053993 14.590366756968281 9.070513511082941
