33
Energy = -120.53456001 eV
Bi 13.816182919544628 17.230044256614782 11.856162377066314
Bi 15.221352955705365 15.193562445064899 15.627851780345628
Bi 15.574564698547299 14.955293941719185 12.781559168112103
Bi 15.612589111161672 13.56432937352505 9.415055342965417
Bi 13.491585729714009 15.761709472363387 9.151994411026715
Bi 11.739042706621852 15.533042245186119 16.03385957796184
Bi 11.630914932927789 15.4249345906166 12.954551524088775
Bi 16.218262175411905 10.964934067401853 13.33716498748193
Bi 15.497827427846149 12.185656931357801 16.07038514979843
Bi 9.098051140522507 16.914671596524613 12.196232277706942
Bi 8.858390566799496 15.412612374706798 9.578833269053225
Bi 8.773234023926953 14.645063477376302 16.249484418076392
Bi 14.04430443717442 11.666664828067951 11.254623980441893
Bi 12.647224601325615 12.703297914988788 15.143632803554317
Bi 11.321019911993147 13.678100710132483 9.780447415500163
Bi 15.657115405758816 9.52972910003296 9.791748093394377
Bi 7.529423461869374 14.612534383131344 13.439135792928738
Bi 14.59980556665462 8.49213354682208 14.131439097272226
Bi 14.59364888849409 12.62681356639054 6.696205974535712
Bi 11.305710459384734 10.47107398222435 16.7299390187734
Bi 11.754811881307486 9.60891737438804 13.808362327705055
Bi 9.436546213997207 12.254280782946392 12.809973522839073
Bi 14.392803003448915 9.56831254347822 7.044936720145636
Bi 14.645854258813895 7.111467488617114 11.357707598072166
Bi 11.520859073179608 12.913877278381007 6.822487616775954
Bi 8.663160362108481 11.650035626137024 15.721334158048661
Bi 11.00830666366994 9.891616087141518 10.188932509318876
Bi 11.334277917614216 9.847996280546843 7.1819109412158735
Bi 11.712534451688247 6.94563089972489 10.538765093607214
Bi 10.585017329713459 6.846032477364048 13.361598459567325
Bi 7.033378013025138 10.520884997457257 12.062298431011268
Bi 8.149088461172765 8.924225273965035 9.711429855903114
Bi 7.770728589357896 7.588137426086914 12.407573646187437
