37
Energy = -133.10573956 eV
Bi 17.19186824282696 21.544638650109036 20.4368249871879
Bi 4.802898025514515 1.8940675941698122 14.33049245325094
Bi 22.845536896250955 20.221963713358328 15.03821912292237
Bi 17.773559718881472 17.76862364191442 22.64534145779746
Bi 18.74368615587329 19.406307277755896 3.730072043033595
Bi 3.1599966029886106 22.61027253612328 15.242636110341873
Bi 21.13039990681639 21.31792891890074 18.217727936674866
Bi 16.479726519726377 17.306141785976056 3.613325842111384
Bi 22.702470968713715 18.234538621339844 1.3478327714642147
Bi 2.983900673035195 21.749190670467623 12.326090005751595
Bi 19.842894411656257 18.592015626709955 17.87772804691028
Bi 1.8310001125528887 2.1552941148319498 14.730221284090007
Bi 2.463474896773669 18.077503330801452 18.489523659263057
Bi 18.674354694696248 1.4749695849536903 20.70953894921341
Bi 2.9390011607831514 1.641902587958827 11.93900236919982
Bi 19.225166981733928 20.122042087429776 0.7735568315486663
Bi 20.380978644459706 16.847781572166326 3.84668505311158
Bi 21.938097740111036 22.95221043381936 14.19479278880925
Bi 16.286530008288015 20.42353198745054 0.06596799253710064
Bi 17.24728955404411 4.334922175327087 0.7597488107639583
Bi 23.13273955214389 21.101470387574494 12.124451455596004
Bi 20.01296590735007 20.59854023669473 14.017491886325686
Bi 14.741169758946272 2.747628393540023 0.10606073665862469
Bi 1.998266046181013 19.80581761458604 2.173062256234139
Bi 18.08808139933021 15.466811464713507 5.417723764687697
Bi 1.753107385051717 15.80340686557361 20.31669864827587
Bi 19.16957345174387 1.928069817077663 0.48492736262691805
Bi 17.414706967095018 18.52942703554957 19.719732552061675
Bi 1.773977618760621 18.626083208912096 21.398597218115306
Bi 4.361905423736386 17.24556005186212 20.66842551219374
Bi 18.25780277848024 15.15185122724778 2.4401115288673045
Bi 16.53137660508709 0.5701524511952537 1.28369844295683
Bi 22.865415426775627 21.195162570302323 0.706808282585419
Bi 20.132324480533 21.98646131043867 21.051701769376635
Bi 18.543635401224815 21.04188826945833 16.696289734002704
Bi 15.61951841705386 3.00721559817888 2.9533309057106196
Bi 22.4846824943327 20.31131248584063 3.570458332523016
