31
Energy = -112.55137982 eV
Bi 6.321278376745756 12.353276332010287 12.34238770489596
Bi 9.312526367047475 13.98574865551613 9.349506889435885
Bi 8.81900061771649 11.421953737845557 10.887837065656532
Bi 6.961450434652635 11.358735488824808 15.134312080339605
Bi 7.32083098412543 14.277857342604522 14.426562465059812
Bi 12.34832520315805 10.745853852408741 7.97310715685917
Bi 9.888977046389563 16.102474709921946 11.478605516479604
Bi 12.77084914062649 17.043470375324198 10.632700938246087
Bi 15.413808439098654 11.056863260680705 7.930338820434464
Bi 9.588695400504935 9.849637695627074 14.752376498629745
Bi 13.35459552405435 15.435052674460904 8.076599478386115
Bi 11.044353316598484 11.76549216818066 12.921981128853254
Bi 12.393919160263465 9.455356793770571 10.753260778274665
Bi 10.340244076037392 14.543103584655263 14.111452086238044
Bi 12.203113376651633 13.198562041502319 9.729938420490589
Bi 10.641582462985658 10.93365541343928 17.39954090884249
Bi 15.442986861033344 9.433318566380962 10.528001707182447
Bi 16.027357268758735 14.000849986196037 8.50483950269391
Bi 13.582428118346675 15.106059394388238 12.834617940352272
Bi 12.960357311404788 9.07727410801222 18.052757710768326
Bi 12.392535401507095 13.381919991109918 16.956905527844473
Bi 16.10646459436628 13.857591814175432 11.53103494728101
Bi 14.90436139803423 16.782977407517315 14.959331285614532
Bi 14.266205903352404 11.988912001406002 14.593143848343221
Bi 14.168132914974922 11.759517497778825 18.89890482976531
Bi 16.75897819789982 11.143354457958713 12.604510509170593
Bi 15.44861450636264 10.114158679169865 16.66163266689993
Bi 15.836490680326248 14.112053737304283 16.169619935571248
Bi 17.78861780291627 17.438623575951954 14.162017232783397
Bi 18.653783881579304 15.34352260268769 12.198944236073984
Bi 18.73215173666709 14.687404797202184 15.145459828255552
