30
Energy = -107.88297375 eV
Bi 16.233695179140557 17.509400953639258 14.615466443087001
Bi 16.65723461846259 17.64157828615973 11.602940302834433
Bi 13.121998173507635 17.067772233412054 15.061317896435902
Bi 14.041347901418705 16.063348190009506 12.119229889022522
Bi 14.41449369387047 15.20678860403838 17.00749406119947
Bi 14.065966056517983 12.81373244697485 14.742387721505278
Bi 16.760743261372813 14.984992136229847 13.003735396397655
Bi 15.907858512022393 14.904884494166097 8.753633758233839
Bi 10.668249962336615 15.165744235421505 11.240691434825097
Bi 11.318156119840936 14.216640355391617 14.689049431480337
Bi 13.353072297385628 13.62804036282973 9.930931667373937
Bi 12.064160806079096 13.435362619513157 17.709177852933713
Bi 15.187795005008306 12.349147509738867 7.34196142413026
Bi 14.37021529234569 11.4559281906587 17.442045282077768
Bi 14.215775551750545 10.442648577585294 12.6822502142842
Bi 9.564288956981512 14.395141618132318 8.497632385409085
Bi 16.155591901857935 12.23116736134254 10.169167277350867
Bi 9.84850927352768 12.557690612454241 12.500743990378945
Bi 11.622651016946195 12.772780548731692 6.951981744366524
Bi 13.011769289105185 8.7479361968105 17.361944780285715
Bi 12.076753718644216 10.18641301433322 8.440844902854298
Bi 10.172154297419523 9.713021791284701 17.49067234009816
Bi 7.679335258964189 12.05141020426261 8.869263695215245
Bi 13.492470800354502 8.02751350371298 14.48558481562761
Bi 11.46608769954731 10.18664285353676 11.424866446826812
Bi 8.757612040530038 11.5667760574733 6.062149603463329
Bi 8.99348795479138 9.801767838810788 14.70734844561285
Bi 9.116491074274304 9.46176153169282 8.18543453481613
Bi 8.970874023181274 7.198424081462683 16.294238169719446
Bi 10.614757262906465 7.43616507041343 13.7144509667606
