39
Energy = -141.80762866 eV
Bi 15.98405207684398 18.160518875886304 13.866469881557789
Bi 19.39243985244523 14.08419980469097 14.15414972355053
Bi 17.727833409420256 16.51410494914144 11.941756842847717
Bi 16.2019198406913 17.51728783355479 9.530629070269015
Bi 19.37769123855636 13.206063761336441 17.09395046185689
Bi 17.213179202220488 12.350964164203974 10.30542461089321
Bi 17.80943876870871 17.732853841848915 16.25726225033306
Bi 15.754927539153286 14.726424136444342 8.02476412215343
Bi 18.688352234985008 9.583451702265268 14.258251915098148
Bi 17.876260569069654 10.544134055469241 17.014988825836237
Bi 13.0792184254901 15.67843280156783 6.927970131588246
Bi 16.1562527633375 7.902878734629206 13.934327877297422
Bi 15.393731834701935 18.02003166259263 18.125265208906967
Bi 14.782186245295055 8.174646933690303 16.696155869555806
Bi 14.636164256350638 10.87903822612083 10.429373111566278
Bi 15.113289597636609 14.74414173933078 11.122134653837383
Bi 13.264684532631488 12.692062499926386 7.869382246099098
Bi 17.057833479314503 14.823876407488385 15.97422973193083
Bi 11.633084276713344 15.960307938079211 9.562063344138744
Bi 17.24962192131258 12.095345212824444 13.346006722880311
Bi 12.294123593027237 13.000645717788244 10.702713060794682
Bi 12.266847117071748 8.22132713270182 14.987755422924968
Bi 13.857822367408634 15.973499298267026 14.34702114226592
Bi 13.71673554234634 15.545318941546917 17.444437720969386
Bi 14.945586226683009 11.261841625667925 16.564063847104006
Bi 13.54503866037595 17.635689578273585 11.125215723329173
Bi 13.468520894768234 19.949050472501963 16.773788138719883
Bi 14.237506416043187 10.254699386060343 13.635774597803273
Bi 11.597417208038326 12.856630398414575 14.81114926544904
Bi 11.12507407396044 10.289468858564295 16.87565607568025
Bi 11.497386950058985 17.68939566603559 17.492070708510216
Bi 11.984150802594177 18.382097958263913 14.572531450925117
Bi 10.27295072075 15.214778672432614 12.85976327737809
Bi 8.310592261626324 9.682536272556113 16.10070405944832
Bi 10.05675198815651 14.11134740510771 17.13082573043746
Bi 8.741689221260502 16.206816948724608 15.252989483796389
Bi 8.98609949132363 11.599898514296305 13.715457720435058
Bi 7.531714688926915 12.628842740058097 16.257138340084282
Bi 7.415216208996645 14.348735629941991 13.159774130042527
