31
Energy = -112.1962521 eV
Bi 13.11393913626565 11.613836955228054 15.205105473814141
Bi 12.682507352008422 13.549471923198809 17.527593011162697
Bi 17.404767135490886 11.579081102182016 13.866588651189938
Bi 13.478059417556812 15.677976127045849 15.606553047183086
Bi 10.66056066932045 16.854922624356455 15.929164791107848
Bi 17.560004557626115 14.705955182242922 10.998205529437094
Bi 15.444560799201893 9.644854627615485 15.2187836984382
Bi 15.40445265752745 16.257517635736924 9.402980099474277
Bi 10.982579053832557 7.185563545056469 14.538795963581816
Bi 9.662677705752005 14.04413796380832 16.577311748435633
Bi 11.307572807296904 9.50933144165832 16.47379986726994
Bi 17.167251988710305 9.795776103786245 11.400658748490395
Bi 15.309752644536948 13.510537444500287 12.612582952273044
Bi 8.331746925508602 15.641325885863036 12.462638326596089
Bi 11.030395283558232 14.665020416123127 13.841380476840776
Bi 7.0422836025440985 14.112551450634319 14.608345018009599
Bi 12.849537143373238 16.150906647550613 11.099813656211564
Bi 10.383306575780997 11.308152450496848 12.40017905410957
Bi 9.033468846382457 9.522847462155868 14.438691491808843
Bi 16.195074284304035 12.270226707017448 9.832654012835805
Bi 13.895490033121652 14.178972148909954 7.699222925671348
Bi 11.532984142725581 16.060921248088572 8.330778091999578
Bi 9.733902755794276 13.575990914844434 9.003243530807435
Bi 12.998536192894097 6.961580735562066 12.273611607754722
Bi 14.23430227004279 9.732860359667425 12.395940899711116
Bi 12.526489458167838 13.023182967689754 10.205774553559127
Bi 9.220465501062478 9.581554576614442 10.144587479793099
Bi 13.23771476867919 10.161798937157782 8.83906967477178
Bi 11.597409166709518 7.724925083187259 9.647900328680656
Bi 10.501001631501616 10.888979487318512 7.665583950207353
Bi 7.676331255503191 12.708365607482804 11.951587101555196
