32
Energy = -115.31604773 eV
Bi 13.87373395477807 14.852874844087722 15.76809153149535
Bi 15.240148974059856 13.694863154795737 18.12669458587285
Bi 13.096750201823847 17.455615857857875 12.949871168289954
Bi 12.282213148329406 10.180218733122453 16.27857897897761
Bi 9.789861310723605 16.572022629239996 14.76799971934732
Bi 10.171705694432413 13.667956209112774 15.640605868784517
Bi 15.962323516862265 16.575398251037445 12.482954274565946
Bi 15.191032764100816 10.740053207772602 16.956315518129326
Bi 7.405445452936087 14.755492366075545 14.83172120007855
Bi 7.681637488689713 13.577215856012796 11.87777801586423
Bi 9.300470013591582 16.19151037196067 11.702329186307857
Bi 10.516756440153634 16.884463183055214 8.83088117428242
Bi 13.538378619850686 8.78018357999567 18.6523045919556
Bi 16.896359394849956 15.000726333911999 15.952497661389552
Bi 14.399078669541291 17.91332631235069 10.218275398688856
Bi 14.286691273966614 12.285874498945908 13.785324601633112
Bi 9.359878830212176 11.628302803416146 13.490121254204325
Bi 12.032298831751826 14.724112528045797 11.994806577811913
Bi 17.283745649973735 12.592694555278076 14.036165782269773
Bi 16.375694983750527 8.431412105791628 15.100614549618662
Bi 15.826203419414275 13.689537765972021 11.514533297040442
Bi 13.590248994352752 7.4391580358099185 15.905516156635656
Bi 13.174682291361018 15.308238241341003 9.169275785006835
Bi 8.481057351123923 14.853640045562313 8.212003815721681
Bi 13.73476075610646 11.630912683283867 8.638061550005496
Bi 9.463499735879973 10.15513184000829 9.902981174717613
Bi 15.644083881028907 9.565741707731751 12.455721791192458
Bi 11.806672923772254 10.922251514262516 11.677331261449407
Bi 10.533867185712664 12.920644668097884 9.235503122486712
Bi 13.002118769423324 8.138855226607872 12.045949286680015
Bi 13.772919567828408 8.662076299997688 9.082426178478432
Bi 11.439295469693358 9.919370646116557 7.532849293408551
