35
Energy = -123.23369397 eV
Bi 18.376746921156723 22.725310141856518 13.668326423815174
Bi 22.61197294146563 19.414339605818796 22.859094736535003
Bi 15.114834479850359 2.365421288455544 13.44429082513005
Bi 13.411411524266184 21.823687061939076 13.51166616320806
Bi 18.825467366890898 18.979749007545568 15.42342046085362
Bi 3.6569786616791986 23.6299316285675 22.38283944350998
Bi 16.11329176734722 21.21254077795653 12.167071485962936
Bi 16.67213856565394 22.413380303191826 16.16445984882483
Bi 0.7383983380661417 17.1886432764631 22.685732925909267
Bi 21.56422936193807 15.279894202731533 21.32443494059718
Bi 21.641383948743673 14.480264464034176 18.417552720135728
Bi 19.361797299531684 20.700697950717664 17.800742110620657
Bi 2.772443916985171 3.7611391510484187 0.8838984859625804
Bi 14.163118132395049 0.28508023860996945 15.376204716793
Bi 17.56566878809073 18.33468488019941 18.10032128402131
Bi 5.676693603897012 5.5304258520794045 3.696654501125992
Bi 14.219948033357825 18.36315768590933 8.649070225706714
Bi 15.435010590821868 19.90146888558924 14.884814096973571
Bi 20.359867760275574 17.15839607952959 17.52399220263609
Bi 3.262249488060504 18.924559580297906 22.957541452233553
Bi 6.186732697280558 1.6949130261800487 2.3437612444797002
Bi 16.840956787239733 19.354563336362983 9.657634264572337
Bi 5.421877822149792 2.939432726057545 23.44073413952847
Bi 23.74396013662576 16.37686624404052 19.46054239821551
Bi 7.38288223813828 4.434147173260939 1.5164436028564172
Bi 16.354508788362022 21.632891931819053 7.78984265726141
Bi 14.726455650085112 19.820080651343837 6.164697699464033
Bi 1.5840044869127081 0.9469912542106881 0.5180037579595702
Bi 3.797954963118684 22.935341649389326 1.5511458503567577
Bi 22.02425735892592 19.12068203169042 19.354435041112428
Bi 17.686293559950514 1.5994834203184034 12.50957871513051
Bi 1.6781476577437977 20.67510475298397 1.0712466146833948
Bi 3.8243172352055286 3.1411311281917556 3.674996895239754
Bi 20.21154587296454 18.022725446967947 21.495477283669985
Bi 1.6811434110452552 21.249539080310594 21.861412292599898
