34
Energy = -124.29899745 eV
Bi 18.105939054849046 16.990616929233205 13.566176586057708
Bi 19.195261283072657 14.354939915109854 14.513076195270532
Bi 17.70382018064268 15.99335674005745 16.394959028014906
Bi 17.554100496765066 12.584465151138897 12.085477353225853
Bi 15.448815921733155 15.8418597926858 12.54320637233499
Bi 16.93957932872612 9.561363610151162 11.81705895854628
Bi 15.020461825564892 17.311810421509843 9.845311144147946
Bi 16.716316411938784 11.152628788725552 16.1601113829033
Bi 14.699683852016557 14.577279123447877 16.36065578066467
Bi 13.601327331162102 17.84879715565307 13.926903087061435
Bi 14.643898440702838 9.985081596422116 9.8367890518054
Bi 14.136387741173913 14.906444940334238 8.152532616040874
Bi 15.153365965473137 12.627252904040633 14.01227455739192
Bi 14.838594402662336 13.004845683053764 10.49659672560581
Bi 16.221889372668926 8.536279070629398 14.631923643469918
Bi 14.233141945646592 11.843743932312913 17.836376843811152
Bi 11.9673216515836 15.846980452591488 15.55939495540267
Bi 12.574335473173424 18.644183100562124 11.156050807011207
Bi 12.488174122455135 10.951958949302574 15.462355679623776
Bi 13.328113814016717 8.0651169936141 15.444206827005472
Bi 11.77416026904957 14.438043091172156 10.063664753241335
Bi 11.103738581462904 13.775474092440735 13.476915562120736
Bi 10.241428695785476 17.02336127121756 10.075458316123568
Bi 12.387998345181009 10.615133577674802 11.807589896306448
Bi 9.450175198959535 12.899869265469437 8.817300531262527
Bi 9.622983970402956 10.338106014553423 16.307893304970285
Bi 11.944171042531472 7.734004293423672 12.749053876597213
Bi 9.03662448427788 15.904925713936512 12.6407081389923
Bi 8.68505989774844 13.014534877340747 15.211116311293642
Bi 10.191147157950025 10.097787126663214 9.769080910102664
Bi 9.25539437818098 8.237000237207237 14.087969919956398
Bi 7.4234230557648795 14.070768273388754 10.81435679573878
Bi 6.8557511780171705 12.037432211883106 12.997721472018899
Bi 7.907981252540158 9.528130095058957 11.69482433552566
