38
Energy = -137.69961643 eV
Bi 16.83023115072355 10.879715006281065 15.180194962263094
Bi 14.08625329919416 12.131694257309938 14.495589198362756
Bi 16.242607653454193 12.575815024018254 11.423793286674828
Bi 16.43346644810685 7.864119595870126 15.274779933080314
Bi 16.97831537677073 9.221616940739773 12.62936344985716
Bi 16.915786547412306 14.900121126544652 13.387376693114376
Bi 17.95173245983238 14.641834664391087 9.673062117073782
Bi 9.996375846633411 13.441220734012335 15.381921850174562
Bi 14.040245491707772 8.478172942651009 13.442446676207382
Bi 13.693110922021352 10.289212549089441 10.31476538712231
Bi 17.298246918394764 17.197059389852633 11.17231319061124
Bi 15.265538557181003 13.654186917739052 8.698212191259238
Bi 15.413172974276494 14.323157658367956 16.14185880452055
Bi 14.206879458812379 6.007875610444762 11.463243236342297
Bi 11.604024740694921 15.640275259872356 19.158644007756273
Bi 15.35664234029617 7.803093038235415 9.318932635071375
Bi 11.919934569278661 11.500843241336511 16.669504044740037
Bi 14.158193492120821 16.400890939197954 8.194692724371476
Bi 13.962531975931768 15.627380959506729 12.815511948436129
Bi 13.746922318197411 16.8108292940824 15.63458000112395
Bi 8.69737561550984 15.262882472085385 19.957223599388517
Bi 12.386219347937129 10.608873170956603 7.550019425397316
Bi 12.908328207296774 6.1826424176385535 8.674673260517423
Bi 14.398584845516043 17.922896056677203 10.800531307561233
Bi 10.543548262951452 12.883363868490918 19.915839998320624
Bi 11.249062966603868 8.618940811303379 11.290570484926048
Bi 11.002602117171671 9.375410924299103 14.78595989435134
Bi 11.90497184037375 13.137168704112092 11.864188402837122
Bi 10.825815129909248 16.217532374310387 16.2927909303787
Bi 11.342235083729536 15.458295284115744 7.5002849554291435
Bi 10.642344384660428 8.233154026121618 8.323355008038194
Bi 9.703789542970718 11.013006929385721 12.546976351339476
Bi 9.939725484785473 15.526126663539374 12.387213133170798
Bi 8.272958520266455 13.050690040641472 17.897516801237213
Bi 10.80411569529302 12.855932675895545 8.96832524459913
Bi 9.23858054767147 16.418521551096532 9.493745766093499
Bi 7.526902530736668 13.732561349971245 12.09588693989276
Bi 7.760952806478492 13.793307271939907 9.13824767675835
