38
Energy = -137.44237066 eV
Bi 14.412202432865001 9.88440335414539 19.576029512281654
Bi 14.134190702277861 12.86641294906058 18.212904618804313
Bi 13.079935206646757 15.745407876118087 17.561923216728648
Bi 11.746301765597634 11.836642098134186 16.600470318602607
Bi 13.699198590357417 19.866429209641847 17.294688011268534
Bi 12.191994429771821 9.03341978414395 17.855773430517264
Bi 10.702851915249433 15.138383208793103 14.882298275023174
Bi 15.507571074143572 17.527194793444767 17.9385270221844
Bi 8.678338897170017 12.774099058649094 14.76771413350229
Bi 16.709078877175415 13.068378584972105 16.42441272422891
Bi 16.876620327625943 10.01553237871227 17.68337175640139
Bi 9.77942626204981 10.270201112071438 13.332657931344068
Bi 14.787144610824802 8.56904060856841 15.990712193930195
Bi 14.05219292197675 11.212821687073724 14.58098134415921
Bi 14.52959249198038 14.815031969083185 14.926355250201793
Bi 14.339016941728405 21.060249558004866 14.578885044413338
Bi 6.893750539510451 13.746293808283998 12.527203619361481
Bi 8.18994529479667 16.500083980557232 13.754617463800134
Bi 12.211716141091403 18.918030902976504 14.807046105485659
Bi 16.712180759897056 16.964776299111634 15.155387569867772
Bi 17.757456730329405 10.807712045639477 14.571204670378023
Bi 14.801640850333467 18.336991528786907 13.251587072718468
Bi 11.547712178106881 13.128777219570678 12.215585686138024
Bi 10.596625175042176 16.43379116918966 12.067301207184201
Bi 13.469808087046081 9.568655890976332 12.039093948896282
Bi 9.158286040097249 14.03892400636673 10.489229422320543
Bi 15.755671571595347 13.402387986345643 12.062066901139577
Bi 15.370058841261015 15.66411859697709 10.112902171288235
Bi 7.214858859535707 10.561528532089334 11.743388158445848
Bi 16.237604554672657 8.721492655373362 13.066846226956239
Bi 17.970360367673432 16.753616276003196 11.836048717091971
Bi 18.730737462246875 13.909782592815294 12.553581593591092
Bi 9.795539619129723 10.929437105060575 10.328584737961185
Bi 12.819049588420068 13.647507313766923 9.435879489455306
Bi 14.74918225863671 11.385895907756913 9.927454832295654
Bi 17.03518828317822 14.067689036975704 8.08758946874044
Bi 19.536438516445155 13.372186655351245 9.617299874915327
Bi 19.01752287678068 16.253664302675343 8.939388321643031
