39
Energy = -141.23202605 eV
Bi 0.4641572450226162 19.033933433382575 0.007736442399819634
Bi 17.264046798318677 13.261995077356206 16.968907374201255
Bi 0.022474933939111905 2.5315399350444214 0.8955246119360648
Bi 17.532508665339204 16.4663934479098 3.8707848271506156
Bi 13.64146288686563 16.20979750175479 12.46854929479637
Bi 12.829172447668048 1.4973317900375622 0.11508318158113794
Bi 18.237394528874233 1.6371137584917428 14.110084430160343
Bi 3.1201898964545673 14.950571546697795 17.84342600132347
Bi 4.40069300373039 19.281763728455015 16.782048848678958
Bi 12.23715942653986 16.261273967166012 19.249721524540707
Bi 14.755419025128052 14.569928877818745 0.44646692130281385
Bi 0.7508061679338704 12.172088773807321 16.8360698916565
Bi 13.32349066956622 14.075288443228516 14.55871516061388
Bi 17.480673231030725 3.2784188874997238 17.94923685460208
Bi 11.158592267914313 16.18254871620954 14.239499245148169
Bi 17.091441092900634 16.04085411941789 18.289221574616867
Bi 16.89357615382377 0.9968517641788919 1.5936165791411205
Bi 17.758136314258746 0.1493959802787491 4.422980946848504
Bi 14.706553259485991 16.63680815212623 2.686158300870753
Bi 15.20986198012454 3.3841404517164047 0.6534509273266985
Bi 14.506160474590647 18.29262459661138 0.07312478438126305
Bi 1.5513818790654268 13.378314207505694 0.5331361589252609
Bi 18.242486633883043 14.40510802154111 1.1823418236240733
Bi 13.232716907669602 16.730833700333747 16.389630084718974
Bi 12.415248544165495 0.6397570791952618 16.598222242739762
Bi 17.060276304961974 0.4899345085984697 16.769811719446917
Bi 4.93825461101513 17.18692400353089 18.88513690699123
Bi 0.6098465756395518 18.088781918566927 2.9665476043427508
Bi 14.768025128191653 2.2339213042846504 15.608178619604647
Bi 3.4673046695173935 0.31192810589025954 0.3044436268313234
Bi 17.8997045594109 16.511460246626797 12.559732593829768
Bi 15.501546790257752 1.1621256252965295 12.804011517183667
Bi 15.686348645034078 17.829358743509637 14.135204813448306
Bi 2.102744398128707 13.894909823817734 14.661260476682873
Bi 0.6656421596993142 15.992941965894294 16.389194174106546
Bi 1.4365017088818397 18.92132689847876 16.011291806989302
Bi 19.333267321760285 11.998814694439108 13.673910634429827
Bi 0.6182019053996971 18.724523270200113 13.061350107374341
Bi 17.004606286836378 13.874795571351573 13.955915725256789
