36
Energy = -144.0721212 eV
Bi 12.909764530665052 16.771387997869464 11.894362841393196
Bi 9.381188739340331 14.410375028951318 10.626641181985876
Bi 17.93962848891969 11.392837584082871 9.627802548738591
Bi 12.833877939045019 14.262528752736804 19.160869170746658
Bi 12.827129335273575 16.31270384529859 16.766556754832067
Bi 13.134514279484522 10.965889561141664 10.847330461502962
Bi 14.440688384681057 13.359060733224451 13.627527948216006
Bi 16.527022740991637 11.471072217189088 11.931966695987885
Bi 12.705304905902235 10.139123018233354 15.991071380253235
Bi 10.491841794460335 12.976320289033392 18.322571145494816
Bi 11.509998508279695 11.108790357546427 13.76469653686091
Bi 13.02215493150132 18.42613199260514 14.063541472823934
Bi 12.126169353090955 19.133991615083914 11.522932687328101
Bi 18.967999275757432 12.294483650734056 12.002663147005803
Bi 16.544255581831308 13.286364755045508 16.39080805909784
Bi 11.773794101797877 15.232936305285689 10.008855032366226
Bi 15.234801294719507 12.062899061102387 9.639464224472826
Bi 15.243173794526125 12.706757563695563 18.776234152813586
Bi 16.98118607285294 14.008107280435647 12.260956798540818
Bi 10.312675991850119 11.678577886076296 15.9899032687629
Bi 10.66054983144629 17.96986117264821 13.311695749444983
Bi 14.181339291307479 12.275781921661984 16.217378430908035
Bi 12.867961520775623 11.606303689330046 18.774859247126475
Bi 16.61462582478799 13.582391242865212 8.167309367226261
Bi 10.933409591503152 10.150608092065553 18.01680683880976
Bi 18.49377564163285 13.974190902023892 9.980906771140468
Bi 10.512837117760863 15.555777198341978 12.568643850392764
Bi 15.687586565244139 14.950674750974088 10.225170618838309
Bi 16.28200191743001 15.115546268239692 14.465106707870655
Bi 11.862988113030653 13.827238706248869 13.87700046487727
Bi 12.147380586192474 13.860631192386114 16.449567050423564
Bi 13.578510409896504 13.656307962088137 11.176092353893386
Bi 13.884952887058162 16.036692814193 14.341601883438614
Bi 14.300721910942812 10.726154518129645 13.191397548117283
Bi 14.95883273463652 15.059252129407781 17.59022855969498
Bi 11.131607133006607 12.658499065646525 11.435730170195553
