31
Energy = -119.80730694 eV
Bi 13.848447050543182 13.115517671836727 8.124020524138487
Bi 11.32509095302703 12.921701434133556 7.432797924377047
Bi 12.16151004505006 13.41267400633362 10.032920417530084
Bi 10.233931239961734 14.710357808205858 8.873862726452073
Bi 16.92441141165778 12.01248518243429 12.008035635925166
Bi 11.028670644580096 10.984895596603613 8.962326879224658
Bi 16.357625467159366 10.227425102702432 10.298487611789454
Bi 12.348898195586328 8.847555416367044 9.157043875266364
Bi 14.041580368480176 10.791618889338649 9.18570149791647
Bi 18.49572819805381 13.786195890556238 12.82974990744386
Bi 8.38373708831992 13.915549312866295 10.443128309557231
Bi 15.714186170018808 14.057193776929791 12.941337636877078
Bi 9.718321384420053 11.836683328620698 10.903075438520531
Bi 17.12950520139357 14.73737705980767 14.981146856837277
Bi 14.954226070396025 9.882505740733365 12.339152774013034
Bi 17.16990599987478 12.226116046334242 14.653078118210296
Bi 12.666993163706204 9.393449709186118 11.557947286615683
Bi 8.957080564215905 10.374807852339462 12.834337758423386
Bi 14.488998943910767 14.874163375718274 15.885966418490558
Bi 12.593989010514493 15.572423978696463 14.284549323838391
Bi 14.713089278290912 11.817462968899116 14.048412990540248
Bi 9.259948719022432 14.369807346741238 12.700360210882101
Bi 13.036122368490325 16.8703155137241 16.687957632102226
Bi 10.95049237085024 12.394031143206096 14.773517021581858
Bi 8.544876944765377 12.480623706179147 14.256855762289637
Bi 8.802094522452808 8.270990387298404 14.047493338127323
Bi 11.190652875598847 8.367452871745868 13.189889235398756
Bi 10.269246366618304 16.558538290790576 13.684835844473174
Bi 12.193016066166617 13.87975486959952 16.46925485719993
Bi 10.706019330783702 15.991818211722583 16.167217672989224
Bi 10.796340979036199 9.894332301400128 15.061679995816688
