32
Energy = -115.6658642 eV
Bi 10.570871270124313 18.446361817644735 1.0586160453349076
Bi 12.755845200266426 1.3209607729146076 0.03293254957026912
Bi 12.068530909237689 15.86938492453104 1.8347132932522858
Bi 11.57274550110972 18.294898803390065 17.066817799039097
Bi 14.95421400723971 1.5687775591999515 15.738299206290055
Bi 15.306258544556863 12.947390674071654 2.0148448167025137
Bi 11.72736001073774 15.38538101442566 17.798966657923334
Bi 14.021819578212794 18.218981178369052 14.034993389222167
Bi 14.323282922110057 17.207306358357506 3.3182595246266393
Bi 15.05334163536915 12.435852527228487 17.942444527283307
Bi 16.7641025558552 15.460504631056418 2.825469316701044
Bi 14.908981181831987 0.9503118630949816 2.093346756818525
Bi 18.030686027467592 11.661260905256905 1.3091411787057456
Bi 17.646345125835882 1.4870215179257058 0.8673163349885648
Bi 13.761456613174841 14.195674703708237 15.854703068485613
Bi 0.5929859269888298 14.285251944191971 0.7889266775364431
Bi 17.752131921729756 11.315997587079584 17.16624426404422
Bi 16.001645763560067 1.2612966916384563 12.869931879964858
Bi 17.079320409178088 15.77398254394957 18.76686422176736
Bi 0.08412520082547606 18.07892264291232 18.55673839135226
Bi 1.4038857298623693 12.882329231849713 17.15274452766276
Bi 15.908070531543359 16.294498648768975 15.515261153705122
Bi 17.83667297190619 1.3049100326744054 16.781314732774632
Bi 0.462157375887937 15.371021841563635 15.69202538978143
Bi 2.459674883607305 17.533232335354192 10.052168182071625
Bi 18.299598821227566 18.39290400720425 13.79334027301552
Bi 17.339427721165126 14.216889126832072 13.824443390981028
Bi 0.3354265133222959 0.5524082837473113 10.67967856232436
Bi 18.628996808654843 16.209255298425862 11.568691709151267
Bi 2.1704962350282795 15.455006675100021 13.069935262439413
Bi 1.6910873909027426 1.2736418356539259 13.261293703904096
Bi 3.7625462262915654 18.038150888074206 12.718308761257237
