32
Energy = -117.12190171 eV
Bi 12.993369957196863 6.581407481905076 10.760587993383325
Bi 15.136747771772333 7.587004113405167 12.735018032590807
Bi 13.735633966309708 8.908212346199429 15.069220904691992
Bi 10.195722990853866 7.423904832122453 11.58510039057083
Bi 13.13049455026969 8.652906957752098 8.520589650589294
Bi 10.210392321906209 7.684573762446444 8.534484810629397
Bi 16.185598771870556 9.79483431703319 10.993783047338622
Bi 16.173497197279133 10.521836976907021 15.87290050925543
Bi 17.250683729106065 11.626457037553498 13.184628254403306
Bi 13.413093419685827 10.995905285586723 10.511477796622346
Bi 12.60306807529464 11.655304383114942 14.215446108937645
Bi 9.819699839014039 11.471399073680136 15.628370855736286
Bi 13.79628331946145 12.093631112613675 17.019336889091726
Bi 10.360946734889545 10.499036749747065 11.984800968553133
Bi 7.745395938368611 10.680393299684964 13.52773541365529
Bi 9.506285485773198 10.688458231898734 9.042869748419198
Bi 15.078891841868757 13.706652812293559 12.985795739363004
Bi 16.30339162207231 15.552097218925022 15.042484096243522
Bi 13.91415367196404 12.967267075244187 8.20098427586302
Bi 10.989655028572475 12.669647101030668 7.25167501878909
Bi 6.720197107131553 13.271312153147996 12.356925856034193
Bi 14.245344482917496 15.096990476374717 17.199910678227383
Bi 7.211466903142335 12.782502423745012 9.33026404725559
Bi 9.216273854143521 14.46090690270547 15.736249331858872
Bi 11.609184185033813 14.325807722401148 11.904570283905016
Bi 15.924484234485414 15.820357704064028 10.927338600808865
Bi 15.07099191976017 17.688832161450318 13.235227954433418
Bi 13.25861859089947 15.599807382466748 9.517315731959574
Bi 8.781893699061003 15.379638611940413 12.891735091652002
Bi 11.671043981506891 16.349160030481027 16.10761966414355
Bi 9.640052669285597 14.529898666528643 9.210229294905462
Bi 12.101263792748913 17.100760584807922 13.23662453210361
