37
Energy = -131.10020916 eV
Bi 17.858392544995606 1.4924068643146229 22.973747028472097
Bi 6.0257208097414665 5.27446070039886 3.252866139220484
Bi 19.215011798318358 22.992526009853055 2.0772808093469606
Bi 0.6346469521212644 18.338238894736985 21.522157438890588
Bi 17.304183459238168 2.247364227867942 17.280605687023673
Bi 0.9580778561294218 17.20441019012139 18.707333242433815
Bi 2.9679463703613944 16.37754359909594 21.280865375643323
Bi 18.546473435887155 3.482137535565383 19.742741947225504
Bi 21.5494670447809 18.201748337404425 17.151643652098794
Bi 17.543748281272986 20.89666865937298 22.687179988811753
Bi 5.407811106437836 3.0588820910348558 0.8331022874795476
Bi 3.9075324464257766 1.02865463710134 2.4739944056030776
Bi 4.337670203023426 20.033086598453156 0.17193837218296673
Bi 17.185516397632668 18.115951907424282 2.003108347814351
Bi 17.106879168693872 21.847183414437264 3.9016501272918576
Bi 20.584125617020792 22.399314848275885 17.006417059079133
Bi 21.96237764162301 1.500158387814886 18.29006830704151
Bi 0.9386081239597099 19.829113003112596 17.125973487494566
Bi 3.547602883023061 0.8768216758321585 22.601405833126854
Bi 13.112740837984257 15.689763756607867 18.318486675419965
Bi 14.255725453110825 18.378445461769235 19.222044454572135
Bi 4.871311336400901 18.639310516109134 20.67679505157506
Bi 6.812912506798228 0.5029223065005506 1.7517850478885273
Bi 6.035477055121178 22.312762913949882 22.228019462510883
Bi 16.084621065677467 16.03512790525529 18.537456545184668
Bi 16.042813201284783 23.092476699105802 21.20315283472711
Bi 17.152048841005854 17.889529979972714 22.049219825031056
Bi 20.043229124899053 3.525556392936189 17.076829861531326
Bi 14.158649054449194 17.554883572954157 22.171662161198505
Bi 21.856196880343315 20.495076908053075 19.070831630588234
Bi 15.399091387867793 20.5446041537282 1.6632678077406715
Bi 19.38579701965503 20.037134489685915 2.964076014342043
Bi 17.77384245212833 22.600738740884054 18.503051073992992
Bi 2.5616281348391574 20.63554529125203 20.915275719342073
Bi 5.9833066725363855 7.598770673097107 1.8999606764249803
Bi 19.75873765056366 0.7455870993908259 20.504732020132003
Bi 14.532945634299836 14.791955691015255 20.852907775274264
