34
Energy = -122.21550728 eV
Bi 11.987953299695409 7.338428601456438 11.003206470429047
Bi 15.022771355923393 9.471788858304569 11.43851833320028
Bi 14.027175891158924 8.35686101148872 8.034695490125861
Bi 11.889032403268189 10.38564354108723 8.91840877069146
Bi 15.022860209465627 12.373981574634062 10.40879746412311
Bi 10.473052555146456 5.120463760992661 12.485410192254104
Bi 10.010691416473671 6.4840041496001986 8.65624617809793
Bi 14.09589106978908 11.307189656861743 7.070370764225822
Bi 11.683460350618876 7.353314393146359 14.146965403715415
Bi 17.197582362880407 11.470593223752177 12.33939541583039
Bi 11.864195487094452 11.470248954408891 12.930106024396624
Bi 14.024354494810712 13.480637941891326 13.810159356738414
Bi 14.072430134228759 10.52992233079994 14.771084573637365
Bi 11.60690983326082 7.589249877139549 6.289534369866675
Bi 17.194619343349814 10.373396124030174 9.503308784307727
Bi 11.316498773196308 10.679357138925234 5.825410893004139
Bi 8.273988559074583 8.85588672443225 8.448220719113868
Bi 8.97185724665655 12.537376859330363 10.108633225686983
Bi 8.972451153198444 9.308001193854665 11.731940824248644
Bi 6.205744571344938 14.436676952606012 11.70736477891603
Bi 11.687853167121089 14.488974027837576 7.700299655267143
Bi 9.265581427822852 12.81551445815446 7.052723187051927
Bi 11.991295456325108 14.513302915065163 10.84377951689393
Bi 10.474229300020498 16.725120174684946 9.354551016950527
Bi 7.796754431624322 15.186112959277667 9.113436240207696
Bi 8.280935990962288 12.9870579502718 13.399169871715042
Bi 5.889674469101697 12.025148133083647 9.85498280426631
Bi 5.8875791685372665 9.82066311739275 11.988549747576853
Bi 6.202280783096239 7.405429865771151 10.140926194445276
Bi 9.258569875498551 9.024513503235784 14.790021928479682
Bi 7.796986373835504 6.658808134317506 12.733260032002688
Bi 11.6065352791242 14.258087067788937 15.554218841148073
Bi 11.302413528403978 11.168272463682749 16.02387459743845
Bi 10.010348376354816 15.364529806836044 13.186986333946678
