38
Energy = -138.08637838 eV
Bi 16.738312929486906 15.332402004287532 14.567269242189603
Bi 13.782615795012422 12.863866251759603 16.85535119817248
Bi 16.73846142653578 11.715120072889508 16.138271403067584
Bi 14.25640553789186 17.056033547192673 15.16553309525178
Bi 10.580127062369176 16.1111241663802 16.183629982764536
Bi 15.907671607100578 17.517061368091973 12.655109986134663
Bi 9.734028618325832 17.86520791421725 13.848016437500736
Bi 13.465728510982647 10.017043771021756 15.634778803313923
Bi 10.69295281102285 11.995885735447809 17.329320128300314
Bi 11.586454380932883 15.951233603119064 11.997632151673907
Bi 17.42346160298328 12.917422491170445 11.661733422473462
Bi 13.888135995234798 14.237581580444237 14.046667727542532
Bi 16.04832493812633 8.86266387823906 16.832944381565074
Bi 14.23071035210695 16.591657507808243 10.195664815876585
Bi 7.617285762681532 16.40937388629119 15.695983830066188
Bi 10.643292898423885 9.063234801204839 16.797777545612256
Bi 17.06379649179956 15.308798657885971 9.821224216487918
Bi 10.522715543947362 13.450194170516976 14.58327928723288
Bi 8.011996975600947 16.095860688510136 11.876416165024237
Bi 16.17913779730786 9.784896935388668 13.95279180323174
Bi 14.507761414712721 11.980293188216988 11.46978641034959
Bi 8.491020410574775 8.687555770019834 14.672340666557453
Bi 16.57596719489871 13.621180387034848 7.2753951574443025
Bi 9.885770080422299 15.521210852238465 9.496212168912708
Bi 7.5517932682961835 13.901444705494956 13.906598079039217
Bi 18.619054409726232 12.002560079129415 8.919885733585854
Bi 11.748817878325449 8.932289079351154 12.276623477468652
Bi 9.432848039969508 10.874613102437626 12.725415695979667
Bi 13.669170584736445 13.725871774455 9.157108781402973
Bi 16.338900740426478 10.597010933622919 7.539437835620258
Bi 9.789269026784948 6.685697523152677 12.75270754893632
Bi 15.111514132090676 9.38285536274956 10.023674706168649
Bi 6.991990605495577 10.131174830124506 11.040967942262768
Bi 10.893427282829618 12.747760397025786 10.244347768725529
Bi 10.807393428002763 10.720679366537793 7.941953206684632
Bi 12.265592304642688 8.469762997728253 9.304106210757414
Bi 7.662025775249798 7.21816159420328 10.618839502415542
Bi 8.148492264540945 9.255640904210743 8.397629363807322
