38
Energy = -137.91100429 eV
Bi 10.791461942207194 16.714276998894565 17.250870389844714
Bi 14.154471682587527 14.762491501307434 18.116257375107594
Bi 11.924744305476002 12.75412683900637 18.80229761365411
Bi 16.09923109018771 12.559139725577262 17.50527650813356
Bi 12.297046472978248 18.055326400372863 14.934218994928603
Bi 9.928330178582748 13.243945222165502 16.58940409966749
Bi 9.286496275836603 17.702581611015145 14.789528380153799
Bi 17.346079562373152 13.592167980483033 14.799261000053576
Bi 14.698927309958043 11.796447910340266 14.98002630877112
Bi 9.534287979840101 10.130120388693799 16.821099614848208
Bi 12.56469131362976 14.942589169073912 15.459536596166405
Bi 15.642054573887167 15.773290603077204 13.44859696942571
Bi 12.213994441736233 9.754826113414463 18.24924324174265
Bi 15.547877734308567 8.953552526177651 14.352054238717729
Bi 11.602092823117154 16.294297167209045 11.675158051487598
Bi 7.73749833363499 11.823881530402542 12.771015363562734
Bi 10.946099310716372 10.954170164081765 14.190005282098301
Bi 9.440939154162123 14.985527485045294 13.364160738422484
Bi 12.69522066250266 8.687189562207326 15.410669655118657
Bi 6.984234020496877 14.629863291491107 11.569625556453216
Bi 13.678636707657875 14.05062119162065 11.737288441446138
Bi 14.21240416246507 10.008596566541852 11.793572188898384
Bi 10.033971953368873 11.892684911152251 10.682040498256358
Bi 16.92735328250748 12.377321594340122 11.788989320732307
Bi 10.772858794134 15.630808955789313 8.721671344481019
Bi 9.981214384999777 8.465657223952933 12.45626822546289
Bi 7.948479953612483 9.738271145382408 10.561845350075808
Bi 15.29595881161523 11.872915816516809 8.931613063642411
Bi 17.571187331284424 15.286554916832891 11.081989793903645
Bi 16.22498642721183 8.472220213929859 10.040404486726139
Bi 12.26986018071377 8.088342741035357 10.437782200070835
Bi 14.892107872697853 15.969309402621114 9.67517785726018
Bi 8.363813332715464 13.814065469477304 8.992688225941869
Bi 11.914282569309918 10.0414472202957 8.118345310095814
Bi 18.17061334156742 10.77908582291267 9.47112577151447
Bi 12.04862281820253 13.24630192637146 7.341210295434061
Bi 14.80735357055565 9.311139400705375 7.392001934992448
Bi 14.904589016361886 14.27950427177871 7.123470019136464
