31
Energy = -111.61776189 eV
Bi 10.168853521960095 8.479153009141111 14.909916397308884
Bi 12.57687755860899 7.238196623401775 13.612243620382438
Bi 16.50077154252959 8.76242039260209 14.334769077855386
Bi 13.996579224505773 8.271516307797965 16.202358736935537
Bi 12.258049889264067 9.986972205439509 18.323833854996153
Bi 8.479913285668887 9.53300620334162 12.62780618835017
Bi 14.162736770412 12.326555756866687 18.59871108326207
Bi 10.810841085837774 8.746408905244005 10.761830732750568
Bi 14.466312177777892 9.594073461671124 12.230542247458123
Bi 9.356603514635806 12.197916198585556 13.92597855385488
Bi 16.418132460673267 11.654757381039985 13.634640440244079
Bi 10.377368093537335 10.222296062670067 8.046938635692507
Bi 11.490679819981025 12.63794154004026 17.22110971141391
Bi 12.583814900066383 10.553839117008625 14.649903872220646
Bi 14.491509698015022 13.019702293418804 15.620393740291535
Bi 11.043585339765807 15.258034286625692 13.731969032682018
Bi 15.922744997564704 13.164022086801621 10.17706760942636
Bi 12.845740881980449 17.604485868201063 14.214090513996197
Bi 17.879072456152006 14.593662867154558 11.85859467416617
Bi 15.664849862043376 15.974107749093049 13.812622290024466
Bi 13.691639081359373 14.220039716723772 12.214559718688939
Bi 11.428969011854058 11.708959227560273 11.312762201979984
Bi 9.032054705337941 12.630203016245442 9.720399109437707
Bi 7.532730571244328 13.957686394047407 12.225459043079598
Bi 12.516811794680471 12.316053017100103 8.296507541458434
Bi 9.459522663124549 16.10447536691267 11.307615101669818
Bi 12.816641990560727 18.718797278198785 11.432451373277308
Bi 16.736432531349163 16.071467534865686 9.430903918394394
Bi 15.828644990266234 18.141918758390894 11.590515181561454
Bi 13.344441827184074 16.140590670280886 9.86361125493417
Bi 10.727014436147442 14.91001044131008 8.553517891373554
