30
Energy = -108.24496162 eV
Bi 4.8859637387066135 17.041725612166243 20.43123222186518
Bi 4.022490402880164 16.89035946649958 17.559334332214906
Bi 1.9507940118333598 16.83492116276633 0.13142688623862456
Bi 4.38135864848193 0.9812117557652608 18.18471973556707
Bi 2.6006046437779307 1.5958562975045165 15.760059179886827
Bi 1.0626794831752209 16.645426004028444 18.395856662815103
Bi 3.3258317909057515 19.42089871421873 19.125136480654792
Bi 0.8507299899400252 14.2525025246336 20.205183265861574
Bi 1.3846924499537665 1.541228583220391 18.507818435905403
Bi 1.0822885327865155 20.343261044761736 16.63452435094431
Bi 19.107357341522416 17.957363898898148 19.23258585682903
Bi 19.91092322522129 20.170791330151772 21.159827145301172
Bi 19.545527625488816 15.663539611315572 0.08313507905295059
Bi 18.83738028227871 1.850829548374238 17.67596501308891
Bi 19.211288421857112 20.432874876165336 16.285426881756763
Bi 17.751848233711588 13.761126765528052 19.740098690271278
Bi 17.8219727866282 1.010181984985272 20.41233975126717
Bi 16.46102732185862 2.4170304410291217 15.822677349493677
Bi 17.91813416268727 0.6073299842378455 13.867715696147988
Bi 15.170455111292203 14.051824585358633 0.14460539254687818
Bi 15.230543353266148 16.605829201557672 1.7689269225832553
Bi 17.118694999197157 18.733247316628347 0.26321622130494754
Bi 15.699872593071799 15.941611875597303 19.06522200413077
Bi 15.238991209160364 20.95961116583165 15.039296553124887
Bi 15.248223412024604 20.526418213774946 19.630025999623797
Bi 11.894407415411246 17.150199411602067 19.032063362469813
Bi 13.420905309384892 18.38915441807432 0.1515318682948248
Bi 16.084767263021938 18.918994564870502 17.18862960480261
Bi 13.39794204645461 15.184009455982652 17.239773721690934
Bi 13.173197524557139 18.113315227003476 16.448222149440685
