31
Energy = -111.26026526 eV
Bi 9.230892644337576 12.572679899575434 16.39281676388622
Bi 12.755527954724748 11.833074934347435 18.738757434312607
Bi 12.271380711223252 9.940098118911296 10.100003633135154
Bi 8.77715030969266 15.72316947136418 14.348122704792615
Bi 17.62966066429042 15.426222703264601 12.006032385050307
Bi 16.506193378583905 10.664921588071069 13.87474618950493
Bi 9.763733920110292 11.419571109819637 19.17983908607381
Bi 19.33156796667993 17.908759275695576 11.830825573459766
Bi 14.597010544064792 15.7608258932748 12.480073812043969
Bi 12.398310449225104 10.847595815031962 15.818560816957028
Bi 15.36753027255787 12.14841693608792 10.433369167422393
Bi 14.541519958285035 13.214455790857572 14.239481183001073
Bi 11.70184083072379 14.722453444209103 15.304047584279674
Bi 17.39322690105316 12.821915343143791 8.228113943398519
Bi 14.477943923338906 12.07511519541991 7.516963227875692
Bi 12.530773081771931 14.825414652671627 18.26432167383342
Bi 14.574036805249516 8.858531626642684 12.586307988222005
Bi 17.308482211854795 15.78826732022822 9.024280631233134
Bi 10.55458442175811 11.939226767167668 8.436107302978213
Bi 20.15667356707894 16.795976514515264 9.33466241706294
Bi 13.912049363364325 14.57169183670519 9.136683194511907
Bi 9.759487126817845 9.53409211388457 16.786740430954293
Bi 7.777896010095043 13.455628231896759 12.60022756138162
Bi 13.663649500054898 17.176283860059115 15.06154453644047
Bi 9.180197905250457 9.911515917814736 10.251671589872702
Bi 6.6376041470851925 13.876777708422596 15.402508230827287
Bi 12.116838811522832 12.203083707697028 12.22557473395196
Bi 9.465939565051377 10.954614299575235 13.142674887642164
Bi 15.145142016532294 15.161414405625141 16.739557973200835
Bi 14.728406628323796 8.866066457290907 15.585672775962546
Bi 11.046549771408442 14.303940422841304 10.231511928841815
