37
Energy = -135.37018511 eV
Bi 7.704472440863002 13.622048391811958 13.709685325345593
Bi 8.334699636625558 16.50227673362358 12.801792616756396
Bi 8.77990983744285 15.771267915483783 9.912425962358453
Bi 10.394757922978547 18.013909435301212 15.849858798472317
Bi 10.991377071684681 17.759163191862143 9.206234363138192
Bi 7.424875529727881 11.411947258894878 11.56254222175068
Bi 12.83501037984625 17.640565252709173 11.66046795223073
Bi 8.983793797678931 15.744016928361473 17.270919897074815
Bi 11.196567016890038 16.0221870380896 13.706451170808648
Bi 10.476324031272389 12.44298250367966 13.899086366905081
Bi 11.925185492747742 15.29199378962012 7.656850562747435
Bi 9.769435888619435 11.337778620499336 9.512913299753667
Bi 14.369183362737767 15.076184091129093 11.151188588071399
Bi 11.1788957563103 13.945258311753191 10.335639219968652
Bi 9.962968988285807 7.890549393209295 12.213689048597056
Bi 11.62200462024602 16.9118099169111 18.373955168061403
Bi 8.572544108280349 9.978971218540524 13.990173304728422
Bi 14.87018929191949 15.797660224733892 8.24803392416997
Bi 13.151614307314183 11.607349766383908 7.52698344893037
Bi 15.842882666379294 13.007313348261716 7.3925410176369235
Bi 13.309491606716174 14.523767157459165 17.475540203886105
Bi 14.534565306559143 15.344406055947545 14.788688831194573
Bi 12.478912156633191 7.757784557506884 9.204700534249032
Bi 14.103386926390664 12.337618252631232 14.135482473509786
Bi 10.634092275143455 13.170984825113292 16.887457808307563
Bi 13.863158491710202 8.795827089315573 14.71457816453148
Bi 14.996899704082145 11.542707036884103 9.939647046815377
Bi 11.878012117985213 9.970323427744834 11.200533683186867
Bi 14.920027434155886 9.172310124986055 7.983819532622722
Bi 17.23465688454917 14.025910463949744 15.635152473081705
Bi 12.17180976252571 6.409304136730675 13.738135608382846
Bi 15.593932235994767 11.691228000885758 16.786246322224144
Bi 17.020711500203117 12.205919558590658 13.126734150327946
Bi 14.035627250450855 6.160319103256801 11.292967403094316
Bi 17.845086863495954 10.195891072199526 15.335621404461849
Bi 16.568677700299396 7.458297430999225 14.778989427997589
Bi 15.609466128990492 8.647374868675943 12.179479168356252
