35
Energy = -127.81109632 eV
Bi 18.010346965970676 14.274757478110335 10.94060848242109
Bi 18.59108374018071 11.504734954170262 12.029897707017502
Bi 16.62376290258696 15.883065684290843 13.12564893321665
Bi 16.031394038197966 13.969924690894977 15.429252447084567
Bi 18.242436540370345 11.977753089391689 14.995757384366975
Bi 15.841388511506267 13.610567718563827 8.891296217257814
Bi 14.491916890367953 16.30096321955366 9.460286395567595
Bi 16.344466987735498 9.73032506539919 11.031262865133009
Bi 12.198818275670932 17.75448863333003 13.086905434543011
Bi 13.771052461080156 15.262551046317803 12.246997754288968
Bi 13.584339740486897 12.365499429328377 14.450310962249052
Bi 16.670858394053635 9.483597345287395 15.80655156901
Bi 14.112351759753327 11.79383014789671 10.611166244666878
Bi 11.814055337353988 15.965346737490288 8.0084376845539
Bi 13.759492223744012 10.28060367101029 7.924206689053877
Bi 11.367099513585883 11.62418085152923 6.59138394156478
Bi 14.383901828580536 11.080231449722389 17.125002243576667
Bi 10.717894145694865 16.156733650982563 10.891689082859733
Bi 14.69325768897491 9.332019641976391 13.548392500191303
Bi 11.206557809206295 13.202750528745849 9.183117023393367
Bi 12.020179360027047 14.207272234324972 16.468740457574373
Bi 12.720075057819576 8.53424642674099 17.0781427319211
Bi 11.03681403250468 8.932208682055675 7.940098484829517
Bi 10.289378011724784 16.16471067640892 14.899425120827742
Bi 9.340500045342699 13.938488849201388 13.015646259328726
Bi 7.688322973780978 15.743447728443186 11.189936294606694
Bi 10.856834754785812 8.24092741806445 14.688367775196895
Bi 10.811699075062265 10.668877204881683 12.84028208908993
Bi 8.13098937934875 13.552695911422848 9.10096375637309
Bi 9.858501471290877 9.544093143180705 17.264853019324253
Bi 9.571898263637308 12.583483658162338 17.31575919109336
Bi 9.533244015489617 8.986216944281527 10.591355001687264
Bi 7.417642678473916 12.951803671918055 15.15568056934434
Bi 7.228523484798698 10.979450254512289 10.52241037667532
Bi 7.830056211607983 10.390523355090268 13.533253650886094
