39
Energy = -141.54334382 eV
Bi 17.602890417448698 9.631495094191079 9.482967760445424
Bi 16.93660889484028 9.500601640505487 12.457938008667911
Bi 19.008393951025788 12.323919690892112 9.886754936565982
Bi 18.847449211166627 11.851415896716519 12.896519044623298
Bi 17.306511996290013 14.568550274244851 13.11536350469327
Bi 18.55679865156593 16.31084810748526 15.365954133599233
Bi 16.5541776923376 18.546542791908735 15.047552392443185
Bi 15.305369998572932 11.130074109920267 8.126420825793257
Bi 12.2478078406746 7.834480223091492 10.247916517544516
Bi 16.111694761857777 13.549279825318294 9.799294403200934
Bi 14.547396550226086 10.854131106716089 18.078614456547776
Bi 14.257707846210026 10.9678827293763 12.583330409225916
Bi 16.525084892953757 16.860811250348004 17.54617463319554
Bi 14.9396435923319 16.690094289729522 11.927028213848699
Bi 16.401422774910635 13.200766947793639 17.321641390779334
Bi 14.842278634332663 13.845074608443033 14.766052833046531
Bi 13.006403334304373 8.122826483941694 13.150405223614406
Bi 15.38370171922344 15.365096963999937 7.4686279457178815
Bi 12.817727012898592 10.83882644448144 9.85535700778177
Bi 14.054600280770012 16.735124602809236 15.593155421886244
Bi 13.054114339586702 14.28180948503979 11.399000785890065
Bi 10.14811314197434 8.717440529272421 12.2630992492984
Bi 15.32052131221404 17.942500018269413 9.123066771436287
Bi 12.487267343002019 11.390965751471978 15.828601917701887
Bi 11.872749054693772 14.24326132113615 16.943297614459993
Bi 12.260873789584464 17.982033424024095 9.037367025128795
Bi 10.73152938284437 11.724394859859352 12.670878135289584
Bi 14.01589283227054 13.644322050838328 19.132972804994804
Bi 12.702232009442612 18.794923814174233 12.011457158761118
Bi 12.511328522782001 14.941116546355744 8.459794525774239
Bi 10.208049171186525 10.252089186348945 17.851373780095322
Bi 8.745653854916812 11.056919280088774 15.133354063298542
Bi 10.970701162180621 17.28349886286871 13.963020299232266
Bi 10.318580524696127 15.808051782128683 11.471360663961669
Bi 10.210978605884748 12.922990785498236 19.2488561074669
Bi 8.720101740282402 14.113781943354924 15.21432933833788
Bi 8.298700578798881 13.554529876174179 12.240895724291729
Bi 6.217811398294843 12.61418703073084 16.0263824794428
Bi 7.485917311376523 11.765839036111322 18.63395236804359
