33
Energy = -120.35251042 eV
Bi 13.557834365638596 12.325220016771823 18.369869869010724
Bi 14.5184284947268 15.098752899163156 17.659927425429128
Bi 9.075303652155672 13.165345047155078 17.984108311962522
Bi 17.53453765485728 15.089729908277487 17.45097821045388
Bi 14.948308039111355 10.49375536833589 16.383657587679497
Bi 6.753416291980175 11.705858299425346 16.75399159936957
Bi 11.46232014789347 12.60960100505997 16.15157037778961
Bi 18.255963156538762 12.848739251652304 15.476448102060878
Bi 7.374792179302595 14.533940453327014 15.873631195568155
Bi 12.031675924550235 9.631000593215715 15.853571950820058
Bi 14.25588986314561 14.996117473187663 14.62917653498947
Bi 16.73675819814032 16.83685852529204 15.05317890602617
Bi 15.623405954801429 12.364453151499134 14.081718771105592
Bi 8.734091026013626 10.690144489584954 14.490830917451097
Bi 19.082417067274864 15.312888721018492 13.89977150419575
Bi 10.931731176993406 13.64928585456917 12.443664817273476
Bi 18.239937992153138 15.288351326120388 10.959418292529408
Bi 11.662863726511933 10.1188878198773 12.865855303098074
Bi 7.980572318078844 13.27299225778772 13.115473307317698
Bi 14.164126761105718 12.53886484312961 10.916860497859954
Bi 15.253297151575282 15.377759343557496 10.814279168151169
Bi 18.968141821363325 12.520144692471616 10.035829750522359
Bi 10.215686380134061 16.125296403338872 10.679623797769297
Bi 16.447615179934065 10.888315746342606 9.78727071680844
Bi 10.38013361463124 12.007567131582002 9.887847700092083
Bi 7.24902652840553 8.805312494115844 12.631595018805433
Bi 9.995562874166508 7.722616518078635 11.869053173001584
Bi 8.678771266182359 14.315885826774906 8.796607664687356
Bi 15.524519319808645 15.090137638615351 7.792113943064643
Bi 13.246646170491097 13.040140957712655 7.986487485060644
Bi 17.329998879246528 12.637473394061004 7.483059706324764
Bi 8.497096837876969 9.56693527160108 9.988245134211192
Bi 11.37191149415181 15.478242666597149 7.965267019241407
