34
Energy = -122.94877365 eV
Bi 15.441730191791988 17.241846101302826 9.352666432214567
Bi 13.849168300970973 19.033941452193528 11.205401055759296
Bi 7.8563865160883 13.814429957324203 11.249547986639941
Bi 11.161465764867806 17.90433046121303 10.272776919070022
Bi 17.915617807539732 16.94980211401377 11.109038533868025
Bi 17.38538708663397 16.621273973755464 15.172585991238314
Bi 12.851248540997153 14.716632943315005 15.897873096215866
Bi 18.877240270494685 15.04808092905505 8.910989218561197
Bi 9.744985597909727 8.816878157729025 14.672025127541314
Bi 14.253852727925178 14.75097512860902 10.577160394846205
Bi 14.816457482902988 10.501884096623398 11.624927076931916
Bi 16.501887332364863 13.14273029869313 8.980669191086328
Bi 7.541921117509598 10.930775946475462 12.286284697354493
Bi 18.763968603284898 12.82344679899011 10.997176369682578
Bi 11.478470369582 16.077559687568233 12.696350385217183
Bi 10.749812976191013 11.818850342434772 16.925991021214955
Bi 14.361128069641786 10.881353578441397 18.046523473740532
Bi 12.200363401214412 17.62736648586612 15.226214505109333
Bi 12.661876066605826 9.988618630755877 15.349135807859454
Bi 15.280923003228661 8.17832716820163 13.529017295372608
Bi 14.6418799635706 16.986133563155317 13.554684728473665
Bi 10.407527870860886 12.972358519090447 9.824508100302523
Bi 11.681666607573131 12.461627867919706 12.61626206816642
Bi 17.61088299416648 9.409008514455095 11.993145365535232
Bi 16.270749545895864 10.985672368273914 14.215924356431671
Bi 16.972320680092086 14.58349129920278 12.83545734454876
Bi 7.949909015375915 11.139102310579547 15.353306603865466
Bi 11.922677029484644 15.381734843478778 8.63963429924311
Bi 14.048459410147451 15.570373236462393 18.548298185411333
Bi 10.328609140235086 9.803354472059716 11.837361343475228
Bi 11.827399571159686 9.204034786317703 18.16972940463287
Bi 12.7120986776656 12.935206787623358 19.339644550878138
Bi 15.913976866833934 14.35086577430238 16.500179208813186
Bi 9.337886134550914 14.045092200906964 13.88318942898447
