37
Energy = -132.94874306 eV
Bi 14.40730050020058 9.781638949105709 18.068955796653608
Bi 19.651338784082018 5.494486455411081 11.706854373350595
Bi 9.750612835827495 9.890361216985252 17.69785579485975
Bi 12.210940189973764 9.737732006584514 15.965697312762916
Bi 14.236801730421822 12.060171965078471 20.035098359712862
Bi 17.40499177923702 7.417601174619348 12.246099233018876
Bi 8.742363813352325 12.76750946794786 12.278653909702014
Bi 8.195671845118325 12.318943309523512 16.823247410595577
Bi 9.587634882416308 12.30058529184589 19.515999290190038
Bi 20.155677374464847 7.9839991520134515 13.31534032464626
Bi 16.366381344442512 12.100309319787533 17.858422993463908
Bi 19.621985635714186 8.182348115909765 10.363649338710204
Bi 9.96373080011991 13.986289440759645 14.968399073338883
Bi 12.027110506139174 14.10316824439955 19.571958299325956
Bi 11.134952124911509 10.939466652022643 11.972126869396062
Bi 12.456895836412716 12.325993997389784 14.398394584721197
Bi 11.031688230011145 17.677087626314528 18.20513679265483
Bi 10.147597305754857 14.886310736531195 10.577101713065487
Bi 12.30199980551536 15.303575014723842 16.801911400072825
Bi 15.382114805572623 14.158987393225605 15.829345479877151
Bi 12.645904910278166 15.390683399307692 12.327567772142386
Bi 17.97438755740794 13.937646900632584 14.211159014540224
Bi 17.798384026175817 14.14057928323582 8.934516850465906
Bi 10.460057823369239 19.513909643382387 15.849598668127975
Bi 13.068351400971371 19.79237720469448 17.37708097124494
Bi 11.139059957276169 18.257711351606407 13.126853632910043
Bi 15.254554683696597 15.53384228888928 7.990875349551465
Bi 16.30081972106694 16.365911916742217 12.596770921530407
Bi 14.316279575323765 17.964064093470988 15.262473422488599
Bi 13.274785575693816 17.0434418633732 9.806651230391298
Bi 17.920265031914827 15.73605547559811 16.610856683334337
Bi 18.80648342656633 16.22155647581882 10.901676438140294
Bi 17.920220749128994 17.01822008335902 8.061845241057451
Bi 13.58352960496148 20.043704671382127 13.178208856871779
Bi 17.342918721316494 18.178936539656256 14.848937879125021
Bi 15.359249950969321 18.875327151042725 10.974740200996845
Bi 12.529366190758223 13.041875164194005 10.21234755352582
