36
Energy = -131.04808384 eV
Bi 15.382828252972377 17.191432316539135 14.76982732022499
Bi 12.261734659226658 17.10831791504635 10.287499685811984
Bi 9.213581626147095 16.695504983205485 9.999281231999484
Bi 12.10451364487474 17.613537291378957 13.286270786442461
Bi 9.003542047228265 17.64955431299623 12.885945448352288
Bi 12.684782615767695 14.611156295948051 7.2293816760063265
Bi 18.410477312118164 17.374983325410376 14.353087608386641
Bi 14.370331874089201 14.997036944104813 9.725358634938692
Bi 15.98786247436834 16.566230129946348 17.676587348829745
Bi 16.79273302051482 15.03550711227514 13.166106805727205
Bi 10.140552569801372 12.546704663561224 11.135575984497631
Bi 10.828240328349132 12.240522116858402 6.882393561644092
Bi 7.7623276604253935 14.056647841932131 9.982765043584267
Bi 13.793699069378029 12.045047461631885 6.086556341564462
Bi 9.091234658254034 15.117592512863363 14.57521118612194
Bi 12.035607734449568 14.604459926601777 13.93119797043267
Bi 11.98646212569568 14.50111589469397 17.018488705263305
Bi 13.586283357093587 12.33184445859966 10.94550991031429
Bi 7.684912591455167 13.04514577003307 12.860162890722911
Bi 16.264913511291017 11.557984893237503 12.214446123283004
Bi 14.69352301905362 13.921025003018384 18.345696312414045
Bi 14.351854085216836 10.436030681295158 8.672291567321842
Bi 18.352160088041543 13.401173761333748 15.190232692767948
Bi 18.84763421059929 15.80171799616387 16.975944130346992
Bi 11.45142187995884 11.667965425489529 15.899759942980232
Bi 11.490561011863495 9.551065066184155 8.179024210399628
Bi 11.837910853356206 9.712705972500242 12.94312200231881
Bi 9.751119411727418 9.56004624351706 10.700913256954669
Bi 8.434072392299367 10.97131421822411 15.868141886980561
Bi 14.68960176693467 10.960464153304672 14.760014460349721
Bi 16.509459808816246 11.872478600689325 17.02228312885184
Bi 9.659688986767444 8.430321588200728 14.802677123863669
Bi 16.145510734510772 8.526192340442465 11.599756688597749
Bi 10.33186807181008 9.395085201986737 17.612275900055312
Bi 13.560142760801371 7.236777811206232 12.534519541807938
Bi 15.652776544995273 8.036902185571591 14.58471872492285
