38
Energy = -137.84970363 eV
Bi 15.400078692393924 18.285352210674723 14.367186041463144
Bi 17.605010779710867 14.33526753194697 15.490050801454332
Bi 17.066224040526563 16.28979235048107 12.952093465150414
Bi 17.940611768255565 12.675369926736419 12.97485126328521
Bi 14.488342989793699 15.971544954684525 9.23428619241409
Bi 14.753754322261349 15.554273633976008 16.078398348917315
Bi 12.545077086371787 18.21753997933832 13.344089124312138
Bi 15.975387339709888 12.031108996356915 17.032839163767637
Bi 13.895952893770074 13.640624269568086 18.47752271995441
Bi 15.056042063923613 14.24652209759877 11.737172201243713
Bi 16.731650666485024 12.623138901151512 9.602693825265112
Bi 14.046472419484841 11.63264515002582 14.728474549364051
Bi 11.909201747597136 15.63473977996735 14.889086829298801
Bi 12.253124752451102 17.69077258264904 10.353232925219597
Bi 12.865150977515317 13.363807630379394 9.107987194583442
Bi 16.787647106125068 10.098992674591049 13.66688444653941
Bi 13.371630403068934 8.702864576334292 15.277828628338352
Bi 11.653194020592288 12.525584249007226 16.686660034333684
Bi 16.237796449860213 9.812681614464891 10.65964700986584
Bi 13.302529314300363 10.09499239632621 11.420180002244146
Bi 9.951769957266434 15.98568055506193 11.390267083070825
Bi 14.761039888998791 11.748597625404107 7.380275780698659
Bi 8.968203430099528 13.386766981072519 14.42379347934858
Bi 11.430731702232304 13.603965829911932 12.604915502925765
Bi 11.084736682449883 9.526421290289997 17.133082256610198
Bi 8.59925515950214 15.159792474490663 8.787179771347514
Bi 13.400075258921305 7.330980420452328 10.179964255494351
Bi 10.714907175832774 9.698436499355461 14.110583182694315
Bi 10.259061065981303 12.878428137763105 7.586333732084615
Bi 9.691257630899164 11.575515931574852 10.312154042579497
Bi 6.3756642920266335 13.68291933307835 12.771944882048029
Bi 12.611277063782591 9.754637304142843 8.447166649211393
Bi 7.108768491886775 10.980369272985778 13.959847401100177
Bi 6.949596504704327 12.838476293710501 9.922009076679176
Bi 9.381218370976326 7.083804183520638 13.367992859367947
Bi 10.455343805841775 6.581111455305055 10.531158055757446
Bi 8.822156758344994 8.852690859303495 9.298551038669448
Bi 7.176106175073867 8.670765250236359 11.915058023155089
