31
Energy = -111.07255155 eV
Bi 14.799868066764818 13.169740201327945 8.306687325748241
Bi 13.214837770314926 8.954600358174044 14.901947769822478
Bi 17.836767711858055 13.803128519772837 13.662277544538593
Bi 14.706952058145768 19.069787360775166 14.865202976387167
Bi 13.086583038291423 15.070379994584563 9.866370664588565
Bi 10.428693591926823 14.744109695599501 15.697826607280321
Bi 16.65792566642988 12.506126049334867 18.259278298458614
Bi 12.664233234456278 20.69029899564617 16.393144877276768
Bi 8.558543411820944 16.63534050297793 14.36261374818244
Bi 11.75274680243043 8.625603428948049 12.281937366848616
Bi 10.100544262531374 11.44911295962659 14.179465162681202
Bi 17.29186871679351 13.954127830490272 9.832423937861112
Bi 10.332825141868634 19.446491521267422 14.720009278219383
Bi 16.45159966953141 16.38537093618685 17.29639410127955
Bi 9.988262815440292 8.59097491852994 14.91053850572859
Bi 14.649122032100221 7.875713705355236 11.008628628580176
Bi 13.013359675048324 11.947398758876641 15.34902467915016
Bi 16.203308974347333 11.431920142838766 14.805323008137877
Bi 13.709113202418218 10.2560040446437 9.422499995452943
Bi 14.250969917615185 14.339483200485825 17.817554239429278
Bi 13.572360141967707 13.185091282937186 12.416800037103657
Bi 18.563591884769284 14.286144203977527 16.62110049088564
Bi 12.228655844018045 17.06744055414738 14.593289753136585
Bi 16.196443604304253 8.651977949337462 13.50895376749541
Bi 11.214263596471762 11.430350328479134 11.152463690666478
Bi 15.69069691270378 16.368782870411255 10.79176864478396
Bi 12.791307434185782 20.905069927998227 13.422691754201104
Bi 15.952690688680102 11.526871962392988 11.293553853021939
Bi 16.227518778849902 14.981247819485608 20.030308932252744
Bi 15.412343505929446 15.590659364328111 13.734509601777344
Bi 10.619449214921096 15.228097977998475 12.662858125958051
