37
Energy = -134.38503479 eV
Bi 13.710939838425457 13.172303011573966 18.46298458658784
Bi 8.692223731723317 10.84985621305879 18.051972924985606
Bi 10.634088057782826 13.269292656911384 17.893157398253464
Bi 15.534260645066151 10.655947936018634 18.44127322491071
Bi 9.8591940608492 8.500848381528124 16.503397487784692
Bi 16.407004610290294 15.646783615776044 15.837423901739614
Bi 7.397164445760544 12.679743125144219 16.051569835731904
Bi 8.325620635492907 8.399741610139285 13.89167216601215
Bi 15.744671823533794 17.101866788808845 13.258936802514587
Bi 14.86606332722215 8.882940616091688 16.077958149121386
Bi 16.465044929532795 11.406890870111166 15.620654918405569
Bi 10.27140675782953 13.640725350731145 14.854100639911522
Bi 12.216573471540874 10.407331186215663 16.2091708090204
Bi 11.613280494077712 16.46292699536285 14.74562818525782
Bi 6.868668909294537 11.01390841367057 13.587839121283174
Bi 14.223883982314561 13.540688490565428 15.487030592192072
Bi 13.231476597721958 15.485217456163738 12.333987600171161
Bi 17.871011805516765 14.910362431218688 13.265676491813563
Bi 14.156834293262369 10.315302648577688 9.921032948921862
Bi 9.46147469098437 10.496875039377091 11.992159263357877
Bi 15.785137273345416 12.972124053021412 12.142508079072595
Bi 17.234080847148988 10.823832297676892 10.444631657920896
Bi 9.654922200905833 17.421055172526586 12.578701336549614
Bi 9.049526556756549 14.653654269126392 11.44694097407854
Bi 11.30859127425554 13.111580843409614 10.007376555901812
Bi 12.17224952871786 18.06195032707169 11.058464162064814
Bi 15.165253857147396 8.619376785548328 7.593518028861101
Bi 11.516153209772138 8.380146823861526 9.976803938089976
Bi 12.289143436477916 7.602250093481453 7.153213861840602
Bi 9.406100038870767 15.035989522143685 8.461913983517602
Bi 10.899883356898735 10.277347753752018 7.805907579498935
Bi 13.978558232384076 11.332515190985093 6.975378089164327
Bi 15.99144939602812 14.91996541984094 9.778389800326005
Bi 16.806001421245046 12.510099804579227 8.017521195871227
Bi 13.350208807652118 14.616885897820074 8.267749368725521
Bi 11.600714540486935 17.139328642850895 8.221408048617588
Bi 12.035504297774363 11.476709649350113 13.376311676011621
