38
Energy = -137.87605592 eV
Bi 10.835621117909728 10.416842267874015 8.089246944397466
Bi 9.152561359476065 12.910585157058152 7.365336600815492
Bi 8.2179396208017 9.369974872624104 9.090845003241478
Bi 14.976799301213205 16.800990792051863 8.042349321461307
Bi 14.716981675178765 13.773489475730726 8.44209039057508
Bi 11.755456609450928 14.526219904203149 7.317492604831035
Bi 17.286559478886144 14.331164323598133 9.993495422021397
Bi 6.7253830488638595 11.015860950350952 11.336475370445998
Bi 15.363055554182388 9.636855567735257 9.973444794857219
Bi 12.00260868559995 7.788492458753799 11.35165590141336
Bi 9.250587629662649 13.097755445831524 10.381296272375307
Bi 12.019542880228668 17.558024057154864 7.5527087519777485
Bi 8.346750772456502 15.817576663498249 11.428432079883317
Bi 12.347839953788855 14.300094615534814 10.52154815602009
Bi 17.954577820841845 11.355485409457328 10.01575056116941
Bi 14.698534865178216 17.937358531149794 10.91435051144062
Bi 12.530706604046214 10.723858533433365 10.751361075154612
Bi 6.243428167468904 13.895696458088093 12.46228946928613
Bi 8.993047064825687 7.782132964044703 11.6274256396512
Bi 16.207568413462273 9.136852379202269 12.903917662798936
Bi 11.752109891360815 17.304975896700505 10.606203441641357
Bi 15.458946736409986 13.388226543361077 12.210376590192082
Bi 12.14982812967224 15.65153313265199 13.736519196828914
Bi 17.922098102853198 11.665818796902634 13.058193297004799
Bi 15.136266313577263 16.174374874667944 13.462721030682355
Bi 8.721419073906754 14.444988833771136 14.144805930226987
Bi 10.778543312359607 12.169006026429406 13.482153289232636
Bi 12.551675911564477 14.380550808752673 16.45792008741945
Bi 8.463065968336627 10.052704980835097 13.594811249442156
Bi 15.23640006406702 9.22545410844057 16.78867326037174
Bi 14.006426168621356 10.653549487310057 14.387731617953264
Bi 15.268490821092293 13.390326711560187 15.979505402635587
Bi 12.579270570633417 7.90841089862582 14.382098123215297
Bi 10.397077975768159 11.95912572220479 16.59931529573238
Bi 15.255369722390308 11.759299577231088 18.539813232274742
Bi 10.404366832777423 8.79749457350786 16.252018345636554
Bi 12.660613694068145 8.429299876763093 18.30818482927767
Bi 12.26337512468309 11.371948558721863 19.01934901485952
