34
Energy = -124.02108871 eV
Bi 16.687581694185585 8.712773312821852 9.840048007691736
Bi 14.383883439859929 7.7106243015931 11.570910138217016
Bi 14.012992158440834 10.297089883711102 18.23492482505696
Bi 13.837201087990046 8.832821684811126 8.808901156779408
Bi 17.17237389481442 9.90536060732552 13.624964281215407
Bi 17.273851089587463 11.474127122739752 11.019877878372336
Bi 12.84943394370755 8.728762521579991 15.897360383292574
Bi 17.739072206364266 12.041089426649716 15.75752953765979
Bi 11.066890655363942 11.143842018251664 18.624409328515153
Bi 14.150589901656208 10.097595843298386 13.45557335835368
Bi 17.51393553634364 15.070439226487427 15.222594130790712
Bi 13.610184454635805 11.868555629975482 8.663922314861964
Bi 14.557423840920222 12.844941850744707 11.381955713415422
Bi 14.89416585676716 12.663706319966865 16.49644379379962
Bi 10.4870444353288 14.107543647707486 19.02221877029754
Bi 11.106819920902778 11.32831503922019 15.63704962682138
Bi 16.477174335485678 14.755981897308697 18.069833895901912
Bi 12.477515810943162 14.276279485503935 14.725754140061634
Bi 14.859205494119346 16.394742676087333 14.337623802518145
Bi 15.456980130165695 15.426232618683496 10.002451433789666
Bi 10.876006450744416 12.85373703738003 11.858933014496376
Bi 8.382538359595188 14.247177168264393 16.799963370320885
Bi 11.840544929814754 16.031104865117342 17.11048915104578
Bi 10.61612295025091 11.52001823503793 9.061792422698712
Bi 14.723061486495025 17.149277256345393 17.300200676506407
Bi 8.073032922467945 11.556711806980015 15.422082057683502
Bi 14.740840391562147 15.218226990525146 7.026743392284639
Bi 9.640303992673275 15.650176063953303 14.285832286922883
Bi 8.069794235276689 13.364083721958988 12.926318469155817
Bi 13.050128501777435 17.126121579808686 10.659965631855622
Bi 10.376252962734753 15.679514408283898 10.783038354031977
Bi 11.812011386186743 15.366795772759216 6.317091183579434
Bi 9.693662099965003 14.27909950588745 8.155708514566998
Bi 13.098781358944144 17.75379630800147 7.635612973725545
