33
Energy = -119.53524862 eV
Bi 10.624769074258431 14.944024307953725 11.90976652637866
Bi 12.725306848042628 14.433447671949663 19.34186999799203
Bi 10.813454114037919 17.73931736163271 13.155676684511661
Bi 12.241624117122331 15.75474107261218 8.021933606749881
Bi 15.10825505021287 16.262845811911742 19.682960605691854
Bi 10.62021685098675 11.04608177580106 14.633711155835574
Bi 13.199981589092783 15.865632535673841 21.975092528194992
Bi 10.309538792003023 14.932191691489273 16.56556425356626
Bi 9.049307126126411 13.601372783095426 14.16104726561701
Bi 19.484652630941344 14.429687491021916 16.19902651647671
Bi 14.174559135551982 10.9797323130636 17.80830420904257
Bi 17.356615049958254 17.92125886200046 10.665360896699
Bi 13.083612188358375 12.613510890805069 15.41670924136615
Bi 16.366624201399596 14.567033517409746 15.928185576656599
Bi 13.95910251191186 10.24701346639355 11.355102643662025
Bi 16.471420728960737 17.437297774936262 13.519421039843415
Bi 12.523392917201315 9.866768937434133 8.73508927574185
Bi 15.212359141656343 13.20285931247444 10.837992982596374
Bi 13.481653987556866 17.152166379673417 10.441909375199824
Bi 11.052612339165103 10.88688537390299 11.37173010024781
Bi 12.470974820929365 12.872453103770876 9.392630723138435
Bi 12.424785851326607 16.983513133494593 15.687192039878193
Bi 15.15162974457995 15.525283999855407 8.516843854893954
Bi 19.396579405050147 18.031185700953753 12.921951610232455
Bi 19.622178095091257 11.631519756948865 15.039131640291222
Bi 9.533977897560305 17.802476950718756 15.932478103125225
Bi 14.859882810677455 10.174854968128749 14.950418433687918
Bi 16.831735923357588 12.269190567983792 13.97715790481137
Bi 16.384555703241432 12.963106106771969 18.51283869977115
Bi 19.255759160513108 11.984550136261046 17.997411924483778
Bi 12.310380928615942 17.43721693579375 19.542275112281985
Bi 13.575101915237804 15.0212616072701 12.747428600443598
Bi 18.16432799825656 15.380565500860778 12.103954187138442
