31
Energy = -112.89558221 eV
Bi 10.171175444918294 15.385527524568968 7.913560842024921
Bi 10.689685866214687 12.426728072444712 8.488048626162692
Bi 10.205746460353579 16.891453849444098 10.531905825348673
Bi 12.406957792548168 17.384958696551706 8.511833321921076
Bi 8.33959182671363 11.801397457311616 10.35641920979584
Bi 8.158193686280564 14.128565481327067 12.265876843251824
Bi 15.149330840714777 16.494018602429065 9.493176129572772
Bi 14.779057314528528 13.721870309180977 8.437042232794893
Bi 6.835162937633924 12.554213101182606 14.485023236307756
Bi 12.858247651033853 12.630444549152426 10.561711917918371
Bi 7.787916295867029 9.647192611226814 14.248466833667914
Bi 11.287042271409367 14.658679638944738 12.29637271214898
Bi 15.31671848263399 17.09572257160254 12.495487683413005
Bi 9.578287493221538 9.402270598040042 11.797226542473355
Bi 17.296639085650657 12.20679515451522 9.258429383062278
Bi 17.041358713379772 14.918880635527973 13.74309272120058
Bi 12.739426643411164 16.72151727618076 14.09502490028806
Bi 14.670679163738619 13.061317998448697 13.99832204927749
Bi 12.28712876293377 10.188252850365881 12.971631705040068
Bi 15.820004791661326 10.883525669242324 11.581906272959989
Bi 14.40159360026328 8.185601745714377 11.917894337063048
Bi 18.720912658800827 13.377462906300343 11.716443910459308
Bi 11.283792977451737 12.738896644161866 15.36786691178902
Bi 8.84174948052701 10.099536901717677 17.1379023110036
Bi 8.639805580217047 13.144735044963742 16.887681456329666
Bi 12.350577614655377 8.316242852487335 15.417907543558966
Bi 13.453301719972293 14.712029544299487 16.29513712035466
Bi 18.392130064242124 10.658376764342863 13.144403689130435
Bi 16.452262973132086 11.053220421149096 15.500143042670983
Bi 15.353976563246903 8.252378741283632 14.828869229405298
Bi 11.858349103060362 10.533261960799338 17.416829750817822
