34
Energy = -122.62322534 eV
Bi 17.754810850645136 13.134022125861534 11.3171849094096
Bi 18.005524847479812 10.639911943740472 15.441327292604203
Bi 16.96194529904122 12.214741738223388 8.423294864396969
Bi 16.395262988317 15.784961276977237 10.615839691860192
Bi 17.63542569812694 13.537141811490496 14.718491946862907
Bi 16.340860349874422 9.091996402206068 11.507625770089456
Bi 14.796250498148641 10.18763599168642 9.137657742940565
Bi 15.024121983389103 14.633435139834566 8.245394952152386
Bi 16.76194279418745 12.547431814059744 17.390701147565263
Bi 13.91274414577409 8.075294544227772 13.101254538753686
Bi 15.024681708685062 11.864413234537066 11.785330675138336
Bi 14.99398111375334 10.513556662550972 14.704553345877716
Bi 12.079338800939782 13.060415397603009 8.702950671699304
Bi 14.740792191380045 15.547109437750144 13.44701179668055
Bi 12.777016785576599 17.12201488626253 10.042859652655752
Bi 12.713056841135106 13.398909602630136 14.990381088581895
Bi 13.641536890596319 11.764215008861893 17.41844375211174
Bi 12.326854714003758 14.518671678642235 11.602493169511279
Bi 11.470461905976975 15.792436840697368 7.504592654943072
Bi 11.378707356679707 10.590658925258053 15.518429979513854
Bi 9.737975662205184 12.35033928920626 17.31607706800069
Bi 9.739850027640493 11.570243588912069 12.621755264330535
Bi 11.869013437431093 9.497117169101946 11.332111226251634
Bi 9.935189964451014 7.588700802628276 12.503105696811273
Bi 10.335664923502485 15.175351203506086 15.813335348205934
Bi 7.8663062387379385 9.579774587619502 14.093542509715384
Bi 7.247699182285995 12.322417594761413 15.588879903735856
Bi 12.241524205071483 17.162106594897388 14.020499223873493
Bi 10.183239896655405 16.771071633739794 11.596915815730505
Bi 8.422329424920605 14.294122536363613 13.611823685925597
Bi 9.42625231737237 14.4930418958412 9.319776288013417
Bi 6.020421397116001 9.777214827116893 11.643311719462197
Bi 8.181058028638951 11.165069206541158 9.954221439707794
Bi 8.064167128575665 8.115583767970701 10.140400058526566
