33
Energy = -120.59281277 eV
Bi 16.311356549283023 7.495381098240368 12.472330510373366
Bi 15.694245904807591 9.590714785087814 10.352618710346505
Bi 13.55350517060839 6.294602494280647 13.13511026444764
Bi 11.6199085688938 7.973868037692146 11.441662296517825
Bi 16.869495555968676 8.978299025072713 15.048048518183874
Bi 17.611914940109006 11.856114053475501 11.112302529182474
Bi 17.782088567933158 11.754514189854593 14.165054312033279
Bi 13.055792745488834 10.6611267745647 11.37781185535361
Bi 12.540521258671463 7.583718447845281 15.726775722340246
Bi 13.594062410338525 12.55759459510919 7.252959835954856
Bi 11.893877977663134 10.437031925133864 8.499013723735514
Bi 14.025948718532389 10.081167262701422 14.819756548172853
Bi 16.304825843028055 14.644351348987701 10.648633472452147
Bi 10.004745192605647 8.201821258974151 14.063213912978183
Bi 15.118069366388804 13.218490785382109 14.131801895990275
Bi 16.67052796547518 15.762574368269762 13.501170579020922
Bi 14.363147108286338 12.292563240520371 16.973266439446657
Bi 13.220402942612102 14.350666384556988 10.922811877121427
Bi 9.28256526184468 11.676767918561339 9.452624636252896
Bi 14.136342282496315 17.38944870339371 14.135398271293585
Bi 12.049617735394824 15.164172084650831 14.448199288274653
Bi 10.799210843141733 11.126279239652288 14.421937210990087
Bi 11.902933954222965 14.13366938229774 17.295263658763268
Bi 13.104757286044753 17.39318041681147 11.272857483188966
Bi 9.439144190426022 14.439642407996727 8.211572734818835
Bi 10.219538575184027 12.987466013389662 12.04337935094007
Bi 12.407899766504574 15.160111470375965 8.095733269555465
Bi 9.27867685140962 12.717585335019004 16.54785390335669
Bi 9.91254041134439 17.23261716295703 14.860703790521844
Bi 10.151750015890158 17.99620636530364 11.912060902424562
Bi 7.379243353637666 13.915838806188605 12.344137782899676
Bi 8.165605073202643 16.162790493265412 10.457645050246215
Bi 7.8103761352303245 15.044262647054506 15.130928185489822
