39
Energy = -141.05307776 eV
Bi 19.87270272333837 12.893122976607115 14.516227635392593
Bi 19.854643860421188 13.62835195958185 11.584294790394086
Bi 16.94975333584074 11.87833055747581 14.791662551825981
Bi 17.92526226878624 15.80765576898504 12.296327684788768
Bi 15.011553161174787 8.146957229691518 14.40165636986411
Bi 16.415101136533103 14.622446624484724 16.459039724941427
Bi 17.386544838248376 10.737036578463767 11.750105445599859
Bi 18.940890770300214 15.722821986372908 15.216855050058482
Bi 13.387680545342954 9.374641726068942 16.696182830536024
Bi 15.60405783763765 13.814020178689422 12.814988022787063
Bi 16.8920400060137 13.098454951519232 9.990531249529155
Bi 13.759410746055844 7.477424734852907 10.472115212856178
Bi 12.791894654371172 6.428223906115564 13.140509423997202
Bi 8.791606710203634 9.391921935166167 16.62379197598508
Bi 14.408867025819662 10.026960508767381 12.099582937373638
Bi 12.019142079367603 15.776926264403805 15.835709480602992
Bi 13.412895292283153 12.30008508486526 15.785880145809061
Bi 10.650616026482712 11.993313457529586 17.3104813369521
Bi 14.718882115998886 16.403389116808093 14.565062625173391
Bi 11.29879177864479 10.30299327444592 14.697068185003728
Bi 13.931303093850081 12.213289645023707 9.006922165614824
Bi 10.429390104824831 14.261303776394964 13.586166595162041
Bi 10.891663321690674 8.020966699830323 11.335280995680387
Bi 6.691976559281723 11.55499767917157 16.13602463391875
Bi 12.669452716023185 14.327558844956997 10.905099525133854
Bi 7.2750224469054245 9.533960500029993 14.009945106568967
Bi 8.683320715784722 13.954272145102312 16.097389241119348
Bi 14.350163336403384 16.866355656742368 11.31085578792071
Bi 10.157106745097165 17.28163377645741 13.931621810569267
Bi 11.635452376712866 18.243402998794018 11.462807660073754
Bi 11.197411025185803 11.109747835070804 11.13315773150501
Bi 12.56707701231114 14.57208698343769 7.6684249755708525
Bi 10.4454257645467 10.368286714400927 8.260846476091984
Bi 8.198802749148138 11.72542497218694 11.928861535182788
Bi 8.17957813821732 14.916489172731637 11.0901430585024
Bi 7.461803465201513 10.715081291471515 9.117884675231204
Bi 10.360264657704453 16.21246131647472 9.473996090095353
Bi 10.078629276816708 13.009094876746325 6.822796914395089
Bi 7.491787048902341 13.713656627846012 8.353693739233895
