38
Energy = -153.25352786 eV
Bi 14.898466496744696 12.925235260510306 9.718348817761191
Bi 11.971698782786017 10.43952846764901 6.225733832490035
Bi 12.748190945764792 9.306335870800481 8.418326507503096
Bi 11.091027308507384 11.697730375912403 8.319801416182607
Bi 13.98382499916437 10.567186257478843 10.475258930957727
Bi 12.37627800500047 13.981667060239596 9.673708320893004
Bi 10.067809265833437 9.13101229037925 7.347341448425076
Bi 16.655679858072165 11.194803130522256 11.074947558818888
Bi 8.728411865914405 12.871067706843062 9.674965546938724
Bi 10.737311445149738 12.888914086172733 11.390074591106805
Bi 12.647483628032933 16.117572604563048 11.364054275558189
Bi 10.292096410539676 9.803636123603244 9.846966318373498
Bi 16.423681766193656 14.297364608117036 11.556599667147234
Bi 7.9371405412930205 14.101682279822727 11.86254965697922
Bi 15.492845000397317 8.924404166181445 11.909390918883414
Bi 11.34053994056929 7.2084652357304275 8.71267477134322
Bi 6.241898463370861 12.227445842287235 12.3729856885874
Bi 10.916156383138706 7.771897739612058 11.20813728756622
Bi 8.339883472819707 11.032644595735787 11.459134106105381
Bi 10.706887386933706 14.429475400243723 13.381528806812836
Bi 13.82425537023058 13.803919940380307 11.999032526543392
Bi 9.204321815781679 10.113469035805636 13.696099436247433
Bi 12.1178486328628 10.852768666919982 12.152089441734386
Bi 17.601468423196714 12.549515919702529 13.152914192763914
Bi 12.010144160593425 13.804504796677504 15.58521283080639
Bi 8.513256855748326 15.823010105875351 13.724646703135493
Bi 7.874308647946078 12.19235014910277 14.293342928169082
Bi 13.00515446693814 8.240033324677666 12.530669604041268
Bi 14.880204395852358 16.24203401640301 12.696137735880004
Bi 15.619768916992046 10.872125068683342 13.694874014393669
Bi 9.83729603395737 7.628508278399463 13.545776224805154
Bi 15.593857488206536 13.857757340930794 14.236063644247022
Bi 10.733193722354834 17.102432600010882 12.995571960982495
Bi 13.377863228177032 12.252127566659748 13.972960996294296
Bi 11.581142640609148 9.815215225371468 14.517859311994885
Bi 9.23444494319009 14.002506470605987 15.562065630396791
Bi 12.151879427652112 7.3377612353637005 14.760963022644034
Bi 12.692885854494497 16.04249814703572 14.341798317496046
