30
Energy = -108.56152808 eV
Bi 12.79204465698352 16.17724152542631 14.006979884310148
Bi 15.505339508840573 17.02193195157623 12.838689946714235
Bi 15.855887619993014 15.951712387789017 16.804495960558874
Bi 13.073837831712378 17.367717622115418 17.22861200608829
Bi 15.551243777169061 14.350892776603034 14.243761213993443
Bi 4.238845165316141 17.16996116982708 12.84110674323704
Bi 15.095092365715653 18.410178291550434 19.47770567384057
Bi 18.844363593609497 15.6445635908201 17.710264237334044
Bi 16.59345982971486 13.863432197959064 18.877707676191925
Bi 18.68889849184308 14.147695817869709 15.101001505083742
Bi 13.922591402064576 18.877026039939445 14.762803889773375
Bi 1.9823826666452515 15.242992538192471 12.379330932786798
Bi 15.148039623885817 15.716766342123288 1.053307823694469
Bi 13.406503450180496 19.407263519021214 2.0197187366402596
Bi 19.244129086858393 16.553884348970207 13.345370656782706
Bi 2.6678460655958993 16.99988775024725 16.873916382128307
Bi 3.7005819261861284 14.9195224590908 14.821340458591592
Bi 3.244845023999183 19.24058293893202 14.893859187927916
Bi 14.589157710226347 17.982001844685527 4.430652224099106
Bi 1.5248602643690707 0.05363426135764713 18.85067283675439
Bi 0.3888352595800236 18.452907119658686 15.517559017298597
Bi 0.3500478783106343 2.619221885039596 17.704420855177773
Bi 1.6178942471658249 2.6288078795554037 0.667615049890814
Bi 18.197754415453645 1.0346427347880498 3.7624598014675295
Bi 15.163245558510617 1.1120405660188402 3.9576001326491257
Bi 17.382106562751275 1.9786841523655403 18.94477766457303
Bi 18.370236100110635 18.913009703438995 19.184441085068553
Bi 18.589083933577346 3.159736215753919 1.6472137214083278
Bi 19.057038120004822 18.383646963421235 2.269447975077975
Bi 16.992246715343445 16.436929535094663 3.347054452294329
