47
Energy = -171.53783746 eV
Bi 18.83614074079921 15.11064562061942 11.426625356935272
Bi 19.4605590271975 12.33894803286802 16.411766840441995
Bi 18.75433676096488 10.763982589365206 10.11543014093633
Bi 17.232422205125562 11.262807793275439 12.738705830347866
Bi 17.119961171542723 10.416709435392587 16.5987508829809
Bi 18.268175887532735 17.90217915144203 12.326149601819731
Bi 18.245778743734213 15.831249068977295 8.56691862453364
Bi 17.161136273149083 15.06540272980555 18.007511112523385
Bi 17.824627903083783 12.212212674897934 18.98625538547867
Bi 18.51044653157978 17.17445736372679 15.29036352273962
Bi 17.47418819897614 14.30390705522276 15.071296342606303
Bi 15.849003662245682 8.588986494011328 12.068240209528122
Bi 15.620914409306113 13.33236456759369 11.122708230426865
Bi 14.728514641691518 12.007270426562652 15.444617836850869
Bi 17.192839161899002 12.931234737477073 8.51292376464539
Bi 16.331252508662736 9.245908181096295 9.099330393013554
Bi 13.075534528812542 9.333867969525375 18.509413502837514
Bi 14.272521400895027 12.227984941009378 18.467015307740482
Bi 15.391891615427376 16.86623873418689 11.906445091834238
Bi 14.325866654413202 16.260331461829736 18.027565703246644
Bi 15.270815275012442 16.773113740130956 8.798795321257293
Bi 13.934743553842859 15.713166064782348 15.03285535735767
Bi 15.624873055573246 18.12388813918031 15.927303877501648
Bi 13.795073135893041 14.299972560874268 7.654452214000312
Bi 12.217478705420111 11.667117718464254 12.347654817214377
Bi 13.772998264371983 19.421925611469916 12.332257300093467
Bi 14.067323737082 11.495033448334993 9.213323665868584
Bi 13.762417268257096 9.065611465058327 15.531063037788494
Bi 12.902349486021798 8.867475811597293 11.272786837731545
Bi 12.130514818111203 15.38882899464295 11.558245286568027
Bi 12.189724594020111 18.238679106845783 14.70198533136387
Bi 10.485379622555383 10.893067812051907 19.045566447948016
Bi 11.000998545590535 14.456224782647 8.881599664128457
Bi 11.53367112076901 13.762565999328363 18.614271319467505
Bi 11.111684764425826 13.444745526473238 15.602245654196341
Bi 10.013812887963569 17.372175850853843 12.671318166038452
Bi 11.850466947988034 18.14750363666517 10.321147406226025
Bi 9.14485533472861 13.70160067066815 12.53750821210395
Bi 10.578210449284382 11.469087890968115 9.723623611238365
Bi 7.0620068098916065 15.516943406494338 13.799491736509953
Bi 11.192402088078339 9.22217556457964 13.872829373352149
Bi 7.65066551638172 12.349723761069434 10.293883706381942
Bi 7.133911816962893 12.863256586031826 17.122005347565906
Bi 8.779241151763484 15.335590542599302 16.36248948542208
Bi 9.385869455159407 10.958242814726313 16.194040732916424
Bi 5.634291054767709 12.836061762251319 14.437277470505151
Bi 7.643348627074759 10.984771816355835 12.997185051817413
