49
Energy = -179.0398307 eV
Bi 6.852657713118402 13.627785253625756 13.140560680721364
Bi 9.72782455907748 12.94208403599814 16.98174310718258
Bi 7.226152873103432 9.813848580801942 15.693770184581645
Bi 7.579908189415154 9.056776934827939 12.733113702446296
Bi 10.11536463014977 14.714989002402088 7.147478688945528
Bi 8.59833219730941 16.12774669561852 13.687969424753456
Bi 10.923380274713464 10.649845151501992 18.45976065277793
Bi 9.396163930957252 6.841208306265256 13.475225149802881
Bi 7.270906966786697 12.891776766654441 10.187911970726114
Bi 8.451099005690104 17.467730267075932 10.91267531626829
Bi 9.969579805513716 8.494010440559562 16.231988759205176
Bi 8.994371895437197 11.66937324247613 14.10049037543846
Bi 12.36174114311198 13.836491340335405 15.775549010654935
Bi 11.017850831904395 18.525447374373897 9.64466749424064
Bi 11.312958931942045 11.99496963887447 7.88520965074039
Bi 12.621373186000355 16.37743774703077 7.673567502021286
Bi 9.429003512349755 10.697155596784956 10.066672714053022
Bi 11.397331630073612 17.950190596642937 14.968348209183773
Bi 13.05036789326941 7.102015409355765 15.276436126909019
Bi 9.616177920567019 14.790305541545228 10.100283393364641
Bi 12.03295132634049 9.845510841174006 14.288697454645412
Bi 13.74166776940189 10.746651400825922 17.222379539482016
Bi 11.574285797287983 8.108904654414859 11.766143430913651
Bi 11.540051545890641 15.420882120622625 13.239035934767351
Bi 11.983914169429573 12.258263036461594 10.850719217987821
Bi 14.936102013095827 7.973537174863555 17.543686297934524
Bi 13.68834624246137 18.812522692216437 10.948390345733735
Bi 15.804453308066066 12.219703748067511 18.979323481870008
Bi 12.502379314007698 16.423623191928133 17.43097107140038
Bi 14.189020064356537 6.6192601018111334 12.474405174358328
Bi 14.778663088018924 14.043788834049467 6.92779291426363
Bi 13.99508618875212 15.666890744548569 10.367628654265213
Bi 13.891845266890929 10.20796879616096 9.532388919201926
Bi 17.069285776979694 8.928811130653763 15.629281128477997
Bi 15.173248798495582 16.816332766941116 14.116648790887155
Bi 15.876770550232312 13.809968874772707 16.380762442059385
Bi 15.572817243174427 10.95084928623988 13.889334474092646
Bi 15.566380501507178 12.746822986285437 9.449481022162614
Bi 16.26605204633107 16.441007249719043 8.437123519943619
Bi 13.798778867589833 19.493516137775046 13.898015664407477
Bi 18.231355198913434 10.809217450690445 17.75157235644444
Bi 15.888738507152889 8.985150220232807 11.553520968622758
Bi 18.197839117414592 17.981730458104444 10.782394081616637
Bi 15.532040937253313 16.769298626205263 17.123205264191398
Bi 18.81096156234973 15.230263970120292 9.652141395187554
Bi 18.46923687772283 11.85904481786654 13.333489027998516
Bi 18.88002560564592 13.256781372770233 16.01357061029191
Bi 17.21327092134924 14.371099744025127 12.104625603008165
Bi 18.18691266815439 16.879586502523406 13.6113809364184
