44
Energy = -160.21821042 eV
Bi 9.638605175540203 14.360326856238993 16.138473417070962
Bi 12.505076263160493 19.178284369971745 12.200512343926137
Bi 6.220834325757 13.537269360928864 13.855800756288383
Bi 9.60021667513371 16.049724917564248 13.490886681816987
Bi 12.085081546976777 16.550564894106508 10.664721868327696
Bi 8.33304676229596 11.73423218920165 15.18489026917502
Bi 11.643825572983037 17.865167300431555 14.945975971889522
Bi 15.405046782442506 18.110616770571088 12.287051262898693
Bi 7.188522590510896 16.0762158122264 15.281214452241171
Bi 12.836080078578387 16.060732781126482 17.60007647652167
Bi 8.768143846982134 12.73025837041398 12.320840284411299
Bi 6.813075250540816 13.263795651256908 9.076814307699378
Bi 14.110294218669138 13.267187029785978 10.963571976637825
Bi 14.74355148540808 17.328445050292643 9.367604020614944
Bi 12.022830462957023 13.063678886749932 18.339889289305397
Bi 11.897817586972094 12.143526801466296 9.140768373902453
Bi 13.502768971944583 15.940094446777922 13.435641971545383
Bi 15.668376324783784 16.940999257734358 18.365983556973863
Bi 6.846578214333467 10.822045499051757 10.871936744324902
Bi 11.890701290933869 9.618500511642054 15.702779875296084
Bi 9.714089855951855 14.262610165841153 8.916179621410173
Bi 13.890693862548202 13.670345920020926 15.978605472751683
Bi 16.633821981587467 17.65629364779698 15.56006313030945
Bi 8.851284799119204 9.52118610819951 8.967963204358083
Bi 11.926888466013903 12.179421242797844 14.038714307048595
Bi 8.720002410036114 11.994164395084832 7.087994686079434
Bi 17.137717415784216 14.741043464498674 12.979225333650021
Bi 15.659709230960958 14.499864806097584 8.662807218147758
Bi 18.314269924587382 14.151917730920088 10.178725933614347
Bi 17.34988025390324 12.434000491058068 19.294290606150792
Bi 10.975836462649825 10.11315261488306 11.174834501455093
Bi 13.415323390178136 10.33834738279857 18.249756147641282
Bi 19.42321511912531 16.755211041589863 16.418624288062066
Bi 15.308864780731954 10.831053897409781 9.587133804548115
Bi 17.125577194887697 14.799571441172827 16.751450719831812
Bi 14.211630156829205 10.079553437140149 13.713782881931905
Bi 20.064345221336282 15.156316038528212 13.867727268085554
Bi 18.32469443165478 9.658189441531313 18.56604615232834
Bi 13.723461596129173 8.650039203193456 11.085504185521021
Bi 18.12637674565734 11.128394300735625 10.744305891200302
Bi 16.114564512904415 11.012912365504667 16.89655732173205
Bi 17.325249799624306 11.718512223461119 13.675229125167172
Bi 20.175811930087274 12.21635736809659 14.798737334508774
Bi 20.028053986569862 12.051711469863287 17.832143919360444
