46
Energy = -167.01222508 eV
Bi 18.553813053611105 18.607088035382034 11.906646559278526
Bi 19.519738893880387 16.52075882123159 16.12161008463047
Bi 19.655989537896875 14.115259181462987 14.20783276613628
Bi 17.567268158379697 14.829272285772067 12.105962469753502
Bi 15.992563102173243 20.16077472369964 11.41046496473523
Bi 16.487272084941072 17.621411536516824 9.879142369936462
Bi 14.71606945431557 14.286077437364531 7.366115721824888
Bi 15.576202282859967 12.00786675662537 9.470471279220389
Bi 17.549293669444733 11.706419287065076 11.926438529873323
Bi 12.856389455240262 12.021025006378425 6.9315476722441245
Bi 18.75545467563698 12.720203399071217 18.40838774319842
Bi 15.4835471269255 15.90086258543853 14.103439638216665
Bi 17.211709108131974 15.252056289984482 17.74702061795547
Bi 17.395821003481654 18.192398962611207 14.71684573297639
Bi 14.192935403578735 17.686688433352508 11.958439654482321
Bi 13.930767340253086 13.668264111329798 11.485563038633723
Bi 14.598142735475891 6.88189939360591 15.402555731059913
Bi 12.676462197599813 15.510182579952081 9.307490316163424
Bi 16.960640001063663 8.82414237013567 15.133001845299932
Bi 17.318240618391357 12.892606832772353 15.757331591433834
Bi 16.41049004341798 8.525376184435109 18.183168811786263
Bi 10.639906930319171 13.26476399840651 8.679345100754844
Bi 15.064210043508739 8.693358955918304 11.649532186600046
Bi 13.112872057956563 9.997373620214383 9.593723139525975
Bi 15.139733961517823 10.934342809281775 13.685160919753855
Bi 16.298095806748222 11.32902008228787 19.488119848715453
Bi 10.346590128245895 17.61905814234447 11.25214379205029
Bi 14.761030302016314 18.251344429699255 17.28180285100774
Bi 11.39154608590186 15.495207877738938 13.255773249475128
Bi 12.821130332492922 7.090778038314531 12.926514098125624
Bi 14.344851966488433 10.511087440142497 17.168875438193467
Bi 11.422533514496907 11.878734619560166 11.355338617785351
Bi 12.889017792844214 19.371642590001542 15.1588014169894
Bi 8.349949049106161 15.654037118239412 9.98611178992363
Bi 13.419740328301655 15.88577705313294 18.664486129535536
Bi 13.181027242180757 13.712831532264904 16.560832178330383
Bi 7.5130191723893365 17.24733675539636 12.42031571514918
Bi 11.968660222897476 8.499481426412025 15.513735635043961
Bi 10.328282305414957 11.035486409797548 14.813908553501351
Bi 12.37023911852397 11.977213324396118 18.96952796897142
Bi 10.39727517516024 17.633583896821094 15.232058297644947
Bi 12.182612940386559 19.70372192141163 18.13051918994166
Bi 8.57425525967442 14.389480364840718 12.805842631115594
Bi 9.598811384654475 11.282080740723956 17.752166518369666
Bi 10.629634538379296 17.035319919211666 18.238770135207936
Bi 10.125261263541764 13.855399589101976 16.166214329294654
