48
Energy = -173.81193144 eV
Bi 17.638913678737914 9.161474057295177 13.599215138018403
Bi 18.044858311951877 12.101897292262352 12.772508896267961
Bi 17.714103202673943 13.834887117462499 15.29145875441751
Bi 16.335573660599444 7.560607362038219 11.303305360582149
Bi 16.835059952866576 8.452544484796887 16.480064058883627
Bi 17.176779508784936 10.125770479835591 9.780718899407361
Bi 17.104238236233606 17.814689582235797 15.310630944059163
Bi 17.012848022796103 11.23426783591478 17.724972242963933
Bi 17.952176039018937 15.930150442852899 12.996279464961864
Bi 14.92413050356841 14.322449134608933 18.902303477102766
Bi 16.27023620177687 13.471680088378008 7.013719361957465
Bi 15.614258992933404 13.949651558617159 13.066996203489495
Bi 13.623665092218488 9.595031625148142 13.941073220972738
Bi 14.787982584899844 15.208822574774665 9.184743311330175
Bi 13.707107480403103 6.6099187443922975 14.232437439935866
Bi 13.703655245289735 8.260370941730198 9.866604243921202
Bi 14.340157346370374 18.931950630914006 14.564526906921152
Bi 14.416167724834148 11.145072681545557 10.639770249532114
Bi 13.807881781629606 8.373617310513588 16.718316021677072
Bi 14.646190931117099 16.190378656004064 16.00124156646471
Bi 14.424446965801401 11.335664130325853 19.437406163786942
Bi 14.950075324886633 10.795674785071125 7.674009909551416
Bi 14.368029001563855 12.360798821981861 16.598889002015582
Bi 13.845639672789527 18.62237191713932 17.615934597908733
Bi 11.931125125745686 14.966883075549857 19.237731496694394
Bi 10.531326244361065 13.891019202958857 15.152590113525813
Bi 12.20406218189736 13.580054982015369 9.687106796767056
Bi 13.843341955477666 14.348868818970342 5.548037315663765
Bi 12.977266275666452 16.994630553024866 7.445267156225864
Bi 9.654160578463765 9.611224057019403 9.63987765321382
Bi 11.06662102733413 7.235305822757499 10.997393608442142
Bi 11.044065455325729 12.384566327451857 17.99201936202126
Bi 14.806781585428622 17.256440545254687 11.669077782357514
Bi 10.986117666365917 8.049455959213667 13.968001482894344
Bi 11.720852438015813 12.625106252986251 6.859990556900121
Bi 10.50621991860489 11.429302106039195 11.904624815304867
Bi 11.058766497274311 17.379364426596553 17.444938463925688
Bi 11.823987168622796 16.258808519208873 12.224489500386364
Bi 8.433155871166216 13.911869309633104 17.31600078472684
Bi 8.108202912958893 9.523873311109535 12.306913984252937
Bi 10.439902612050261 15.332966423108925 7.8145296683696905
Bi 8.277994649385247 13.095695047597632 10.53820316110789
Bi 12.49204122923684 18.519389744414955 10.249126528678149
Bi 8.457488030351458 11.65084357274921 15.238152317410314
Bi 10.644074165162644 18.056869926233563 14.455328077537215
Bi 8.4787078928031 15.99654206636481 13.935659336781884
Bi 6.553337786255316 12.179583899585246 12.87888619711986
Bi 8.895783353896617 16.05783698854338 10.93721011672638
