43
Energy = -156.67224105 eV
Bi 12.144874062756648 9.618211606116086 16.83873096844614
Bi 12.248406814154134 11.727002124906148 19.07346178959456
Bi 9.521356160930061 9.837299676913618 15.194690125663488
Bi 7.795164708884235 11.895718859510556 16.602985830859232
Bi 18.20853528551271 9.480071500867576 16.257634027376795
Bi 6.21627318193928 12.57734451588834 14.077501012523397
Bi 15.157332308733132 11.169937867284617 18.284726836150902
Bi 10.487187667311819 16.33814317942919 17.625088037668828
Bi 11.99757618055954 11.410470312149874 14.343957749792331
Bi 7.3787924163967995 9.796047126903993 10.255835620919107
Bi 12.125417369950249 9.069236277632488 12.163771626542987
Bi 12.168119741218199 13.900185708533357 16.937764679582553
Bi 13.563266671748941 16.37072331562183 18.043249045752354
Bi 18.681897220228148 12.461264035923463 16.46201814130499
Bi 8.105981489082973 14.631791167535532 15.331397055484453
Bi 8.539439508812078 11.762933072294484 12.249318157906137
Bi 18.22626390930419 10.926522410886383 13.556010413691524
Bi 14.869070835763344 8.036566721182652 13.141829415992781
Bi 15.477406954124534 10.392584955896368 15.118342807811203
Bi 7.490081291010269 12.737113357693499 9.505483805593936
Bi 11.025281512457267 17.319056090103498 14.734017381313388
Bi 16.490082539651453 9.040958119399756 10.735578347572252
Bi 14.78857742976975 14.10335199244498 14.184601764012498
Bi 15.99208527466005 13.818947730168958 17.074957678997595
Bi 11.947632228888603 11.775361037946515 10.530179377387151
Bi 10.51775228573008 14.592373401893003 13.440734727845598
Bi 13.84046562901871 8.51960347529538 9.337486932756054
Bi 9.691762778769668 10.860182273506066 8.59539103975769
Bi 15.864510397707422 12.01408208912679 11.077196269754873
Bi 19.59855768660991 13.750122443263844 13.477359034944373
Bi 14.070900172261142 17.018018486866175 15.057184157420776
Bi 18.760175813601563 12.933160896100695 10.59343488602713
Bi 13.36039129593169 15.078125355969608 11.108830577442042
Bi 8.983260731815223 15.852822801698702 11.093624004756792
Bi 17.259431470150304 15.794780150728549 13.496567424206887
Bi 10.296881021594265 18.6535525557256 11.282195250456281
Bi 11.074045824805154 15.01996929433809 9.038624502439061
Bi 15.986543536677488 12.56309322994432 8.096734595365948
Bi 13.297065404776978 11.108918453063794 7.839115259019853
Bi 17.806227054455093 15.826159091423923 10.467517754981623
Bi 15.258698659441825 15.462533269511464 8.757060575227005
Bi 13.292564441411121 18.1617245503718 11.298888615437331
Bi 11.748468297652208 18.045575294912663 8.671542556544072
