44
Energy = -159.73559571 eV
Bi 9.02106808618498 18.66901954053344 11.59081212345478
Bi 10.61417408220391 19.964704812039354 13.815532856731839
Bi 12.255805599902637 19.387442235492394 11.340615084108121
Bi 13.452160513362042 17.8549658233972 18.503632253006085
Bi 14.722093231334522 17.58688146991838 12.236058241889273
Bi 10.346092235842537 17.35717757461749 15.369876758687031
Bi 11.95116492580021 16.38572847000047 20.702507080968974
Bi 15.493900827108638 18.01608991330354 15.132073491291054
Bi 9.5682267439202 13.953629046332518 16.273748433274307
Bi 12.411775039418004 15.98774098705285 6.321027720969901
Bi 9.932519852584822 16.88147733937931 7.877785290752639
Bi 14.827249038596802 15.737397757477918 20.140994959892378
Bi 16.99320693416548 15.32729374245671 14.422061982492467
Bi 9.057807403689957 15.980973484870562 12.963984437509486
Bi 13.145611392423476 16.14874499432974 15.843826649358693
Bi 17.59913300657747 16.09554817262811 11.474505896349402
Bi 14.098823179342077 14.572336987969505 12.709534801183707
Bi 16.134581171794935 13.15227795038571 17.60316329000329
Bi 12.57282274544824 14.24619289132474 18.577073004254068
Bi 14.257738554445092 16.774952678395948 8.668018665075707
Bi 9.155859098903937 11.118646020203245 15.392715490505061
Bi 20.543614218606105 15.045870301171965 11.867568917098328
Bi 20.07899234279775 15.326182605685155 14.83160793831986
Bi 9.255278682114257 11.71453672275251 18.385405566806902
Bi 16.47201807035571 10.517079726047823 19.104491961596256
Bi 11.667469695099472 16.517935963002145 10.396934011488389
Bi 11.182217657222985 13.435800215416442 12.315202526490351
Bi 16.161560185182534 11.189825932697628 15.185110972893122
Bi 15.51146721246082 14.244827354691799 9.940097463173702
Bi 12.260848401986042 11.166349360627134 18.591453189453016
Bi 11.766107128464062 9.986798445277293 9.486915966972667
Bi 11.325903614715195 10.240538271478497 12.488853157667734
Bi 20.089101434214573 12.577785085493774 13.550943966001116
Bi 18.85970547798822 11.788214948518137 17.574357955112117
Bi 12.08766998173691 12.054367381522821 15.610962991243696
Bi 18.457509793911868 9.127875908092605 15.826034864165132
Bi 12.20757365197021 13.065595485086952 9.401853128775969
Bi 17.223786866907464 12.183131311150166 12.455491128982416
Bi 15.911417346578679 8.096716822975688 17.233958201616296
Bi 14.146416099022748 10.511807957225173 11.327235291057212
Bi 18.010363175991255 9.203539795755903 12.708257289130358
Bi 13.842472090643092 9.07740753821985 15.138458475031525
Bi 15.18975463258984 7.9513079655827115 12.623280835635994
Bi 10.320392582831042 13.960737015859337 7.179429695970729
