48
Energy = -174.65910586 eV
Bi 19.217545274448497 19.277481547228962 14.635207119574796
Bi 17.3413778655421 17.3938617593454 16.190766417455187
Bi 12.39476490784071 17.042742486286627 19.80714194833908
Bi 15.163359691288163 16.100179759064908 18.87766377109025
Bi 14.737344705453602 19.610611918107615 17.24427047653415
Bi 19.930326122547832 15.73295070307804 16.37460118770014
Bi 15.573922395769538 21.067450653068935 14.702369347417964
Bi 10.999300959503275 16.66228675090485 17.096715635170106
Bi 12.809939249228485 18.33698160532627 15.253581252136135
Bi 13.100074564753 14.070558519266338 19.901964964343257
Bi 12.724846211415251 21.349467421647354 15.75119124564963
Bi 19.267307538431876 12.802748215819648 15.792053192123564
Bi 18.200567303747302 15.98969924680259 11.922757618500265
Bi 20.659057800808586 16.747501979779766 13.641201254395304
Bi 15.133725180081354 18.92135444655676 12.524802272073982
Bi 16.01737037388201 12.043490548013855 18.41502583334123
Bi 13.34689736564013 14.660102796378519 16.8616306447242
Bi 19.418269173526674 12.94461822735908 12.770239350267891
Bi 16.22997021526801 12.767743294932554 15.415415601899062
Bi 11.00469761381083 11.83591953721521 18.096842116565522
Bi 15.805220053136013 16.214695880413334 13.844978067616704
Bi 18.09035975766593 19.14464095255856 11.810814262540374
Bi 13.552770722847436 10.199961746199925 18.4388192203124
Bi 9.882239639340229 13.452262558404614 15.692686523111638
Bi 17.120041863979207 10.022012517754865 16.335558777191572
Bi 15.845428820640851 14.032624223068341 10.068761611359422
Bi 13.385755025349514 10.567542267230243 14.012859299157471
Bi 12.06584659341916 14.00919542923351 13.530765107486328
Bi 13.562386833439957 16.607737573661396 10.340030123356266
Bi 13.333200667109589 12.438591676691441 10.682679844339344
Bi 17.34607610315741 10.938813598317836 12.349417539699138
Bi 11.32204293094497 16.80673560564582 12.328985973585134
Bi 9.603630367896125 9.302277610637606 17.06039367322759
Bi 8.468258411369916 10.876780639774122 14.714264220540356
Bi 17.369152316275088 11.289027632886377 9.376848243254258
Bi 14.39819092424073 8.55929462378222 16.039879089223
Bi 13.965871588358864 8.46405208454395 11.794982630030994
Bi 9.426329062512956 14.419446904050961 12.017998943485207
Bi 13.324527578590157 14.37414872173478 8.294535459350445
Bi 10.070440713522174 10.926592140401219 11.803516536231559
Bi 9.940505678528895 13.351573246428915 9.169197455259525
Bi 10.917961665610077 8.81046806001988 14.3574511409831
Bi 14.613944510530045 10.008659569741589 9.24647153870439
Bi 7.263924008630671 10.029973583856146 10.89718310633068
Bi 11.133101621149034 8.410482846565856 10.477860180127783
Bi 11.050931425351974 10.562788737345945 8.279777498070564
Bi 6.980723760870251 12.33234510822167 8.960597008581143
Bi 8.079159655416492 9.67820985751772 7.98593249041367
