47
Energy = -170.71449583 eV
Bi 18.506102320361318 14.415651796464982 13.679165041720882
Bi 16.95663970930796 16.836040159007425 12.852395077434686
Bi 19.749251379453522 10.491738900382108 13.31332381923255
Bi 18.697222517432678 13.204903645842865 10.83935243504488
Bi 16.43757343004493 14.410022102464323 9.13849212031156
Bi 15.002359805841026 17.72733675299527 15.492202183572577
Bi 15.980542172918842 12.790738316718823 14.693054530230443
Bi 11.748877786721577 16.01925411634547 7.450752350648029
Bi 18.11270109891545 10.920519496344502 15.855422037783034
Bi 13.149722999048507 19.099561024364856 12.715185285609008
Bi 12.24405567075421 13.084815837006335 8.247360744033923
Bi 17.053870294953942 7.939582863808846 10.529463614196828
Bi 12.351520878697391 16.342616909660688 11.61276268983618
Bi 15.027401869312497 14.82141445139146 11.77915460489259
Bi 14.667697297675845 16.765716122131465 18.44500824175554
Bi 17.084549857468502 10.729077386710848 11.807932267761025
Bi 19.67436916439813 7.608661594960751 14.319004965381238
Bi 15.434641779348025 12.871768224851241 17.750763740993307
Bi 12.85146607612483 15.596959627923539 14.929102713314206
Bi 15.119893421012037 11.68430939020509 8.790592191463324
Bi 13.092194261566023 19.194428811554538 17.574249785470787
Bi 10.409605531019949 13.417535344157923 10.806017373737225
Bi 10.201566684113738 13.83031400051814 6.027441709709565
Bi 14.062604733840955 8.312571993699684 9.986588932319371
Bi 13.497329710759049 11.062168650407052 11.328905687133501
Bi 10.8581486231244 17.521381457189477 16.34840228249708
Bi 17.259637405133084 6.367156161335495 13.08466522918601
Bi 11.296876319218125 18.79721594917208 10.199680776551498
Bi 16.94431195024907 7.92505456430141 15.80182431341648
Bi 14.73213850740481 9.626842091589994 14.468635975922401
Bi 12.82587966746449 14.401900131578039 17.791009396199094
Bi 9.369513008675138 15.561127836768158 13.249393830309012
Bi 10.957744594816305 12.429258126729264 14.542223064128217
Bi 9.094816244460544 15.125415647000162 8.534913625225188
Bi 10.997990741610051 9.817572138142653 9.879435387264914
Bi 10.602452308551111 19.705443201384455 14.245043748821159
Bi 11.648072164530198 7.411232777180285 11.700854137748244
Bi 8.393083568736918 11.165378523253306 10.723707805430324
Bi 14.220385390631868 10.07905652238237 17.485271402538796
Bi 8.854458201082917 10.362500719557545 13.608055425549974
Bi 12.268666826218398 7.793556212989377 14.678395435173865
Bi 8.826731584157672 13.197516475264756 16.69458646642164
Bi 8.865975134638079 18.394532316459394 12.065764727801298
Bi 11.294198439552746 10.07653040401113 16.463815539001065
Bi 6.402993269220644 14.671453189263051 13.320751582090795
Bi 6.630173131396954 12.054212609465583 14.887369299271924
Bi 7.7114640763817235 15.931616850761438 15.812773444507204
