46
Energy = -167.08197054 eV
Bi 13.039064547410186 7.26172364842883 11.782691984412335
Bi 14.14528069220939 8.73279248926022 9.279023819112194
Bi 11.348464961521746 9.791496979674823 8.84064050601813
Bi 16.94866587273227 8.43489026712246 15.53878660017548
Bi 10.728719973865154 9.284152423911085 11.812765439586883
Bi 14.992534191474519 11.97034566818009 7.812524700821712
Bi 14.227312133942615 9.034053567619338 14.007445330897959
Bi 8.135904284190731 12.40799361982489 11.034643240430018
Bi 16.428527656238213 8.971003658736992 11.932740025515196
Bi 17.722922937255685 13.346124292965586 8.098175599115399
Bi 9.155630464165338 10.285635201670024 15.660920168807822
Bi 18.275110111860034 12.7465451253442 16.955410760910613
Bi 18.610618994072592 10.238804228197711 13.68337218309653
Bi 17.135421968683232 15.462309279885678 17.773842071946277
Bi 14.88856891116294 11.483084021135108 10.870115446196223
Bi 11.05535736413469 12.656031881069024 10.05730424747252
Bi 12.16843863452244 11.843234792003047 12.925330385464106
Bi 9.180101051694654 12.802176187346715 13.87773654298815
Bi 12.02853613311568 10.656296814457795 16.684664783233373
Bi 9.582979126462991 11.823154215772378 18.1648640635025
Bi 15.792554922407453 10.965498616651441 16.89444506146536
Bi 18.062579511443882 12.62928927530242 11.01268277389269
Bi 14.192149082386903 14.915814621255024 8.211801017468618
Bi 17.467030582590315 15.50295812671165 10.368163527994552
Bi 17.011149697916803 16.350657156491998 13.93552634414033
Bi 16.714846465608346 12.548157368773136 14.374776700981748
Bi 10.425623425802092 14.599910237328835 16.82308515952386
Bi 14.589830416064016 16.65711996983778 16.232132673905483
Bi 14.52246779971705 15.050121497596717 11.206225603415591
Bi 19.36425325885493 16.38254808048611 15.82792314410908
Bi 13.645336429250493 13.122068713626303 19.13086311072338
Bi 15.462278557893773 15.234856502584028 20.437214582783625
Bi 8.278847668313055 15.458583924161372 11.15975957033193
Bi 11.169737286535895 15.425861878574189 8.559807129934974
Bi 13.221198874382269 13.465697649633485 16.01315268086546
Bi 15.633041782498653 19.1107247782431 12.719152672328955
Bi 11.474455149475778 15.227422903353807 19.644123169970314
Bi 15.984084156248858 19.211158276270538 17.270578582707145
Bi 13.015387331616264 18.562103580433526 14.018733655596213
Bi 18.18171489380483 19.07330139064944 15.179582914887094
Bi 12.512625120253876 17.323187339874835 10.565696913106196
Bi 7.280702452728073 15.416502794833027 14.063874844180257
Bi 13.64649463890622 17.33307752788864 19.309063832153456
Bi 10.93224023184238 15.73338922451915 12.717474541867883
Bi 9.49698544097982 17.144582469461376 15.044740966541223
Bi 14.676400377123757 20.875733298212797 15.038596490780892
