48
Energy = -174.51696188 eV
Bi 16.37029661601583 13.224755673469542 19.68955341350448
Bi 15.148035257005168 11.136596415327832 17.840479114731284
Bi 10.743329620580194 10.081857775676593 17.4164916756344
Bi 16.87722366830331 8.796485468404102 16.634471590132634
Bi 13.692032817465522 14.788408431822342 19.612506974369502
Bi 13.191251587149827 8.304773502812514 17.005326696547844
Bi 10.45158608913152 7.430221355638693 15.940436903974062
Bi 17.931195007336132 15.580816236021159 18.4173251028699
Bi 18.24760979056795 12.49492934335812 15.979068315669268
Bi 15.168272151265278 15.922491091822494 17.2082584977071
Bi 11.19346618814239 13.516199288123234 18.27682263223204
Bi 20.138550035150836 14.065466540383666 14.180939778964962
Bi 15.181701089842147 12.48121721722945 15.11025460615256
Bi 9.912075998909105 16.250906376888747 17.802748592295227
Bi 18.581572842041666 16.345006999066396 15.470022824514405
Bi 11.54885669738127 12.332963986956353 15.429626160519737
Bi 14.76036549971271 9.41945014875288 14.510988456429509
Bi 14.004616714102994 18.6887706399387 17.518011463139345
Bi 11.219461313612369 9.012678958967607 13.525403418614596
Bi 16.079905065504406 15.661939131088308 13.783693967200403
Bi 18.882931145745417 9.898439212480211 14.596227266730924
Bi 14.849388339833533 20.230798552650786 15.005759395191587
Bi 12.070098866313003 17.037319675067657 15.804281384027687
Bi 10.614294054037881 11.577261589381969 11.052945308467134
Bi 18.161240828168133 14.23754249450324 11.839708442169744
Bi 7.981638733099466 15.391853195907157 15.564999557838327
Bi 12.658572440137736 17.696761669992103 12.239001086242778
Bi 18.523679942821367 11.193363605912321 11.795447424831744
Bi 8.488191785037936 12.44089018858479 14.832207130629591
Bi 11.895865923476364 19.750281544757765 14.316886126407528
Bi 16.668837818321805 10.111887663488135 9.6269532485646
Bi 10.434587350889405 7.392588514822064 11.067606671282526
Bi 9.84657209616764 17.814907418506817 11.051530703992704
Bi 14.121314909078627 10.450096867428636 11.150555651116193
Bi 14.714983932071721 19.123853801644096 10.580964750776515
Bi 9.923984513860393 15.546360442870782 13.168123517218135
Bi 14.395810946795496 13.957263571339862 10.903770908585853
Bi 16.55046523987818 18.63734521642513 12.985420881252601
Bi 15.979788394834339 16.504266776523988 9.616411443830492
Bi 7.604297275575149 13.901371521615118 12.182091196398746
Bi 11.210544197128543 15.316992050870244 9.874761435631783
Bi 16.437409255218075 13.132917577325717 8.732879697369242
Bi 8.565658536249096 9.5548364462894 12.124489463819883
Bi 11.911324226644798 9.43772955899434 9.260845862230617
Bi 13.411403304107292 12.503946310753559 8.377603387214254
Bi 15.055757187023534 15.625217366488886 6.902662158666235
Bi 8.84340716314562 13.393061885043842 9.414375987114633
Bi 12.137688799626481 14.986051953091954 6.9602009817037915
