45
Energy = -164.44749992 eV
Bi 11.217734572102877 18.86526671340505 19.786600804331027
Bi 8.369293699119963 13.82604901716272 14.092974412624555
Bi 12.305640446779403 19.77969522171944 17.078470794612862
Bi 9.066923315944262 10.244187874773576 12.263990386506007
Bi 11.993307914622541 19.755452505455974 12.62338338861631
Bi 9.317835134959322 16.843071142945988 13.923738028776532
Bi 7.755772775775579 13.381116201663128 17.138673637123397
Bi 9.65809652031927 15.813209197857555 17.314980796470447
Bi 14.16624304482011 18.547239757498414 19.09296648602836
Bi 10.173439893821463 17.77844037777796 11.129605555428705
Bi 7.048351130880584 12.466088339755146 11.614988227472216
Bi 9.598407283829477 10.983311815913396 16.760151896739583
Bi 10.950180584787601 15.833180496758924 20.093265537968602
Bi 15.634763093349616 18.71720109414523 14.415079239021455
Bi 9.219039129209694 14.0324838559576 10.141199716239106
Bi 10.444526881596328 11.241878415239805 9.714430430412266
Bi 14.103811980306192 16.477602550739835 10.355713596496013
Bi 11.791444087696782 12.400236886184734 18.34791895220738
Bi 14.812533505159037 19.17619026207312 11.525875882499683
Bi 12.7186705512549 17.759288263398965 14.85359229273214
Bi 11.286839507368832 15.138385650610273 12.218817687518014
Bi 12.297539117227814 14.582895560024697 16.252655990867947
Bi 13.74179563591047 15.479902430398495 18.86465242539375
Bi 17.037774002828343 15.51809117420375 10.312521612580369
Bi 10.864721509182337 11.938297767179943 14.142825069440637
Bi 15.081953591352184 14.393710229649779 12.37796174767766
Bi 14.325572562576236 10.912221536875196 14.780381500428215
Bi 13.440606795680436 13.162566616770171 8.321919152664101
Bi 16.53520155536514 15.797909290377603 14.673712500870698
Bi 14.135658287851964 10.500950510588048 17.78957449648206
Bi 15.475472498238858 13.04454088209301 16.703041901494686
Bi 13.224341478257717 11.644852010884264 10.947806805611314
Bi 16.428772631002882 13.712670319034322 7.949554110244897
Bi 19.676159417247703 13.299174479249622 11.612534425522446
Bi 19.425481662679623 15.656182966217642 13.587771505110647
Bi 17.17166012103843 11.572374552937355 11.964445809430714
Bi 18.0743492140033 12.16389971353429 15.319195834624303
Bi 16.369579377632814 8.53070204222386 14.95692922006745
Bi 14.275666978256137 10.206516474575743 8.50340501435467
Bi 18.58425429953907 9.614831646252876 16.79316003732423
Bi 20.45976051490289 13.923168930998207 15.923860527934762
Bi 18.240935743619627 8.770167160707727 12.504377870699017
Bi 17.22559456451893 10.948427138069725 8.933039631229038
Bi 21.57651382304538 12.087111360593594 13.74800607126894
Bi 20.548796438804633 9.264042426548109 14.447919626578628
