40
Energy = -146.60562026 eV
Bi 13.977732765623703 18.029341944502754 11.00049604621671
Bi 17.234944926935295 16.909326137401695 12.86981676410286
Bi 11.693915780936132 16.421624814021808 9.754838982709574
Bi 16.542257500156488 16.84380731886091 9.866129679126068
Bi 14.354437904689693 17.06347490780229 15.914981931163025
Bi 8.857274087918675 16.64658010533077 13.92420435061168
Bi 11.043901365685842 15.084013545866021 12.433719569038525
Bi 14.429939705147099 15.863714531624549 13.12875357695355
Bi 15.69321992965744 14.131435185955775 8.73987606386131
Bi 11.63722512652719 13.745959550523615 7.042553365838584
Bi 9.45051701607006 15.902678842193895 16.85109876140746
Bi 18.073185607134008 14.231298190774254 14.055802593755262
Bi 17.122590761019797 11.913013886214962 10.266371212809453
Bi 12.392781470669293 15.273086025097623 17.421334912554617
Bi 16.64660253731626 15.100564553043972 16.64369594904922
Bi 8.52754841431053 13.00110686251928 17.287243951037034
Bi 12.670217484810406 13.039755067722064 15.398743641643435
Bi 12.87524995711701 13.604936090051838 9.837266150858046
Bi 8.977050915688672 12.43148383620902 14.359715514066268
Bi 15.76273399118381 12.49700355629145 13.008878948130727
Bi 15.096465394265852 12.505512914648623 17.211435750701405
Bi 7.002426569325685 14.37705209243961 13.077840915145089
Bi 14.467246615765298 10.359407704502356 9.645260210101354
Bi 9.063242173857411 13.131588773861798 11.049347384989115
Bi 8.739864276557842 13.443696816570093 8.00127354417296
Bi 11.066253724188588 10.27696221840442 10.734652715283481
Bi 16.927731280380968 10.865960721714492 15.437248546502268
Bi 11.11298823434417 10.888667468437152 6.095783924747794
Bi 11.111525433425522 11.35126149443954 17.484177465077437
Bi 12.897599229565923 9.803602388695856 14.065224395745933
Bi 7.571747399268002 9.759008645368398 14.26358418965147
Bi 14.796382960389044 7.336557836277167 10.045085378069814
Bi 9.551049160861758 8.876736018958411 16.44001485800807
Bi 15.08009758747492 8.446746977532955 15.681906328600457
Bi 13.44666527066638 9.124760050965927 6.982838816523315
Bi 9.181714537380515 8.250061349181648 12.097654468011724
Bi 9.10086721806992 10.404187267690789 8.33679180409537
Bi 15.436630741812136 8.855234718444313 12.654186043515843
Bi 11.896779595010486 7.682015225149669 9.154092992164136
Bi 11.162528521130687 7.3550940031532095 14.280359953206695
