42
Energy = -152.29926555 eV
Bi 14.952701973543054 12.586582422190103 9.399644282816237
Bi 17.530783546147642 17.494423227121953 12.409308726300349
Bi 18.297421412244837 13.744798316023175 13.69864440913266
Bi 16.963827353748055 10.289852893052906 12.011425808716838
Bi 16.701101306597348 9.029124686894502 16.230138903337828
Bi 15.169798537850056 16.168315141350714 9.435495285396675
Bi 15.448484997543703 9.624217878730914 9.45902625934739
Bi 18.99619959502602 15.820515627464774 15.782464625308114
Bi 17.8180373899881 12.014312858287724 16.179671813638944
Bi 14.679713057712728 13.13890642236229 6.388937601723874
Bi 11.887774190295463 13.835972786928634 11.72257663441122
Bi 14.773826104287156 11.711938765564721 16.060726938087363
Bi 16.68406862483923 17.96260631627746 15.471765994172378
Bi 15.239258641929371 18.864872252290894 10.934852606291962
Bi 14.750716867532793 16.17844819674604 6.358941487463902
Bi 16.461577883167145 7.7231148022846705 13.52779516785948
Bi 17.857924182866153 14.680543534406649 18.435153548800884
Bi 15.630156563149923 15.543712592698387 13.78512002964956
Bi 12.523494122850202 9.061617972680336 10.610287580422908
Bi 14.797343380726032 12.17988196375988 13.019006089713466
Bi 11.863454716996934 11.82083539084812 9.402744245704417
Bi 14.962250889624814 14.66724004421128 17.403050987980134
Bi 12.126664854142012 15.948439746368924 9.496372215160681
Bi 12.096947698673182 14.693539879189883 6.647714974469385
Bi 17.2714075767137 17.681262344194504 18.779737133067044
Bi 8.583034806233913 11.260088019244021 9.189910410722813
Bi 9.268623903751198 9.406022070520791 11.316007961386132
Bi 13.905423404819297 8.18058249842163 15.060612342083177
Bi 13.29342988933449 18.27733442052962 15.402308635089689
Bi 12.022963244415505 15.506211773188445 15.936255431892898
Bi 13.72662892445587 13.08526111076874 19.673919934359567
Bi 8.992764452231176 14.644413568771029 11.96993696984532
Bi 13.175808008517357 17.32212793911233 12.549234115735656
Bi 14.292124213805199 17.547425337438245 18.668660907248615
Bi 12.41481252500313 10.281219899419614 13.35938142421439
Bi 7.626186698120573 11.91480118499063 11.987645096892418
Bi 10.501438813624166 16.273143558923753 18.510549363051425
Bi 9.103372616155099 15.322195472032151 14.964260562961782
Bi 11.471431663681633 11.716199060617866 18.146995096581204
Bi 12.602433145193071 15.739477062518944 20.61145755374616
Bi 9.342068262334797 12.534014217667846 16.049161955128625
Bi 9.179405253745765 13.51129203752229 18.939984183704173
