41
Energy = -149.74613349 eV
Bi 16.370875807563213 12.101630565970444 17.23409057124948
Bi 15.855187381982565 14.970522952151057 16.23812292196216
Bi 10.80585961015835 15.743287604041022 16.83841540716165
Bi 9.863823645515788 16.4150744022373 13.971299060671035
Bi 13.001223823352477 13.899746246252812 15.835058736423886
Bi 18.24123729215574 12.604155734212222 13.224162841803524
Bi 17.088156936914167 10.294612624923078 14.870687369706186
Bi 13.41614921876952 11.915659849636725 18.106546535113157
Bi 13.172943323011472 7.354651936666131 16.302216355156666
Bi 12.68775258032917 18.2282286596096 15.821047388662231
Bi 15.662927758757451 14.15202177406557 13.318151059921206
Bi 7.549215868374447 14.28456774546323 13.520619433248836
Bi 11.021105440412311 19.39271692204495 13.70234418378527
Bi 10.289133021885874 8.12709293574186 16.892747070113465
Bi 16.650332972780873 16.525029268189403 11.675024470265761
Bi 7.683090557411286 15.846312283500128 10.62964525745019
Bi 13.475886910850594 17.71980865381361 12.912843734341683
Bi 12.034272354099054 15.062261319660987 12.219782316185299
Bi 8.999660819830549 13.22628093821865 16.0370467478748
Bi 14.592920427129034 10.146307708709328 13.120440091030428
Bi 12.264393292026943 10.218888412416527 15.876917793180802
Bi 7.566049533924236 10.137374015545635 13.475932814733088
Bi 14.589293178395458 12.536885526850572 10.091691696762402
Bi 11.144062966991394 8.89305809898965 12.42215007699355
Bi 10.531163114791132 16.678819663304793 10.054850969921931
Bi 17.64212198815887 11.885332674494627 10.273634712361465
Bi 14.638033274661838 15.727453694619204 9.483326269547783
Bi 9.814235227501555 12.262821601236702 13.242317446575134
Bi 13.607065952717015 7.250003394687863 13.248853135241477
Bi 17.508044744572693 14.939654002908968 9.218183885648802
Bi 9.063571948334115 7.557860218967021 14.170472089306374
Bi 10.715609547998461 12.117720711408838 9.669303958613472
Bi 16.100060528478 9.076875184207033 10.685667969159988
Bi 7.102216975609086 8.845576979846811 10.743043332399592
Bi 11.721419062430144 12.200614919406133 6.738483578750646
Bi 13.35951214420322 9.54662130598964 9.606662332989174
Bi 9.185821546377731 14.481852998286453 8.417088885236312
Bi 14.707607845789687 12.774937801267514 7.061231150009399
Bi 9.76128333321844 7.481055066218025 10.09096921031572
Bi 8.897622908698999 9.954022807943414 8.540007284955989
Bi 13.716847906220648 9.911375372089747 6.611088220676816
