40
Energy = -145.68936295 eV
Bi 17.838258237763807 13.229289106283023 12.58319257591845
Bi 16.729857663926282 9.167139298590795 10.948822135357315
Bi 15.557225411497274 12.76611054684206 8.216470948438703
Bi 17.430107177025004 13.980161112009553 15.524816302479202
Bi 15.659553813465008 9.705130869748308 8.13423956705676
Bi 16.61297892329863 11.380545242184354 16.96839830205942
Bi 16.342983494927182 9.27908808439629 14.75325534481136
Bi 13.647875591164533 13.529270972629103 10.521117553579394
Bi 13.364361762665853 12.68880569108025 6.111431115820234
Bi 15.471515504494715 11.323085206580378 12.698147924880484
Bi 15.568234940046072 15.273807673258798 12.247244305407728
Bi 14.734680826020833 6.934450628032892 11.815881775777553
Bi 14.247536402435303 14.780047064140755 18.410274670474596
Bi 13.893089671600674 11.762183450084098 18.320742564396614
Bi 14.376650692383746 14.432604098550982 15.375421523970962
Bi 13.011296257537007 10.02580062925208 9.517161326807358
Bi 12.839583239179733 17.076042339075165 15.337362894509111
Bi 11.401479224488241 10.082585820024942 6.96789664834525
Bi 14.702171544250733 16.114851607482567 9.406302652862289
Bi 12.34572686118564 7.110676049829365 9.925454155961514
Bi 13.523419555574115 8.147631326560603 14.348821091075738
Bi 9.575281262990384 12.588813688668257 6.863402512706776
Bi 8.869049796213934 9.406576338616981 8.962286805424915
Bi 10.114871163287232 8.354720656799477 11.587115780367338
Bi 11.534437213124432 15.037991346450125 6.199036522685567
Bi 11.751297948670189 10.42366003877411 13.232665130497578
Bi 10.34541401872309 13.247971385207068 9.72551049238243
Bi 10.27036704489109 13.75204905726491 13.371386974890713
Bi 12.287285586382401 17.67128740938731 10.420890987179504
Bi 10.910200958107932 16.734700442257036 12.986648401404954
Bi 11.35894245534623 15.343588011646041 17.414271704639802
Bi 9.970367651899867 8.880042493540044 15.254168976000795
Bi 11.675989303156408 12.442253519983353 16.239370672450846
Bi 7.403264319320707 10.29594028682629 15.983980466475915
Bi 10.236586640325262 16.16144860655386 8.744154180401951
Bi 7.542138989421136 12.06733854603534 9.28491242546547
Bi 8.301049143803466 15.259838706848065 15.230174918830484
Bi 9.801157161968547 10.59400986071445 17.790815863685285
Bi 7.419137893765948 14.257291301523694 12.451255540413898
Bi 6.339407296164077 12.964095602506864 14.96355170489478
