47
Energy = -171.8103695 eV
Bi 12.264245326344371 18.010968775212696 17.311552762930738
Bi 9.756720544822459 17.579333617408906 15.5998649174869
Bi 13.834376622111675 18.6270829081342 13.025469268272195
Bi 12.133625123955348 15.51848218535914 19.112169925575056
Bi 8.896835428152443 15.232114977984413 17.191376251131615
Bi 7.290657886145584 13.699902066804343 15.077232009140706
Bi 9.1255702044587 17.118122271612332 12.158454203843101
Bi 15.62269589477746 15.836728223487553 16.16376199527183
Bi 15.338776253667383 17.404907741721182 9.382111654108007
Bi 16.092287786627715 16.699286675644746 12.284758295716049
Bi 12.441276638896392 17.873462779937654 10.364963650396179
Bi 12.726653791453849 16.403085672463256 14.780324156741852
Bi 6.616378377318268 15.925442984737836 10.898693657235377
Bi 8.625694103811284 17.343723098439508 9.102393229645878
Bi 16.736406301458512 13.470344830795952 14.550302337519724
Bi 14.518564216136394 13.917490753830927 18.07301774300095
Bi 11.55529819501688 13.583544649295279 16.796092512311102
Bi 17.675111913972742 13.509690115499835 10.920389586703683
Bi 14.72167891121324 13.97442167566711 11.713770757780912
Bi 9.74027561557687 12.701554161042356 13.601870507279386
Bi 16.678858177541233 12.7738905798333 8.105530360605666
Bi 10.137436052680501 14.648868330332231 8.7077279299069
Bi 11.38789274943127 15.173724283710683 11.446208165331107
Bi 10.046703821475392 11.44499528034465 18.317935666810637
Bi 7.4616358434634344 13.377720324178933 9.5045208414115
Bi 14.284716703765104 14.617141400794239 8.698966776510746
Bi 18.016667657531936 10.581315805073817 11.691757811001615
Bi 19.5248276576031 13.126116641812315 15.709032514844525
Bi 17.269553339298636 11.3160525495713 16.637156455059205
Bi 10.68522098479014 10.806286175832312 8.91989854627023
Bi 15.076328163947363 10.376330553546767 12.305372443217038
Bi 14.383826611654515 10.98738352295105 9.10746521564264
Bi 13.750980167884164 10.424989454244123 15.598900086040276
Bi 13.947106898440113 10.005222292593649 6.122478854303753
Bi 12.102783921315572 9.200368235541161 17.902059768093153
Bi 8.434039090268774 10.933620390263732 15.744547020076672
Bi 7.4433971807407655 11.568962438179158 11.94621575096039
Bi 11.35304716460367 8.593686586867367 6.943645804824869
Bi 8.71463076121742 9.150531864238495 10.551133140558102
Bi 19.239831797964957 10.356320290099799 14.526362203227656
Bi 15.590317596136318 8.391558713278805 8.122666658431074
Bi 14.326548200709777 7.427686571907636 15.30436244083871
Bi 15.157701829247436 7.340241166271378 12.331124563461678
Bi 11.47875100811489 8.45446595837703 15.017253573179996
Bi 11.412685243253591 9.82919640645018 11.757591742271172
Bi 12.293225876777589 6.922820056879881 11.394619683675613
Bi 13.105539624835192 6.644581472582009 8.481069224643655
