45
Energy = -163.35414261 eV
Bi 9.384748365271168 13.911586864820636 10.04535216932251
Bi 11.283962439081737 16.098925940783317 8.869406729557202
Bi 9.727260718923274 18.83857437679768 9.650708901434388
Bi 10.820887617765411 7.422720440872311 10.12363203368431
Bi 11.665000152025776 12.242457621019009 8.363055922770302
Bi 13.690225132540167 17.845296861764393 9.71751911145666
Bi 8.177484343214552 16.74012134409537 11.13205253334943
Bi 12.86071310264068 8.753570368094902 8.294115078532636
Bi 9.479901965489178 9.650238218250857 11.829092161893326
Bi 13.30643499132521 14.446685644535009 7.124710244503542
Bi 7.752928316981055 12.210540309794313 13.687738190956344
Bi 11.561315325616416 17.71089539544805 12.971956246308318
Bi 9.580208320862809 19.139044384204336 14.814334066253783
Bi 15.41593985555329 7.381738158174988 9.333244431830693
Bi 12.13232949347049 20.0358926150426 11.148453955542514
Bi 10.60071217218171 12.516531721205594 12.459336422316689
Bi 15.487564249116625 11.469852320299639 7.799774880523186
Bi 14.431731357595398 14.048266715608225 11.576789391775748
Bi 11.863103835765274 6.365471684832177 14.77483506232563
Bi 12.17541730407791 8.46517063182434 12.623183793374727
Bi 7.865735049150178 16.68809265888652 14.17262642626722
Bi 17.592853676782752 9.203199948722819 8.28935025711709
Bi 8.86781126344102 9.981288439954167 15.528904412246266
Bi 15.544390544003095 16.867664753743092 11.9064020806858
Bi 7.3653035182209425 12.331876023253837 16.712666231066414
Bi 10.309469341228777 14.97776704796152 15.02937216952781
Bi 13.72729052769344 10.928566924248097 10.195463571675628
Bi 18.682178661063393 11.458013265857916 11.192114465305837
Bi 12.228023032875436 8.319972594883188 17.076465111007384
Bi 14.136581389472322 17.596241240372994 14.724354931770808
Bi 13.789703140127228 14.56710439715589 15.037688391308572
Bi 15.83873846607797 14.36701979103977 8.87773549291082
Bi 17.315754575118 8.722206558835367 11.346530876899525
Bi 15.196069751927899 9.912692738073416 13.914789330383073
Bi 11.399921242624286 17.414982443387164 16.569354246513463
Bi 11.696290480155717 12.251331083881098 18.404491430546134
Bi 9.46477484724706 14.248738889174826 17.837477539369445
Bi 14.664390084648428 7.308932367913204 15.524594637505365
Bi 11.788066158861927 10.98335951693695 15.623551221558266
Bi 17.364830208435965 13.86693381493047 12.507166529195606
Bi 19.058596727375004 11.949247652832643 14.210037307424061
Bi 13.631517997318623 14.638118838451183 18.09257006907485
Bi 15.410276508712796 10.939406660224899 16.8514681824606
Bi 16.248523707863548 13.826640916677077 16.647451237449133
Bi 17.772815138369854 9.522348040891334 15.469617957979443
