44
Energy = -158.61391922 eV
Bi 5.9521443716366065 12.38705485064387 12.040222325303395
Bi 7.127819222621595 15.173330913669579 12.631527497487227
Bi 7.3509483674908775 9.481243461060169 15.815185607499878
Bi 7.363444567068322 8.877890454816505 12.770594227162258
Bi 9.41440872470896 14.236026943788929 10.977636541840385
Bi 6.3791397638031935 12.297227091931026 15.046015668586925
Bi 8.619539914509442 11.155180357342672 11.080893309989815
Bi 12.989786718018449 14.849737906864917 8.54398371589754
Bi 11.795436479033505 10.859828599008777 7.693187381433306
Bi 9.652990186213328 6.843109146796615 12.652251385671958
Bi 10.358503450989218 8.489122255977316 15.395819069834921
Bi 9.304397830767094 14.662980431028162 17.590501909364708
Bi 11.328938755710672 9.784126262048874 12.76630938884965
Bi 10.748266059988655 17.681506403240558 14.104722293832992
Bi 13.950263671484118 8.661700747236594 7.833554099537507
Bi 9.148178155621693 13.62350898256648 14.707699515658012
Bi 12.440017433641042 17.135476888244874 10.53858365238708
Bi 9.889252827371813 11.380601553991728 16.86873097152453
Bi 10.932001264320382 8.147075887296214 10.179299217625966
Bi 12.977409615829766 12.23194954412261 10.207667868399918
Bi 11.775588449798569 15.144672921499083 12.782773479340976
Bi 14.766709270807564 11.59424958729353 7.839210122673035
Bi 12.25941348871676 14.055960660406903 16.65210431383298
Bi 14.204392416432244 8.869905387196848 13.393829632114747
Bi 13.841657522934044 7.446472871671449 10.611941819753234
Bi 15.924620290424231 15.677018773845754 8.800864037340311
Bi 13.592520778074915 11.937717761261064 13.963751370445745
Bi 16.071198967550306 13.811940109638677 11.23294650587536
Bi 11.326403070765643 16.909392870188096 16.977396304847705
Bi 12.82420472570318 10.280244224115954 16.458259485556894
Bi 15.094823443974274 17.922733153598426 11.908153696123339
Bi 15.071706420108951 15.474324241393864 13.732976534683795
Bi 18.042838949323208 13.400974848020695 8.291659686363992
Bi 17.735643732863906 10.674336831097577 9.850772524518618
Bi 15.163257148483435 15.199666372223602 18.09653963969194
Bi 13.495472651070926 19.047795599510682 14.28658267605182
Bi 15.711289358823304 12.803840483601759 16.29763894723245
Bi 17.173619908749036 10.846864357074386 12.82744290191918
Bi 17.844163538973206 13.779413506522094 14.265154162017996
Bi 19.08255770165662 14.488967171364655 10.944158483285733
Bi 15.184639540813423 17.97538337109877 16.6875284252693
Bi 19.972628637348798 11.604115828971322 11.714835238659283
Bi 17.530771682805312 17.102037279734237 14.967186567898871
Bi 18.167461988912002 15.13580103266353 17.2128593576345
