42
Energy = -151.4993389 eV
Bi 17.910857872501683 15.480943771586768 9.76110260886798
Bi 17.293868004705054 9.317016633766253 13.834884865486117
Bi 16.849903673923524 6.542304721767269 12.667710046195449
Bi 18.074033700278672 18.00682657100181 11.461614670056127
Bi 16.717582505620037 18.11537729045199 8.76424174845587
Bi 16.37456673916335 12.894518258028182 13.401106714629323
Bi 18.295999297839856 11.19983680545501 11.698578238586443
Bi 13.990636414276398 16.720892425059873 8.899987709738838
Bi 17.634445589528024 15.511781762736348 14.328676626789234
Bi 15.551558980942856 12.57974129166527 8.05722187811388
Bi 16.24886084684814 10.037564980272665 9.56827757426564
Bi 11.356614147103343 6.951900450978796 15.23058077048772
Bi 15.087372450142343 14.400213463744596 10.547956780245423
Bi 13.390783340101265 9.21727134739589 15.450068722713148
Bi 16.491645129721594 14.782757617985057 17.153167821060997
Bi 15.470046541932769 17.038048547160514 12.758648636554774
Bi 13.15032802935574 14.237133534720972 13.870736653829319
Bi 11.684806174485372 17.925585185790105 10.501207865382467
Bi 14.86301936414595 6.384839676891649 14.985997947025936
Bi 16.400240013558406 11.785339460625764 16.304859756098192
Bi 12.112036502540006 11.91504777053605 11.030599782780671
Bi 8.571375164899386 15.393916567368688 8.754701868659597
Bi 14.215643990339577 16.494035876414294 15.603180271186007
Bi 13.226585063800776 10.7186594035874 8.530345007307163
Bi 10.542797542284903 15.185167598435232 11.091023111901785
Bi 11.725799195740779 10.6317786999782 17.903177854027593
Bi 14.564708831850544 10.084857787879322 12.268195455288195
Bi 13.839000287507755 7.050458192997284 12.230212685978396
Bi 11.373627922218448 18.469927167931477 13.50800117332567
Bi 13.708921838699016 13.083041658906726 16.713146970082843
Bi 6.140752364391949 14.971101113047842 10.493436635987933
Bi 10.498176835080882 9.777221761721373 13.960856661936466
Bi 8.706813158176704 16.944305482751197 12.808619859812977
Bi 9.611923639127154 13.102784922233536 14.04897615356669
Bi 7.2703153243393155 17.759408461763716 10.162731523326348
Bi 11.046170691124575 16.015482874912024 15.341953034326993
Bi 9.791755703202556 9.930155354611822 10.947457812086478
Bi 10.051013490927351 8.04183537912773 17.769214937291103
Bi 9.185988446269395 12.200767551125322 16.987268142830953
Bi 7.441677346746735 10.955574345100239 12.66784832552571
Bi 6.716047857883225 13.836254514194744 13.309152508272216
Bi 8.095517826292737 9.582141557909612 15.89709042953487
