42
Energy = -152.83012773 eV
Bi 17.088791374690068 12.696144269985158 13.866665892229706
Bi 17.126094887256063 11.633835385727458 8.349496363456488
Bi 15.789394036014972 9.914501955081349 10.55297716966948
Bi 17.572293159667737 15.770912229345306 14.182069985644437
Bi 17.00058109561522 9.067313081785143 14.876853392230064
Bi 17.182002755441395 14.069393159937585 10.222230524276341
Bi 15.050378469763846 12.621431393264615 16.1169521371803
Bi 17.024851593806837 10.654892456235828 17.44371616298916
Bi 14.202210139935332 9.054993195512877 8.081441856655058
Bi 14.894915114302965 12.631158466994675 11.716573157669444
Bi 14.462051544682355 11.794524310533319 6.765537717528284
Bi 13.999564588362473 16.106538575164787 11.216913220567692
Bi 13.27511725253273 15.570401886299562 14.581746281523824
Bi 15.29153578124016 8.179002202800243 17.250906917047978
Bi 15.678588456243482 15.62658197002663 16.584278613770092
Bi 15.248094882243949 15.302911489511143 8.170647743259583
Bi 12.197934401346775 13.758711637631182 18.01364844514231
Bi 13.151105738744132 6.858700445476419 13.274933298116718
Bi 14.066799034603145 9.743161272085857 13.799258762811666
Bi 15.273876525134654 17.655277212425826 13.491771174296359
Bi 12.91163644171354 13.464414809446142 8.810043797770366
Bi 13.480824130512934 17.949208061344038 8.296018302736911
Bi 11.58339764197994 15.800468845733203 7.224599607140416
Bi 11.18018012897551 17.60979686042939 15.372668540343703
Bi 11.591188407494506 10.763699385141317 11.709095039501745
Bi 10.840996418356594 7.801309666811236 14.979643948390905
Bi 12.650961376681963 9.712664484462131 16.537264322392165
Bi 11.22337134892124 8.394681203692445 8.28053433728312
Bi 11.77830478213518 18.16223001641164 10.906542844612655
Bi 9.524845744877005 13.027806343597929 19.233550079352536
Bi 11.040739965888443 12.584523460536573 15.325845827660299
Bi 10.175987625434606 11.167329174200614 8.91285967223653
Bi 10.081165336156715 15.93163692877519 17.91426550367809
Bi 9.731472352850794 16.289663309468086 9.653304694872048
Bi 10.955754865986922 7.813475786643113 11.346436778429135
Bi 10.537351644315237 14.306397764022337 11.856589676732815
Bi 9.056991336403245 10.290823317246042 13.33023512081051
Bi 9.239838609095909 16.66213475459961 13.330473692792859
Bi 7.652937294153322 10.697689353658731 10.5569243633377
Bi 8.582671577086533 11.525003545266351 16.82039729351475
Bi 8.532513073574302 14.411195720421574 15.610802575286197
Bi 7.761325798928936 13.15892733494998 12.345319510478006
