49
Energy = -177.87651806 eV
Bi 18.425581684357486 15.908505387841394 17.354978195985968
Bi 17.769803835791325 18.64368459087123 14.380308559911525
Bi 20.800674777706046 15.596534761333624 15.393381139399658
Bi 19.854902118628214 18.399952267982332 12.104843272911232
Bi 21.433319253167944 16.011113988222252 18.32054395552234
Bi 17.24751101442265 19.81949232164228 11.619948481319279
Bi 15.095808714968989 18.211559271218025 18.37129709366131
Bi 14.992858230107005 15.229745789971696 17.545237166264382
Bi 19.254183746996002 15.33379782661183 12.21219441045024
Bi 21.419260766933455 13.19379160382125 17.188440158106534
Bi 14.141147887805397 18.656805345566717 15.454837084259188
Bi 16.36768333733844 17.553331333022932 9.823866464784972
Bi 16.93096246049181 15.697206759271237 14.172315366717156
Bi 14.691482395360158 16.159872388739675 11.973833588846276
Bi 13.604502411133192 18.869085909124195 9.298507265158406
Bi 18.655130446522335 13.029574426623912 18.45952994781163
Bi 12.45117791972052 18.28138302701788 12.032260904662085
Bi 12.554546883573222 19.736924759267016 17.8639661169822
Bi 11.21844575907786 15.496779067682734 19.632870266089288
Bi 17.69124255453797 13.803864316942017 9.97768719495362
Bi 18.749928572802986 12.046883618207744 13.41414487168049
Bi 12.903918828803114 15.794619574265253 15.29547612894527
Bi 18.577614814315435 9.408422028437515 14.809052429824002
Bi 14.780019764305619 11.95320947018817 16.001021068127883
Bi 17.216279760482863 10.582846354750064 17.277069082667463
Bi 14.044435059374983 14.530777238685086 9.094359874180476
Bi 18.79289335781908 10.940374915286352 10.550917411647871
Bi 13.869588704481139 12.740745881457906 18.905724165855364
Bi 10.238568160118996 17.278853338317262 15.391066460477703
Bi 11.348042562202089 13.48111695379326 17.34490869425389
Bi 10.095551527978945 17.97402125143784 18.308206959861813
Bi 15.627420371028624 9.552906436647815 13.77185302915331
Bi 11.68756801607823 16.385425559573655 8.911587546169459
Bi 12.315396815397087 13.70309591031006 12.75015917936748
Bi 8.475229603555338 14.313481502654142 20.304401638754417
Bi 15.859477809285092 12.705710805823028 12.240444309877041
Bi 15.822674504162775 10.04383828302817 10.697893590302963
Bi 11.265605721378959 13.555576087413273 7.445645103791782
Bi 12.458838168440657 12.01501850911152 10.005591218368295
Bi 8.200590011969384 15.014534138219005 15.139933541875878
Bi 12.930388998724027 9.652682701313033 16.858906112864474
Bi 10.304844586875873 15.79855220783858 11.670512203344588
Bi 10.452819322714198 10.10746186862316 15.090936923933446
Bi 7.116941726483988 13.678129767825514 17.65945249815767
Bi 9.1859175354672 11.783823542917682 18.759694451397277
Bi 13.456263041886558 7.577352628166386 14.599199888260697
Bi 9.541708364934388 12.705858667250322 13.66741842155542
Bi 9.608706213463075 13.196369662407474 9.906618243292078
Bi 12.209778583234971 9.58254265968439 12.684195024620564
