49
Energy = -178.13359554 eV
Bi 17.743437417461497 10.559899585606267 18.80023433391577
Bi 15.158256116276062 9.039109137819537 19.278079306004084
Bi 15.722851387165552 11.700991255328935 20.62391593530302
Bi 15.964626435707892 15.338320597593317 19.061077600725152
Bi 11.587593640609548 15.27233856316079 19.786362897714195
Bi 19.338639863488837 13.05516351347229 13.63207226158127
Bi 16.194494717136426 8.055188668780017 15.889633747238065
Bi 13.745029335152454 13.311223474805924 18.727880957771994
Bi 18.5219256002635 15.767023249796344 14.772336315819807
Bi 17.23861083408558 11.660520971889493 15.599741153190207
Bi 18.100407762134818 14.047278781218273 17.28249711219048
Bi 12.085194997780684 7.909248252722398 15.969652025565692
Bi 14.086901248138517 10.13657562468471 16.58977772686651
Bi 12.538748213484046 17.991378082884953 18.772629988885743
Bi 13.424259365385788 14.628484208316898 15.820899524248977
Bi 15.985343559117666 19.11824550034136 13.84105340060096
Bi 17.78353753515369 16.410055486516914 11.117035783035208
Bi 17.264929560183038 12.135205279031009 11.469157574529993
Bi 14.784477912763773 17.17738629377298 16.92799512072247
Bi 10.527724040134952 14.81204559319979 16.931596225189896
Bi 17.005509851946115 19.433412620485335 10.909853561464713
Bi 16.13835233983702 7.957493584490672 12.83996688201426
Bi 14.991944619881806 12.595709193261339 13.530170173403311
Bi 11.413236220933378 12.31367935955056 13.816258798585745
Bi 14.110226026392825 6.285132337002381 14.365174358858754
Bi 12.094605338089934 17.03149494746082 13.998545805390773
Bi 15.81800854293198 16.035387502740768 13.401608488061791
Bi 14.57315172785561 10.198499659055516 11.60364693558663
Bi 10.474578619170295 17.836808849806072 16.472378539140855
Bi 11.369361267477682 9.126891537121825 11.47570550174858
Bi 16.645720097590047 14.251662965854196 9.26081757717215
Bi 10.01897132698547 9.340642665486424 14.225139323884722
Bi 13.136419581777997 19.746538189207296 12.948625320404776
Bi 8.654065642558319 13.728215549884803 13.776083048654996
Bi 14.113740123011858 19.891974895731064 10.05788957392511
Bi 11.955597967202696 6.0047989398833765 11.502560042886378
Bi 14.84021373003006 17.37868743909806 8.507632021667181
Bi 11.516208891595948 12.300001588657219 10.81133617720375
Bi 13.804287454653176 14.974803059831356 10.12286962049475
Bi 9.470892732723838 6.324294206260559 13.091182132497229
Bi 8.477177960503859 12.147355264258035 11.094134644858068
Bi 10.373682288258385 15.790368553514073 10.320936835357863
Bi 9.220465411105497 16.663550564707847 13.009444984628354
Bi 12.57058872898507 13.948596877085082 7.453448866872177
Bi 9.403113808357801 7.042696346363298 10.193160853841226
Bi 12.697072335548668 16.842420956207388 6.3625099368317075
Bi 10.077904558330136 17.54648037111879 7.782491070454053
Bi 7.782239948080519 14.580185958680747 9.413114569652457
Bi 9.592810636011771 14.667600871230544 6.932752056071745
