45
Energy = -162.92589178 eV
Bi 13.890368883451051 13.819586488446829 5.7771768034829
Bi 16.11846045773161 15.919993443708302 9.828910663252218
Bi 11.722847865801953 13.473359711115721 7.831324500665761
Bi 12.723729566373798 11.055699723958591 6.208643611943984
Bi 16.20756430661604 12.915037755716504 7.667457453032395
Bi 13.264376174983289 14.385897315422117 10.370444752313318
Bi 19.660647866224824 14.445415780283538 13.370682192893979
Bi 16.65744464190953 17.515397979960817 12.316462356906298
Bi 14.623900346388636 11.211517006447025 9.697726941046131
Bi 11.328499330780891 16.727738744386706 9.959630689304413
Bi 14.569991160443001 19.693185314278715 13.023570236136818
Bi 20.22569280357196 17.865981351215638 17.685786899462975
Bi 18.37028577171729 14.007169442301477 10.537079604244635
Bi 16.99809276206899 11.538313959721515 11.664518060425566
Bi 18.906753403241364 11.904416539482117 14.905900493508652
Bi 10.296523430321146 14.44619713570647 11.710884631564925
Bi 11.892615103134638 18.331001829266768 12.488848445457174
Bi 15.495514473136538 10.004853297320942 7.082556968301798
Bi 13.86718810951147 18.40873818231985 15.767795899727007
Bi 17.17512739221376 15.538190779517608 14.740802984282704
Bi 17.497272747421054 18.202241702909888 16.190492973854433
Bi 12.308437114356561 11.353261718379844 12.623796630061019
Bi 13.790588219396701 8.621060416833336 12.790064754755573
Bi 19.384997014415195 19.127680946287835 20.334221297255816
Bi 13.639972879053241 16.144612091874805 13.673569002881145
Bi 16.299930594124632 16.808119103642788 18.646313931855737
Bi 11.004039419829294 14.79694003131862 14.68678982361667
Bi 19.104192451654463 16.122360688847596 19.878967869965546
Bi 14.90952576929051 12.783221047012047 13.53430540192891
Bi 19.708303661102192 13.95776418129967 17.058768973004973
Bi 16.467554408171655 19.739733236097372 19.55479026158821
Bi 10.73603244258595 17.679452086887732 15.764708845532088
Bi 16.87057746030746 13.162566483800363 16.95056804679606
Bi 15.205611929709063 10.142756281865216 15.060969131022187
Bi 13.155661403386171 18.17876942387842 19.55900059143768
Bi 12.13176035568411 11.931772052126858 17.912511435226318
Bi 12.197898828529247 9.596360700193042 15.149964043299722
Bi 14.523906515570275 13.988123023563483 20.255010914989583
Bi 13.572264138643881 14.635120678096056 17.388040491565533
Bi 15.47629875740564 19.352690678717057 22.46618239556916
Bi 11.123241128933705 16.174788049655945 18.414459701552396
Bi 14.352598790021796 10.950314536892165 19.727483032046514
Bi 12.469235187484017 19.67059086209179 22.164280607206074
Bi 13.694226970400875 16.898048202486294 22.269762768731052
Bi 12.004780123447858 12.398492155210612 20.933305046850208
