46
Energy = -164.29939296 eV
Bi 21.310607247698684 22.77941305328467 22.5829571308886
Bi 21.447072437073373 21.215802647437325 18.68435839588101
Bi 3.051024463849029 21.903804692429055 18.55049535490965
Bi 14.554427209708376 1.3821556450771297 19.15165228605711
Bi 3.1796796359740314 22.987379869902536 3.3455477887153684
Bi 17.5725461533727 1.4199621910445956 18.864602212900245
Bi 2.164962946935158 19.871639321752657 21.42394996028409
Bi 3.4401218841626413 17.59818334029183 19.95649980501621
Bi 18.355614892075653 24.752543829588934 21.266977893325397
Bi 7.888984899693364 19.59897176187638 24.743859934854502
Bi 24.244380789238466 20.69842775598716 20.009682218205278
Bi 13.075589728707616 1.666394031442537 0.625370727339019
Bi 0.7436147766466239 18.192984378724738 23.60330307654854
Bi 21.251399844266874 0.6682893470760177 21.676903319323337
Bi 0.2012741498642252 23.133860765032317 3.7654424803329776
Bi 5.843719598370803 21.035904028634054 1.4627599077497655
Bi 1.8273867223772668 1.7351554645982552 0.43776919845622253
Bi 24.145712395344585 3.1662435546489176 0.38098228357555997
Bi 5.366953080691251 18.795507264061776 23.125527803672632
Bi 22.836312361214556 19.097688502300233 17.104594793404004
Bi 14.360147634376 3.2318123516402264 21.60529564953557
Bi 23.109162053815965 0.34875665197415684 0.9856165100723945
Bi 20.431879108911563 0.03497612326282294 24.501684514080303
Bi 22.095276707479712 18.572931345142457 19.97286717144293
Bi 24.170015396640828 20.372372873539813 24.947957628145943
Bi 14.927915380885217 24.273650533844947 0.4644592717106045
Bi 14.94142633217174 24.654890591417505 22.392904359887677
Bi 12.332024758501095 1.1547033382981897 22.71232391748956
Bi 18.47976116356048 10.066122073796903 3.8235861983044637
Bi 4.036669213234003 21.411837841435535 23.89253588505884
Bi 14.925984908858334 5.778502276482006 19.816868838834907
Bi 2.3218616186143475 19.740955415440002 0.7134679265265518
Bi 24.662627653813466 0.8160813284130753 23.4891862673855
Bi 16.094543274632926 2.0171365390328484 0.7921344018620001
Bi 1.7663915243943695 0.6838522018532743 3.349134935742877
Bi 5.7976468021870895 18.010070926627566 1.1265713232600392
Bi 2.5170490461684487 17.85556920224112 16.961523113972408
Bi 17.550785994701947 4.573451891982208 19.056230404139
Bi 15.049228004141945 3.947971196004014 17.44553357003689
Bi 4.518392060951264 20.11942349971654 16.537200750915698
Bi 24.33873272803328 22.419810862999835 22.712363424083854
Bi 20.00135686572194 12.019858464654549 4.774946160183406
Bi 1.207511920428444 22.878797544725575 0.9208786591008344
Bi 5.236702699522301 19.99593049509613 19.53909721789864
Bi 16.97386385303892 2.098185086728618 22.818103031211898
Bi 0.8356718827650566 20.313323583766458 16.989361816247417
