45
Energy = -164.11288104 eV
Bi 17.04404122995981 15.040768477630024 12.859951086702637
Bi 16.322925280913772 15.004966107474642 8.716473148023624
Bi 10.771727238332486 14.004943518592823 14.97561491744494
Bi 17.594572636926014 14.969874086494313 17.530272450038176
Bi 17.185570933580532 8.607379713959192 15.358495458542752
Bi 12.083929091415175 7.073961066004202 10.605093871834692
Bi 19.262755603100864 14.813335495873387 14.98334324951612
Bi 13.72610512599719 17.288028032207077 11.215557771325468
Bi 11.583456179185797 17.687624417473515 17.136003960297664
Bi 7.854869451456125 16.237807160429213 12.074162704519866
Bi 8.430668763474673 11.42405516133747 11.97749964476285
Bi 14.273626337451683 14.088684217966398 10.832885669608947
Bi 10.620007492023662 15.226757250761521 11.229792123598346
Bi 15.211614643619649 6.465566162356536 14.523437617368453
Bi 12.76440480546923 14.002007891118827 8.101638092858813
Bi 14.345756008495007 12.58631109112085 14.817984475885037
Bi 18.289826112172612 16.509630158618776 10.478189932808979
Bi 10.863428767993474 16.35743378477661 8.389894913639274
Bi 14.062191366211342 19.45256754259383 17.413803648317973
Bi 9.833315676939957 13.546273872466708 8.83329159773891
Bi 12.656640324079254 10.182857805339435 15.818266473958037
Bi 14.59649399151439 12.309776130552558 19.582518605859708
Bi 10.607330228860187 13.739049191746203 18.07974701241263
Bi 16.37578311961306 12.210979506122117 17.100005495232434
Bi 8.8198421860323 18.46370599726774 13.909294087257258
Bi 13.656956424104118 8.488548080917335 12.806992791753066
Bi 15.928791385301666 18.105417429865337 9.29546452760913
Bi 13.165347963200919 15.026831877490768 19.235763319173337
Bi 16.113530875491534 17.427068597451072 16.195051068963203
Bi 16.449364828296297 11.756535713935031 10.173411218231484
Bi 8.172861808066532 15.713627189020405 15.05213326121546
Bi 11.92304698421695 9.906740745975853 9.501901649204772
Bi 14.697711728960572 8.18555707831929 16.994486057100982
Bi 14.63155780650497 8.558394480668715 9.888625951085778
Bi 8.533903923488936 11.868933494373492 14.97176018267163
Bi 11.487000577935545 11.49651942309307 12.138308564917724
Bi 15.965312992294312 18.24672909548815 12.95558143904203
Bi 11.784150674103026 17.69403956203165 14.046991812879178
Bi 11.997164446376948 11.019396490860437 18.66411648653915
Bi 13.784496774844753 20.006717486472322 14.437033923613226
Bi 13.68822790588087 15.559728695068582 16.33066258194767
Bi 9.913774994397047 9.42123114713939 13.734542164050456
Bi 19.190230074364898 11.890168953162565 14.103552492119423
Bi 18.94455997590626 13.090287135013012 11.245887979579031
Bi 16.393456601764964 10.845514823688594 13.286845859069368
