48
Energy = -174.71719884 eV
Bi 14.564029420397224 17.185260928968997 5.025624087205316
Bi 10.972365294876631 11.902923329105928 6.751469998917086
Bi 13.298993402214684 14.543272301737762 4.4062216665250356
Bi 15.738753445085518 14.641522711325676 6.258576269062406
Bi 17.680004140062376 15.908821692702665 10.963382304056232
Bi 12.04240880221299 16.325881795098894 6.554625473883013
Bi 9.657474316131127 14.093241536645602 8.459477441359953
Bi 13.919948883256572 11.5044704638269 7.251434990913113
Bi 7.382545914126447 12.123920512336262 9.167631246832434
Bi 11.890980096403087 9.364581058371032 8.196314654743485
Bi 18.25566877518061 10.614684237321455 10.457411323679166
Bi 16.48934756834957 13.146913831348568 10.21502883202787
Bi 11.048986107607323 14.233114050583639 11.203063440822952
Bi 13.46064108755063 11.011813715629392 10.261369911694466
Bi 15.037787074996958 17.228927584913723 10.060848835224647
Bi 13.769309443655231 14.819846529081119 8.644571356994351
Bi 8.693499761426507 16.015423724404517 11.938644400130723
Bi 15.6575832133657 8.8657257564965 10.611636995917427
Bi 7.051584792130648 9.50167226433755 12.487029895324522
Bi 13.763998746425312 6.503947960795653 12.54739298807829
Bi 18.920079337881045 9.994510352910208 13.355218659744896
Bi 9.355298161905667 10.368061366675281 10.66177741569877
Bi 10.995342494723364 17.232078865268967 10.294816590062839
Bi 15.616558709621732 13.075707427209176 13.179716089621277
Bi 7.697878436436769 12.488546383052453 12.173486869107778
Bi 11.993962007895968 18.565325671033484 12.881161796933954
Bi 13.997643966042606 11.780874414823145 16.103014891397024
Bi 16.64148929583253 15.937365307315796 13.851115826648709
Bi 18.42646982864334 12.895295881328902 14.260517285802868
Bi 15.924675922804209 9.536010878719694 13.600019543879235
Bi 15.238411429524412 6.956124804816891 15.045863636721556
Bi 9.149932752143926 10.297646805967565 14.58570624752152
Bi 9.868226436871803 17.103472453675398 14.568906616409675
Bi 11.027059718193797 6.324545788945685 13.934363119366983
Bi 13.776534793913694 16.138042401549363 12.613254665411198
Bi 11.655593745931224 14.826041570216873 15.626078918066517
Bi 8.917611482165752 13.531272024855276 16.139590825478145
Bi 11.677685760500262 9.103752503720179 12.940935516986672
Bi 16.63687863105708 13.316269237625713 16.764365565680517
Bi 11.336274235479868 16.48094731408366 18.211434787521075
Bi 15.784101060281113 10.85329690752865 18.347235248538826
Bi 13.781631189965113 13.16644144000952 18.807592772241055
Bi 12.342958028514284 8.289927576819704 15.852825574081965
Bi 9.424758374565338 8.658442435597154 17.07826266263438
Bi 9.081730612670624 11.414759799013432 18.349445451494525
Bi 8.462781505020356 15.485864864345071 18.51550015818231
Bi 11.402504143612331 11.903973941715622 20.213925862964572
Bi 10.521897939472916 14.771315883270013 20.6139915755346
