47
Energy = -171.50896987 eV
Bi 18.692809864700376 11.986054377588028 13.87414016316737
Bi 19.127543811021834 14.99825049163095 13.337358821339368
Bi 18.78174475752215 14.62586653486454 10.316475190389523
Bi 16.3732264625712 16.322273628324456 13.825047555909801
Bi 15.68849425703904 11.473430362826111 18.320115206637702
Bi 18.65975546617528 11.578347937884475 10.854171644253524
Bi 14.346681359441485 19.713414315570493 11.48674427582616
Bi 16.158651144570705 7.927096677368781 15.261585824788948
Bi 15.76498871474686 12.574269615202756 14.150734181733908
Bi 17.070957339982115 18.24269551088275 11.566026278537224
Bi 16.59891151121053 13.976101781034725 16.752738539862076
Bi 16.559607235727867 18.4610422186754 16.111225962878763
Bi 16.15328046082894 12.999621780510829 9.787240991619631
Bi 15.603899731929959 16.41913358668992 9.556024726681125
Bi 17.40815720528298 8.524243328185221 12.548570794462023
Bi 13.536278225184455 18.564272416568087 8.751216719744514
Bi 13.584237818806859 13.49636107836845 19.273383688698978
Bi 12.94599606488784 17.637703481859237 13.228035583134474
Bi 13.76068129722731 19.487440395464603 15.534695721019483
Bi 14.345839694939714 10.35768805563954 15.78152483616692
Bi 14.238074264219073 17.547858989604574 17.83226211588589
Bi 14.211126511738579 14.594506395028088 11.71458821353004
Bi 13.670640235422152 14.852861975163496 16.519264277839522
Bi 10.059294624832248 18.5920563520589 13.31541954236211
Bi 13.128368651333691 14.133579670359378 7.693898361350808
Bi 14.672297723282728 9.749814600457132 12.00850429264216
Bi 10.794677465776271 14.459136745816675 13.824128871018333
Bi 14.521778473579726 9.846659027710746 8.956259319742596
Bi 11.067980920297732 11.748121292326038 19.15848427687164
Bi 12.09465051840276 16.055681414787536 9.758249488088552
Bi 11.154536031247236 11.717644955258482 16.121250044426798
Bi 9.86469464111291 16.68365301834269 15.756751863851079
Bi 9.141670849614437 13.543961461662168 17.59233904369141
Bi 14.899280751602634 6.790000109597811 12.731192492561368
Bi 12.210100695220204 7.844473388151777 8.50102677073475
Bi 9.191714501278728 16.12869819879197 11.736219262459114
Bi 11.10659421714696 9.474761176203259 13.236921225006913
Bi 12.283995847967937 11.883863931228255 9.5555414591218
Bi 9.527082040870345 11.76834131326226 11.933359646621291
Bi 7.849151987162413 14.916696516925688 14.26782615729604
Bi 8.298530152418875 10.782107687579366 16.54678259372385
Bi 11.232896842715864 7.167469409876097 11.270286723786368
Bi 8.314824933945067 8.240881919229174 13.764696221452523
Bi 10.505359157831142 10.228401387684311 7.684021635903258
Bi 8.162757402763537 10.269803301582737 9.640876599342104
Bi 7.120168660510495 11.069533661289926 13.730762991761145
Bi 8.240352666240728 7.4726188301396625 10.778931417408245
