49
Energy = -178.24694522 eV
Bi 18.447701845913233 13.89196814213015 17.503440215971548
Bi 18.343810431649118 16.347440128581603 15.053723553789146
Bi 17.68694438734557 13.348195440928345 14.538460946613426
Bi 19.625198033307548 13.234059653048794 12.12867743927382
Bi 17.014270013506575 11.576424170165751 19.170968252002947
Bi 15.575365890223926 14.927252382334096 17.654270902560548
Bi 14.680786308725748 13.154941510824948 20.15225188098075
Bi 14.422759122233286 12.881793814038621 15.639955757278987
Bi 18.39823749284231 10.595353318318049 11.186324779366952
Bi 15.74516660982741 17.584415566834238 15.858591510971465
Bi 16.244682788926017 10.288359883346805 13.360642928544536
Bi 18.351054329706848 17.471694337784488 11.796495103860767
Bi 16.214566348636012 14.966584637135538 8.47052171902527
Bi 17.0376740600353 14.75477798411856 11.465375500619674
Bi 14.20042231302221 11.002287084788449 18.071555767072507
Bi 10.909567237157617 13.785829359004257 18.652241919130915
Bi 14.428438860876451 12.307475147481005 11.93852877756158
Bi 16.01943490441939 11.505665628649226 9.4335144342627
Bi 17.285227386035263 17.84201585674702 8.795973477035949
Bi 14.284539390260235 16.230316579540467 13.57077009039965
Bi 15.640174894508673 18.72950107423991 12.493114345994766
Bi 11.833201480640565 18.030557489551512 13.496128752125035
Bi 10.381199752034028 10.770807752070445 18.554312912922327
Bi 11.076280786106674 16.918174303122544 16.23191048877248
Bi 13.616052895448851 15.715919241706217 9.996996571929714
Bi 14.485430209901761 18.64655054508437 9.594068310742978
Bi 11.50110212933054 13.845217799935677 15.704792168243836
Bi 14.48342963926296 9.288190904669168 10.98665037153044
Bi 8.085245272476994 14.215499103745103 17.47710266347287
Bi 11.429678266987212 10.291011232352805 11.975408728363089
Bi 11.963906803909339 7.3357431617361355 13.098665696605892
Bi 10.52094677372109 7.300319954366397 15.752632184671228
Bi 7.712577139601551 11.18930288641504 17.09236258708209
Bi 13.506409529152029 10.661409426097967 6.7722676783671965
Bi 10.184598005449443 10.465305300105316 15.39889840784371
Bi 8.438773140453334 16.101187440226862 14.967304353692548
Bi 10.470148469342089 15.382428766767577 12.655685529337877
Bi 8.81396579533913 12.722594422566312 10.741595027749334
Bi 11.934815457514755 12.298919403952773 8.916368197190568
Bi 11.355742736585473 15.181415329092923 8.001190900641047
Bi 9.18972086900889 6.196287612660526 13.337535091862748
Bi 12.674484762539597 8.022279120424818 7.969379211013065
Bi 8.152836328722115 12.651564372309052 13.792140587076595
Bi 8.389831042795638 9.228516971217594 12.685785046581675
Bi 9.050957152389364 15.7619841192839 9.946975200294647
Bi 10.985646295136918 9.262904191904711 5.800159619046709
Bi 10.056657557433804 8.74815277978109 9.746928302949403
Bi 6.273992285716065 11.278802160643938 11.884991479839512
Bi 9.373648215027641 11.04528603427718 7.854447905587034
