42
Energy = -152.47840678 eV
Bi 9.199565636478354 7.43849862816201 12.877816579036072
Bi 10.176447546092902 9.469517365515085 15.110415754092706
Bi 13.43434401493718 8.298967365738262 14.675685184892597
Bi 9.567287297248807 11.391569494711115 18.314413270645616
Bi 7.45347744136666 10.786745552008103 15.805034677677371
Bi 13.780183022122888 7.42822458375024 10.743653913877118
Bi 7.077883916800648 9.545835770921038 12.813142550657199
Bi 14.102465598079815 9.317438255415766 17.52417286646258
Bi 14.49956401745023 10.987122904127602 13.576963662946213
Bi 11.186057753788253 9.058233729739689 11.241831177865032
Bi 12.142485723082181 11.58966001577579 16.855087060459528
Bi 8.917267348463259 14.26346566959217 17.532984455559436
Bi 10.759889469701468 12.072516179461498 13.550396874241143
Bi 15.849066485931464 8.365619080487747 12.80249227398969
Bi 8.258111386999659 13.515668565737865 14.624845183558916
Bi 16.3362726334871 10.792422310832366 16.065514788329807
Bi 14.030814318552007 9.763182253022087 8.783461679887308
Bi 8.431537105382914 11.931144789984707 11.446336300427413
Bi 10.833239961114488 8.954019152487483 8.209131047469088
Bi 13.682812625447841 14.579299878819137 15.664073490827466
Bi 9.244069781464356 11.463589897475124 8.447236888348831
Bi 9.898894388802288 15.180565345739835 11.912919238120871
Bi 11.564376308287956 15.757940461586342 17.56491782769068
Bi 12.837556700796009 12.00542618197075 10.515866297679324
Bi 9.053449970885525 17.798380128688944 13.349383366366817
Bi 17.500083502890224 12.005646735678273 11.828950777040601
Bi 11.956539442212948 12.885667875515551 7.779421446050977
Bi 11.344336671302383 17.923594026089155 15.413704691051535
Bi 12.55656853258759 16.44169019953074 12.923555201599648
Bi 12.741352267419794 15.919854442174216 7.9527998813581195
Bi 17.300599110288985 10.3223559080231 9.314834670902792
Bi 10.2760945129278 16.92809284657034 9.390998511926602
Bi 15.425741521085225 17.1624386998015 15.45300400422277
Bi 15.426700779515683 13.519530587458256 10.09464991430433
Bi 15.869254599899785 13.43042745519157 17.48876268505253
Bi 11.285504897623856 18.88573289669657 11.528501887409703
Bi 17.432572914315013 12.940767188909174 7.815261890398679
Bi 14.676261228823789 16.488069422571655 10.39019565385297
Bi 16.441149683553288 15.240092033473047 13.315258846582608
Bi 19.1393421880294 14.044794412992061 10.11351279459258
Bi 17.80495981747309 15.350115611049064 16.080718689668316
Bi 17.802302692380632 16.689732262811873 10.943436500742802
