41
Energy = -149.12673751 eV
Bi 19.245176252124736 10.575453163084047 14.27775491625593
Bi 16.711552138795696 12.258602651462827 14.583557499561408
Bi 17.99188568352775 14.746174028114048 15.78278865615907
Bi 16.970330004740987 14.555853293894343 18.65903529041271
Bi 14.778573044883172 12.482657035406174 18.876646229660523
Bi 17.68293201620629 8.549753118460794 12.606458782683186
Bi 15.049101148771685 8.667242684696554 14.194129948780029
Bi 13.429119480209266 12.259985372043108 16.147931058714455
Bi 20.417874060223248 12.261162918139021 11.98540040691833
Bi 18.09283067872475 11.994708313549687 10.072922684244716
Bi 14.103295963213583 7.475689787897625 11.551949462863544
Bi 15.10720224414311 16.85162913892387 19.398208292500815
Bi 10.756622130500329 12.768081191045086 17.570402296261
Bi 17.905778912981894 14.037776198648718 12.297710517683898
Bi 11.73303886868351 8.791359496776641 15.446577406333924
Bi 13.143227647999277 15.167929455603954 15.327868461335695
Bi 15.78141976257418 16.593406026822446 14.778535569183
Bi 9.3365708970183 10.12637684294207 16.81040268640995
Bi 15.341574867359466 10.276217860136232 11.6325851675015
Bi 13.06678489878131 14.664667441714418 20.183719584390754
Bi 9.017610101333103 13.877389287532267 15.333090235104379
Bi 18.740270858797068 14.689986851563738 8.750538926958525
Bi 14.586234811608318 13.686571108030181 10.521642888559262
Bi 11.617510476266682 10.990765312486593 13.245107365198932
Bi 9.675384312280128 7.567716080395275 13.529726603995162
Bi 12.46454751685182 16.573566076431835 17.941097762218224
Bi 8.631305806727156 10.494709694745113 13.804401392879754
Bi 11.30749796228598 8.692690255457274 11.196028495356973
Bi 9.616538360268965 16.831593315657894 14.771849382036102
Bi 15.808847571710825 15.186260775957843 8.102069794645177
Bi 14.889149494918405 16.45693558522514 11.826526705256374
Bi 10.819977519987809 14.655980591788257 12.95996215385426
Bi 7.923570290772815 13.764707591023921 11.850005450119683
Bi 17.254576572899413 17.095883190919583 9.966719774988341
Bi 12.054167627608805 14.323078329053631 8.87631742641909
Bi 10.037754397649325 12.36616232662706 9.924507571187453
Bi 11.480632726523936 17.185484417873127 9.674784292033834
Bi 7.307308074199986 16.68951195626617 12.761816132437819
Bi 8.819165350370952 16.94078348410129 8.226240848091075
Bi 7.769264197387654 14.116980134552405 8.834039730862656
Bi 8.948745366975416 18.346948402435217 10.912671400714341
