49
Energy = -177.28404603 eV
Bi 19.848571121631313 14.018351306419099 15.228101832568854
Bi 18.435355510710107 13.684684178769837 10.846230292024995
Bi 18.857614128603974 16.502236259611 13.813823339223338
Bi 18.29592999235602 11.458900282602977 14.456666564161043
Bi 17.481271919238438 15.022763664135477 8.253789026476511
Bi 18.018279742108483 9.60125920013928 11.940819532270496
Bi 17.16278980549858 17.54705050988495 9.97347907055821
Bi 17.671691906194496 17.066008880256142 16.572385547454246
Bi 17.397796475478955 13.547453813471787 17.144351286542292
Bi 16.041653013451736 8.281379604673967 13.676756555473506
Bi 15.649177800880206 13.009499330753073 14.680272062895895
Bi 16.64569770109683 11.41511209397493 9.91092863125641
Bi 16.36891786565878 19.90744283923727 16.396651103958234
Bi 15.533072005417628 10.43197200390452 16.284332979430516
Bi 16.433965064261137 15.553529908445876 12.224216087737911
Bi 14.100290510325404 8.375397947495925 8.745510468558916
Bi 14.393059822092306 17.661336391957196 8.695598939701842
Bi 13.63411174017049 7.057014667124998 11.41629291208152
Bi 14.140579275332426 18.79803775954004 18.14295309057731
Bi 14.922395159738727 14.326382789084967 19.29980643090386
Bi 15.159968664268973 11.390832390271228 19.32841138077539
Bi 14.7106806997988 16.274964680333166 16.491307113345183
Bi 12.068749565712663 13.091440873284448 15.997926461370476
Bi 14.018709668577067 18.907618332008646 11.538797003365312
Bi 12.43679869838018 10.590273849377354 17.689468829145948
Bi 12.528946904486597 16.497335383528846 12.661637168130856
Bi 14.15751623777698 12.747304940221575 11.090724226688783
Bi 13.216864530627822 9.669149529215643 12.951829331622548
Bi 12.789367088649266 8.2048203038134 15.628587602719744
Bi 11.11828886972705 17.10856248841385 9.997481871806274
Bi 12.735514359977545 11.155116970293827 8.833738319586828
Bi 11.88689555594805 14.002084190125924 18.848738978328857
Bi 14.426101231087452 14.555130126311331 8.547944457062087
Bi 11.441150683134824 6.973580722155618 9.14612460630199
Bi 13.741571627700992 19.019684658680855 15.159541963387477
Bi 8.173780226875579 15.697753296940537 17.36909117352898
Bi 10.290214806312834 12.587025460802675 12.758367073374188
Bi 10.311497859074786 8.508155511292696 12.469964963727373
Bi 10.88230689649886 16.78770764539433 18.08328587625078
Bi 10.923703661607723 13.889351464189547 9.910099890165084
Bi 9.078153901890854 12.713956752552852 16.50282224102306
Bi 11.048269402702065 19.1363226682194 12.318673352045465
Bi 9.90872767934823 8.79639007215749 16.482525037660437
Bi 8.499394530857455 14.799125223975317 13.827238886133511
Bi 8.31274490663407 15.689207980197459 10.724550523132228
Bi 9.942403756750865 17.14364231382833 15.195112759009227
Bi 10.121311874316401 9.70803446288171 9.672279600001618
Bi 8.490953371150072 10.21437498536631 14.310466276275996
Bi 8.248470000064234 12.576517112867611 10.461575100362552
