43
Energy = -155.92993658 eV
Bi 18.624764207600748 13.749438571198949 9.111167403732527
Bi 18.31693719826356 16.630029747613847 7.969590271021691
Bi 18.72002700426691 11.440752320996731 7.008431793173719
Bi 15.703495563614517 13.8192266842256 8.135950597676898
Bi 17.687575890680634 17.479896867021385 10.807791340240929
Bi 17.655103589767485 14.817712994162573 12.402890901714855
Bi 17.940530983854558 11.033515298238916 11.54099517556397
Bi 17.754142272984147 9.342228669909685 8.979977841345793
Bi 15.687695906984763 16.982688199397593 13.70638415181709
Bi 15.565641927039518 12.984972066904358 11.105474905802835
Bi 15.793071840928432 10.684564041904355 7.157844814274869
Bi 15.424843416717493 16.978511596318185 8.902048225067162
Bi 12.648017387468487 10.988136900978065 8.832402128674877
Bi 13.712105742511982 18.610477325169178 11.876325201613676
Bi 15.853919822315772 13.16554715466282 15.5812153274986
Bi 13.377489297691946 14.902198195456242 12.97512483681685
Bi 16.31132282121237 8.997282644054149 13.18752479162742
Bi 13.20799966052192 11.900872574204614 14.757248545344037
Bi 17.419025735500167 10.531241556090746 15.602611961971833
Bi 13.636525088214169 10.247245885447468 12.169845281981488
Bi 13.610349938572545 16.06523635113386 15.853885520232572
Bi 12.131155316135818 18.467950240620873 14.540937510308703
Bi 16.293209174387474 9.955453002939894 18.424425731443357
Bi 13.703525453294157 9.009627957440749 15.622314654156739
Bi 12.376643263254381 13.970230546325444 9.389509583528175
Bi 9.938113533549314 10.696518859310105 10.35378758033406
Bi 10.498399278452593 12.995846707447278 12.233548935406
Bi 11.209496383902549 16.933831346895435 12.06644693091036
Bi 11.333730207737098 8.668006326574956 13.637678690036715
Bi 10.6866334870731 16.581917653425336 17.90812956378393
Bi 11.561523651133838 14.313261406187964 19.746954729545475
Bi 10.338865895641437 14.536948280613021 15.6284563668396
Bi 14.829920247904283 12.650529890363904 18.478023635873008
Bi 10.156799906183355 12.48887682213012 7.893862523063143
Bi 13.230819176035595 10.06765405478994 18.46372047531562
Bi 7.537911762339846 13.490715992854922 11.422122241671142
Bi 7.054218906960087 10.800912268981378 12.783392644114787
Bi 7.326108247120432 14.898944983754369 16.070328810282287
Bi 9.586647645510597 11.001034620377753 14.551834061427497
Bi 8.718180562479791 15.406777512693456 19.96339719835967
Bi 10.431887576795425 12.253717125820142 17.711795849764158
Bi 5.817015728402132 13.330431042811398 13.918124031224114
Bi 7.512276003269884 13.052704416828034 18.450143939693554
