48
Energy = -175.36345841 eV
Bi 8.718630666233707 10.152142535414372 9.551787342718027
Bi 8.923717919097939 8.528045201560168 12.175588194253814
Bi 9.890190268496946 12.789405012112988 10.625712954381163
Bi 10.531603308047975 13.463101764880177 7.720552216125206
Bi 11.820574184084933 10.060932771744074 9.842542482177286
Bi 13.203841207993914 7.1709585447089035 12.622306201545985
Bi 7.2696494490395285 10.445405561376079 13.884156177326771
Bi 8.47601469964873 9.87479882863869 16.547108229700363
Bi 8.59434279643245 15.581907457797165 10.877890096699723
Bi 11.515167002095076 9.652048900769625 13.336722678738735
Bi 10.765767539802733 8.008336797406564 15.812193625149629
Bi 13.102205071981189 11.818006081973202 7.69358667577592
Bi 12.543658252232259 15.667240673839324 8.441797925521762
Bi 13.826737641419431 7.7894694219903275 9.686005247059738
Bi 7.1728313109940265 14.108967958857297 15.508772123892223
Bi 9.041352800802212 15.929502659994641 13.898850679849643
Bi 11.636800116350686 15.8501188428228 11.423593666206258
Bi 9.47876537837291 12.707750015853826 14.13337800589669
Bi 15.02958013203166 9.500000820534597 13.518000455924833
Bi 9.550366781108032 13.06277007200287 17.191224002590474
Bi 11.68767159729236 18.629196816689873 8.288765151207581
Bi 16.580347666834047 14.406737430542401 9.499249917936055
Bi 14.16439993771662 12.719977180593775 10.434475692614166
Bi 12.07918513963919 9.540982750249318 18.10036243062911
Bi 15.064213667951487 16.692630271636407 10.882726845332927
Bi 11.200391866258725 15.707627592204286 16.44397598664955
Bi 13.32324996111057 11.870858782620948 16.568381110915823
Bi 14.704569751266465 18.892061510087462 8.77530128439964
Bi 15.74350653739328 10.056222964526501 10.588199237255912
Bi 11.01500622058744 18.862146539882573 11.301092800534597
Bi 17.307226516817956 12.095862668614458 13.596198900297795
Bi 18.038758076665346 9.093008461859823 13.75420052650697
Bi 17.156457017899065 15.779674170982585 13.811987290760488
Bi 18.67206251904436 14.10590068764987 11.719649541207383
Bi 14.33660615285369 13.25869874500924 19.082522269809562
Bi 13.658020726305137 15.1909066915397 14.62367098858885
Bi 15.152249895794538 9.9335715594127 18.118231248222056
Bi 17.429636787512543 18.248939983012935 12.024758105252896
Bi 17.700979516781796 8.810937852507395 16.77234359276033
Bi 13.584049086359578 20.550678620205378 11.074461898884701
Bi 12.945831077953073 15.992241758182866 18.9491303825371
Bi 15.358333457430598 19.891541650864436 13.496496992864204
Bi 13.13343240057352 18.181550948365718 14.755926610286688
Bi 19.873448097225346 12.62745763725457 15.223697774066308
Bi 16.519397459784606 13.366886546150324 16.817202432576572
Bi 18.90832514571711 15.319413782172075 16.30502357012543
Bi 18.747323539723496 11.480375538056665 17.819366130127865
Bi 14.987124369060064 16.8719004241297 16.85164467614462
