47
Energy = -171.20486632 eV
Bi 20.060330347304312 14.504643626253722 11.58627945516462
Bi 16.071222916754152 16.92647523178255 10.680583006209849
Bi 17.76742199533195 15.944631288086654 13.030239036680795
Bi 18.18826369115599 12.87748934896821 9.822312357146279
Bi 18.504544198284798 10.5896330166498 16.431607944730853
Bi 16.984599484750397 14.062362294254832 15.845027296332237
Bi 19.34834622645465 11.636391155669996 12.33970812651717
Bi 13.852567974023842 17.241226111340183 12.747602202685933
Bi 15.898285330187983 14.006254078156251 11.514930551747616
Bi 11.545119241973545 17.643960452933726 9.59213551115131
Bi 13.710514409084988 14.489897736218454 8.129004080234242
Bi 16.314446564733817 11.99708028903382 18.09645392435747
Bi 16.472880460063124 9.183494756174746 11.319415768407515
Bi 14.305647144873914 15.530283208222254 15.260080968779102
Bi 16.816527619091385 11.585475220657944 14.099112092201942
Bi 17.178212128305162 7.810753932071371 16.464893819003414
Bi 8.793835786742244 18.02248065029595 10.874862536650054
Bi 14.3068504881189 11.518264659274385 8.122760067530614
Bi 12.637376742102955 12.690658567268427 17.360734229390637
Bi 11.466863761062447 14.47981517773751 6.112547301409324
Bi 12.33907492472996 14.966017127738116 10.853071918423705
Bi 16.001886810186836 7.247716235516214 13.697262858833628
Bi 11.219379752347953 18.865793809636084 14.864331735932106
Bi 8.465222569338408 19.50580504999562 16.15446736368056
Bi 9.737631538523976 12.002142349040994 6.334403439895267
Bi 13.920413254816282 8.085257459814528 9.949261185378141
Bi 11.514647502288932 16.744238371062657 17.10224380727268
Bi 9.707899737280673 16.61799759271099 7.390174877647338
Bi 9.895396509195562 16.584905355031182 13.334021608889392
Bi 13.900528593091964 10.915193588093775 11.101176632367318
Bi 15.066685304009306 9.15955979368611 18.205818872679174
Bi 8.47737272768734 16.92632896895018 17.755333700897175
Bi 7.884211262748528 15.422011315259432 9.519023409902175
Bi 12.334679522745608 6.772367946784169 12.216589958266526
Bi 12.838171551374899 13.025919260165928 14.364580115274288
Bi 12.584529057597472 7.976806031428429 16.85346301515876
Bi 13.465947170238744 8.910986923127599 14.095160575564867
Bi 11.64279658081911 10.08310783729433 7.740737327574975
Bi 9.247746771306296 11.211619868464872 9.2290467975592
Bi 9.624400773474616 13.531121283322348 11.17059139301455
Bi 7.2913383134225125 16.984001051309868 14.958202696921633
Bi 10.356563795945318 14.191856168850677 15.884094098767633
Bi 9.586915168477189 8.170689489724992 11.686762486817663
Bi 10.826637403861325 10.307997803445687 17.806521580572984
Bi 10.581119844301597 10.623049523796489 13.260206127906265
Bi 8.64235954254141 10.606824631591234 15.635920460256953
Bi 9.77436514608203 7.951238017776339 14.716150045676693
