43
Energy = -156.76113603 eV
Bi 14.769742278327808 18.941429923504465 16.511139673145593
Bi 13.152380131945373 18.37549883872659 12.627326425050018
Bi 16.969260479415823 17.322961899654427 17.825371433133192
Bi 14.432022515491218 17.891714164498335 19.354005723447262
Bi 13.828612899780984 15.716750528179046 10.186673538012057
Bi 10.944608519039996 20.022755719421692 13.822923016050849
Bi 16.353795041891637 16.034561307999972 11.95302144631437
Bi 10.241715650274953 17.776417813495893 11.91901754359576
Bi 11.244956929539788 14.237109142711098 7.729155288423355
Bi 11.327485507306182 13.530972576572358 12.819201445996411
Bi 17.220717027649332 14.536472114280901 16.499616578352704
Bi 13.142283509431861 15.322123262112747 18.2386620203736
Bi 15.666948104381582 13.803198044297691 13.947278142877337
Bi 9.7430767673542 14.599415087895082 10.396793641528852
Bi 15.766284704318897 15.270765840483783 7.907134458052812
Bi 10.313829552552331 16.356635869080236 18.5918872329432
Bi 14.592821100882057 12.41404155498931 10.800352321723189
Bi 10.872595013978394 17.520978118249374 15.744513089749313
Bi 13.685686453849556 16.441530817474483 15.143013273467693
Bi 17.291022463224465 13.785789767332318 10.125998124155382
Bi 18.16896394373352 12.026289470926544 13.812351285573104
Bi 9.283356741429515 15.553200342811635 13.976369309355334
Bi 13.926823503339625 12.696652247055997 7.826351045761028
Bi 13.018299562749144 12.525339626449586 15.925768132120528
Bi 15.45454032681223 12.404023105654757 17.796950471332288
Bi 18.210635024250795 9.78223502133545 11.733217835285101
Bi 11.285495720630307 10.641183635689927 10.067746136377352
Bi 7.694211930256975 12.443114692370868 9.627053907852238
Bi 9.004032969678784 14.119247104957656 17.028130404799093
Bi 15.588993352854173 9.531335068383994 9.838579910647198
Bi 14.173381491996329 9.58878817939768 7.058549486486559
Bi 9.80724391476965 11.538540031589804 7.566320447996301
Bi 11.131801374830172 12.464376612457189 18.41032880934517
Bi 12.114411345540226 9.85245821343751 17.088111322233708
Bi 16.829019789497853 7.436727683861623 12.909743673434399
Bi 9.140763728565773 11.628879160324098 13.849951750211032
Bi 13.360078402211455 9.896707138115163 13.300582818348472
Bi 12.238216680646543 8.088272461444575 8.763735241942115
Bi 17.21679172589296 10.418461653986354 16.21860886898579
Bi 10.662946997936901 9.07297962358672 14.518021435774317
Bi 8.561344175965708 10.038250393342407 11.315882982440247
Bi 13.94077984866968 7.485814584818015 11.470484337864821
Bi 15.157944813605532 8.395923573541326 15.283997985940657
