40
Energy = -146.33157364 eV
Bi 15.216553550190996 11.086631647634524 8.015139538673363
Bi 14.596408352159283 13.790724513068435 6.73627270080383
Bi 12.033517934146357 12.407526404221866 5.868812598373735
Bi 17.764335525601513 10.934708133501076 9.718277854681936
Bi 12.936303050993823 15.953003414752418 8.14845935770613
Bi 15.198178672865884 17.25174290041356 9.751416223863712
Bi 18.05913612658862 13.751604526525856 10.79816456473075
Bi 14.096626575277927 8.250421632300933 10.85506087124755
Bi 11.330316544917086 10.282160330910301 7.989342461030527
Bi 13.208498926679537 11.101731118256266 10.23116643366309
Bi 9.96770493668066 13.000431609471248 8.037522299530258
Bi 11.225040905994272 18.292967992386846 10.684325639957134
Bi 16.738969056552698 9.220440106453548 12.08642016149544
Bi 8.813581235345366 15.741202852231899 10.312789316092767
Bi 15.186746220800934 14.67987803519457 11.38235609332234
Bi 16.3983493275015 15.67497619148179 14.035727160985845
Bi 13.640469137434787 18.000103670201007 12.257980582668356
Bi 11.55213336481937 14.315148356237245 10.320174663256486
Bi 12.17232823331152 8.692187941550893 13.204112287383603
Bi 9.589809926461108 10.770965995500712 11.76275479999512
Bi 12.392084711453963 5.668019848863657 16.245659057703303
Bi 17.91037011016186 13.015002421452342 13.736161677481084
Bi 14.150804443321995 8.042596673955122 15.426323208532931
Bi 11.368382232088479 16.15373369399362 14.187231473048246
Bi 11.196735249041987 5.802233019641023 13.439928590871503
Bi 11.245944006078282 12.589472115536582 13.640504991946926
Bi 7.568024487803618 13.134586553291921 11.437191387856679
Bi 9.092827972552191 17.585115745435196 12.735589785528152
Bi 11.74305289923352 18.11461634799209 16.491406059003168
Bi 15.684412225902822 11.818290429852082 16.500013576420884
Bi 13.188527507160536 15.829326738223525 17.90593504493596
Bi 14.083823335073921 14.224036698099997 15.454925592235544
Bi 15.262397614494898 11.502844120116835 13.4367856437518
Bi 13.433215111942562 10.073917252621719 17.560695719334323
Bi 9.513203897744598 6.5067601283140455 15.857181661504297
Bi 10.286479602242917 15.522809068777853 17.080587900816656
Bi 8.357006204122522 13.440165344316274 14.364869251637897
Bi 7.484803598207331 10.497540944776246 13.99376415421171
Bi 11.019810212662923 11.612803697358618 16.55401900481336
Bi 8.918347764872882 9.428940381390813 16.446140395026216
