42
Energy = -152.83128965 eV
Bi 14.448101871115833 17.808586657271764 12.596059779945074
Bi 17.100861831417717 14.281748994196857 11.257478400493243
Bi 17.09484274003714 16.419324042374566 13.462810439904638
Bi 10.773961307873808 16.97179642683541 10.891267749927366
Bi 13.506953420612353 18.50879781848467 17.151344881867665
Bi 13.600414011182071 16.372703067601968 9.902543413007237
Bi 12.075791728723136 17.361914736471686 14.572241692509165
Bi 11.485404782749804 17.43105299876826 19.07228308996822
Bi 19.341549944104187 13.065680860357153 12.968228109562437
Bi 14.184216583587773 14.589611721198 12.306102412294397
Bi 16.56725383721798 10.610396416689666 10.753700487859927
Bi 11.465279431943678 13.576874619217906 7.660709782101109
Bi 10.520961506409751 14.434245117272145 12.577789868261043
Bi 13.879882889569785 15.768698006732077 18.355052696192544
Bi 8.451944101503274 15.787771061724209 14.246460608247252
Bi 15.551239187444196 13.796576818331985 8.004441917146284
Bi 9.85783208063771 15.546479969940203 17.05878405135614
Bi 16.3836947708699 14.836153361699216 16.012011744501873
Bi 12.429334804528333 14.594661276634108 15.771138511594547
Bi 9.239712537041704 15.109442534113226 9.014802829337329
Bi 13.198922517293264 12.39679189016527 9.86646637078924
Bi 14.331433100706601 12.237655482122388 5.682717108396655
Bi 16.541522407258746 10.954950674328199 7.309679160116337
Bi 8.398250444696039 12.596956609110794 10.746615792751172
Bi 15.327839185104958 12.17943071661396 14.704936211168858
Bi 14.248261237568217 10.767110390225769 17.21210475673215
Bi 9.623775290027329 12.905955710794212 18.585094351790588
Bi 19.453785900424673 10.271531544892426 11.691121749453796
Bi 9.351240823464284 11.348569603631722 8.090745056334306
Bi 7.109548342540682 11.88041974200306 17.208640611121144
Bi 10.876070108673938 11.309341273853324 14.293727630748572
Bi 15.881897717216802 7.6648223285330666 11.266856386184426
Bi 6.535247974140445 13.448804851073389 14.677808726677313
Bi 13.648042005447893 10.127948173568535 7.80148719931588
Bi 18.189602326870645 12.400143027902114 15.70166917130306
Bi 13.696375787364156 9.394352523717913 12.604876491698633
Bi 13.959849219627431 8.267476096845487 15.440271816208554
Bi 10.594637025092124 10.476984326481748 10.704544619875826
Bi 17.231099860789815 9.249991831014958 13.500313688226608
Bi 11.174051002372527 10.667678162646475 17.21907239001054
Bi 7.8864949979239345 10.744220141270132 14.462324232634082
Bi 11.21281233595644 8.266341372420726 14.023666991514114
