48
Energy = -175.03376719 eV
Bi 16.40445079399813 10.646283109980082 9.397378078576972
Bi 16.488604339108043 10.868883355010727 12.437856356937727
Bi 14.490223885052252 7.411965453640661 15.361260949347157
Bi 19.456434270483857 9.820858677084647 12.297909999374752
Bi 19.95334761821618 11.08405218411404 15.004434969540638
Bi 17.191499007074018 8.640888777764724 14.698533631933019
Bi 17.691258091715245 13.388737686843857 9.769562614277177
Bi 20.34479155233754 12.478669408321949 11.051868786547807
Bi 15.647455628770114 8.948467527820506 17.732128559976275
Bi 13.69809620384411 9.640268483821709 13.396654742630657
Bi 13.69098206202149 11.955086141309398 8.762700842219678
Bi 11.728616903774588 10.477605815213064 10.656259101286066
Bi 16.94417594061343 11.342602061445236 16.112184223624578
Bi 13.71911175834575 14.111577073986632 10.911953475679779
Bi 19.80974875202244 13.896201981289638 13.755164529627663
Bi 13.909782144052963 12.159901865491843 15.034446210548943
Bi 16.95760702918982 14.362264908724892 12.688678108172939
Bi 11.238224557124626 14.62123091870413 9.17176851625023
Bi 8.737321748208785 11.308215069102904 10.310463442427194
Bi 8.875500016137725 10.353016243837763 13.220828237578445
Bi 15.07554881005547 16.471695085327806 9.444530650974848
Bi 13.116854494809388 10.723361159908443 17.592645233349838
Bi 18.27835553915814 16.823921749638295 11.422100185642744
Bi 12.88448598091328 16.452645557066155 7.325599315410725
Bi 6.976488097802414 12.685360814537407 13.887062113106024
Bi 8.66282741437478 14.056509885315807 11.688258694652436
Bi 11.134189131657708 12.468220962642558 13.01141828274622
Bi 15.426969331278846 16.958245440975563 14.949135152647479
Bi 12.930671015022641 18.66308301869551 9.453213491296268
Bi 14.55783423076403 12.096240214393866 19.919170414816325
Bi 19.46061582172243 17.999662833956645 14.01667666161614
Bi 18.22260974313082 16.109000676478015 16.088719643784746
Bi 11.96569671371492 16.435631052681146 13.093966333945415
Bi 12.992732511962405 19.321599022757407 12.998728298491297
Bi 16.71906696570239 18.91872828799063 12.990707815426866
Bi 9.798680166472696 12.14227835253499 17.993940800942923
Bi 10.451997125021686 17.22649073250039 10.597889212223812
Bi 11.602884735023656 14.623246816283801 18.044770620154207
Bi 9.158794095464911 13.957975731584476 15.606464530041599
Bi 16.636012658109937 18.434964521251896 17.291850464753487
Bi 10.490594750896973 20.40421891094843 14.41076839243875
Bi 12.473968278085986 14.053124787890981 20.95284105538529
Bi 12.781190652158479 19.457956565015543 16.105596794747527
Bi 16.296987603544135 14.413651420625685 18.95435199585512
Bi 10.45166019812663 17.549345386497837 15.558019590801367
Bi 8.588140405017763 14.857887552707142 18.493690390926883
Bi 14.36320447999284 16.726366431649026 18.46679188602191
Bi 14.955399966873562 15.883503503584997 21.300749820191754
