42
Energy = -141.23720227 eV
Bi 12.438153530313572 0.3230137601898909 17.057782595009957
Bi 12.406633214666265 0.30097656785859184 20.121834022376294
Bi 15.631936476501966 1.3066041180163281 4.663756906812741
Bi 18.502409316393315 0.9436043096765849 5.1275483596762665
Bi 0.838767937387356 1.1397024262716784 4.428358536425813
Bi 3.0175642012009867 0.6414124508907139 2.446162264713045
Bi 3.9640130729162606 0.8132415817337086 20.11101049741152
Bi 3.9450890896298443 0.8505142818851195 17.06867057465682
Bi 0.8870954540680789 1.2040026262099401 12.198713565016686
Bi 18.558732544797344 0.9921045322406341 11.495237619186131
Bi 13.984155581696768 0.7587621909713647 14.404742865077102
Bi 9.735091686488754 19.509752600920454 18.59740479839374
Bi 16.86010359120311 18.5364457600789 5.0270049050979555
Bi 20.34029760359992 18.618387672996292 4.992544592695228
Bi 2.693560625211538 18.415655839168938 3.7616636330254094
Bi 5.428153365311465 18.893139514948505 0.5114099085120885
Bi 6.90739936542419 17.672486332889097 18.58483413541596
Bi 5.447206666870932 18.94892861478966 16.154635640572266
Bi 20.32213534260659 18.645793173730507 11.615486146815138
Bi 16.841941330209487 18.563851260813117 11.649946459218004
Bi 11.214337686601622 18.28909941886119 16.131081143400998
Bi 15.674538974996885 1.282755671306018 11.964865197421513
Bi 13.948930426701258 18.766583094640616 12.880827418887673
Bi 13.617858256533822 16.021419282256435 2.458173896929891
Bi 13.624926850711805 16.001078601022378 14.196328787200047
Bi 15.755395597845004 15.438488425702863 4.4437774868962485
Bi 14.01254272331228 18.802491684359723 3.7526344048806166
Bi 18.623506389012356 15.650386519672452 5.1472534327268145
Bi 0.9679520769159138 15.359735380607068 4.677625854491427
Bi 18.67982961741609 15.69888674223651 11.514942692236668
Bi 15.80372311452544 15.502788625641262 12.214132515487126
Bi 4.235857837246687 16.3415144840542 17.06040491143326
Bi 2.6583354702161692 15.883728860941726 2.2377481868356974
Bi 12.678477978996826 15.829249470179231 17.07122843639803
Bi 1.0105545754109835 15.335886933896763 11.978734145100203
Bi 4.204337521599228 16.319477291723054 20.124456338799742
Bi 12.697401962283104 15.791976770027965 20.11356835915288
Bi 11.195284385041855 18.23331031901989 0.4878554113408175
Bi 14.053249680625905 0.7671993982814462 2.178312405208028
Bi 2.589241371286902 15.87529165363164 14.464178646705061
Bi 2.6299483286006593 18.379747249449682 12.889856647032476
Bi 3.0246327953792664 0.6210717696563658 14.184317154982898
