45
Energy = -163.92006139 eV
Bi 8.640217413434948 13.663371543836728 9.688920515971457
Bi 8.604610499141463 13.39363066528796 12.753904420566975
Bi 11.017313750836887 11.591220948655266 9.266361235189445
Bi 10.33556751109677 10.735033333283292 13.75810549292609
Bi 7.519440508727609 16.716974607427762 10.629097500010278
Bi 10.780518986005259 9.27558209996987 11.165346928539538
Bi 11.12134582165226 15.367502461615766 9.136179635174175
Bi 7.42972300009367 16.247782786165686 13.55237487481898
Bi 10.183444800970001 14.98854453419027 17.002735127945076
Bi 13.738134393833862 9.418019431936163 10.399041265339712
Bi 11.559569295752514 13.53257978191042 13.544111157792418
Bi 10.438171421170704 16.926962993928125 13.65219544645163
Bi 13.730478069055088 12.352871167647496 16.6746954421691
Bi 9.661285871687829 17.957462283085516 17.515960386106705
Bi 10.370095538346773 17.84712392817236 10.728001687337471
Bi 13.275251736364018 9.268214159162845 14.287929036587359
Bi 12.888117864223517 13.461980961503839 10.806901185796907
Bi 10.029040550216282 16.00242765284465 19.804513184552988
Bi 13.172211842439875 12.738772429738754 19.653970154665174
Bi 13.20897197941691 16.01380617831076 16.19111760432273
Bi 15.477489645843878 6.908736507783372 10.976142851328687
Bi 14.604661293488707 9.454564553979266 17.001445397674384
Bi 15.230262740662498 6.869075890259906 13.97232243749215
Bi 19.404398335054516 8.643484429127799 12.839707976926377
Bi 15.241352772200296 11.140268005563346 12.475640500003895
Bi 11.28620188600057 19.834090921905663 14.321936143155918
Bi 16.287320443290586 14.756764265969549 13.652958121788412
Bi 16.227995764040426 12.93563607269672 20.083006010991983
Bi 12.55652083335157 18.912258411413692 16.97339990425103
Bi 16.682895977802566 13.06597529235204 17.016940976042914
Bi 16.022792302840372 15.59202104601989 10.70273999223214
Bi 17.394375447088184 9.288622086830117 10.773365737629849
Bi 13.114573771627116 15.764028314518647 19.308215302800505
Bi 16.32796287017334 16.1261917612154 17.167888199788358
Bi 18.504382093389875 12.770723256832206 10.863969781609134
Bi 13.738287041972894 16.877399025200088 12.376362244454132
Bi 16.76655347967876 9.398494363165257 14.620747852137988
Bi 15.24425896454731 18.51107504567336 14.54996694110291
Bi 19.305146372897156 13.487389780511004 13.721213163071905
Bi 16.187294479986367 15.986621710115362 20.175140930323092
Bi 18.03302741391918 17.248669661729352 14.047163710020419
Bi 20.806735216628397 11.20865939953427 12.119979667843731
Bi 18.46545375558698 17.40579440673786 11.040607120587143
Bi 20.436949452449017 15.07423129818887 11.361201565652197
Bi 13.667478610563828 19.957242363553387 12.36435700837597
