40
Energy = -145.37377595 eV
Bi 18.177513259087007 11.651595580641466 7.725798165986802
Bi 17.898576472783642 13.225905440843064 10.34346556604048
Bi 18.717164727463626 16.017512233660618 13.61912377048462
Bi 18.990588833665516 15.207819102674607 16.546465274160898
Bi 15.298146667283968 13.506574171731064 8.624750907095086
Bi 17.209152489135942 9.104525326279363 9.01155293320075
Bi 13.748778914172783 14.446218120294649 11.611132531909014
Bi 16.775992962733014 10.701624127057162 11.574307489073757
Bi 12.393417675088394 15.68172641476188 9.09587329182161
Bi 16.084624351186623 16.993816131618374 14.903548588937358
Bi 13.422798187026478 16.997385169669798 13.298452721157048
Bi 15.224804326965447 10.664174382489032 7.151830863388585
Bi 19.0665704275915 13.129464102884715 14.364367882305801
Bi 13.931092547499652 11.169012949015228 9.904149924197915
Bi 9.809866215902431 18.542663350392566 12.42105119114438
Bi 15.86264463081187 14.62449485875217 16.72199784402899
Bi 11.706283644155562 12.854410942772049 8.0415207654989
Bi 15.3427789602362 7.02077065846956 11.659444449814073
Bi 15.994568311802096 12.58059066512547 14.406629581171616
Bi 12.562521657209587 15.813881386826049 15.961503110085777
Bi 9.613610213963723 16.328649208352807 14.505598015739603
Bi 13.565657104031164 6.113534869591527 13.95894935613067
Bi 9.597099525209376 16.249753428364418 10.37921343787592
Bi 15.807977304652328 10.267597035719733 16.45851798932079
Bi 7.184999515248253 17.331422005957986 16.112404038120857
Bi 9.266047908031647 12.575383803724131 9.886331970560342
Bi 10.719855897446873 13.978742712970828 12.188398053234803
Bi 11.675859708465696 10.279307754853697 12.628347536120957
Bi 12.838564377669625 10.883160490012393 17.11733195825076
Bi 14.548533154482406 8.998139735841322 13.940086753159836
Bi 12.336770837293614 7.365837925475072 11.49264712520361
Bi 6.767374629520851 18.13722607548511 13.153292595517048
Bi 6.417812462593163 14.388686617984558 15.611493908594797
Bi 11.179792089333642 8.93142408334048 15.323984566732333
Bi 7.43200663248301 11.227530614818827 13.529041305173562
Bi 12.737132617568506 13.00492142475872 14.9134216587322
Bi 8.983571102357889 9.84722797286406 11.286950922387536
Bi 7.197947557108783 15.103560244577581 12.75129347146442
Bi 8.436173944596641 10.080924450977957 16.1778592987029
Bi 9.239568989354868 12.894329678514953 15.387178526142625
