40
Energy = -143.3309976 eV
Bi 18.121225481818374 10.69578856945439 13.201697285884741
Bi 13.157707744529464 13.136572419506097 6.28048978754605
Bi 18.331220367107832 12.528211088696033 10.742599928637508
Bi 8.760878220605555 14.853317247233706 16.486035624120305
Bi 9.39651893495522 9.149686247369749 16.52726833110718
Bi 14.714787307617863 9.45287107554961 14.829232913381738
Bi 12.081226192096253 19.635249956169606 11.76548196556943
Bi 15.391337191544999 16.49515090991558 16.92700428504904
Bi 18.060909689976945 17.61277693543425 17.88669721535714
Bi 14.956306931914268 19.75630124201493 12.76075060832289
Bi 17.561612983364057 17.20873075264064 14.923430633774005
Bi 10.993956307992578 8.829457464381935 10.039041509331222
Bi 9.829125868340185 11.56102307586245 10.548344871540637
Bi 9.722593882006784 14.703914603384533 12.725326864880481
Bi 9.107467511591995 11.673005645380558 18.199944643198254
Bi 17.661046107398107 13.367981887339223 15.724262493465766
Bi 12.709568158600675 18.439262995340982 14.452826223681145
Bi 9.479326419540994 12.045726665300531 15.11807736917825
Bi 10.570043785078699 15.444686945473302 9.896442309782877
Bi 16.178289945657998 10.410374322499907 10.815247428928016
Bi 16.005820696188387 12.678285699392642 7.220632585584043
Bi 13.798282285176152 10.780927657172777 8.075064719447138
Bi 11.498526575857502 15.170166134015902 15.29763411716147
Bi 15.364981993246221 11.995740516263062 13.265896370822178
Bi 12.142139858176602 10.524722631353058 12.276312211991975
Bi 12.871449512673825 17.37921897958697 9.758257875399554
Bi 13.056007958412088 13.589757294546278 9.289794476590263
Bi 9.335137564713513 9.357179746171353 12.584699949690965
Bi 12.086986923359467 10.63461473798937 16.21062544289824
Bi 12.865912968789585 14.382031405666112 18.675673515335053
Bi 17.896444572731838 13.96111089016449 18.725869631527498
Bi 14.408291337085062 16.768623784241456 12.404367306474404
Bi 15.645600491929624 15.374428487336202 8.851844809991409
Bi 15.923430114471094 11.259127640472387 17.082909277658473
Bi 9.26047266170423 17.135376619970703 14.422160368106264
Bi 17.173107245574275 15.255874440378744 11.419988518948669
Bi 11.999953614411714 11.515506547089288 19.17918004734075
Bi 18.91639029801118 11.264522099959555 17.588766123369656
Bi 16.089176765006197 19.407296235685116 16.39522625444026
Bi 15.176646799891982 12.86530767274626 19.724803373634785
