47
Energy = -170.72552956 eV
Bi 18.61458255519475 19.88026749152921 15.393191546585406
Bi 16.760130314640474 16.51397479698412 19.490273086823272
Bi 15.061530658585195 18.80487904838774 16.906475741744945
Bi 18.65856239955441 16.946099418257788 16.277687110589667
Bi 15.236788316910891 14.65111567468479 21.308209504156974
Bi 17.501226645991995 13.55043614013148 19.646985469224685
Bi 14.011229462471674 15.19103300946514 18.555303052877477
Bi 19.307584085160574 17.709500319021373 13.373655825498076
Bi 15.774028438810697 20.12519492244372 14.243976609181292
Bi 12.005394686595832 18.341828030514005 16.815712608041704
Bi 15.790285493697775 16.217963034034998 15.474432774873321
Bi 15.825175208180466 13.086020379897844 17.078334540586813
Bi 11.341430220379602 20.142967723558606 14.427431065195911
Bi 12.130987229480223 16.27788024936372 14.535091896132649
Bi 14.966337551183186 10.250841992741607 17.83519352663374
Bi 18.727110057744177 11.223541461846391 14.35174922224491
Bi 11.936668466494664 12.364039413358375 18.28499534762477
Bi 18.007854579376417 14.085661950802717 13.431750128553066
Bi 10.104541607004093 14.891278007003084 17.88727708469639
Bi 16.294330540833258 17.516077515785845 12.67997902577706
Bi 16.698739518535056 9.21134821902404 15.528432006744415
Bi 12.790113996794078 18.410646700864458 12.352082435526693
Bi 9.90841199402523 17.76562365173337 13.068178096432758
Bi 9.527547603344289 13.50934892879555 15.227530143347884
Bi 15.354416460631162 12.616108655231164 13.143890460781837
Bi 8.897897878904132 12.115281141363022 17.871728548817163
Bi 17.66505259050529 14.639665240947913 8.950085609929618
Bi 12.506281995594156 12.592094583540646 15.303868734373296
Bi 15.248795714801608 16.38762978706666 9.426728665260143
Bi 17.768614920647792 11.725344878423064 11.493549855344508
Bi 10.113081739042983 15.475302041508314 8.656689083698868
Bi 12.749939944616816 9.553412709192195 15.674947930183952
Bi 13.604774808556549 14.50249863656466 11.282527694922235
Bi 10.349712886718335 14.569030306842187 11.568540227283622
Bi 10.643367448884863 6.691032768349482 14.524283551052408
Bi 11.55078073494687 10.763225416375723 12.113353012462753
Bi 9.540659640613642 9.514101410973792 14.120194933746156
Bi 15.686772714783782 15.095053238626921 6.6724894201996365
Bi 11.988989304288 13.572155378495248 7.21800421982924
Bi 16.014899535297676 12.327685510771971 7.883965303785847
Bi 14.590471583956127 9.178334810428531 13.26533974640196
Bi 9.139105521621147 12.692805951075304 7.848429769937923
Bi 13.100447929625247 6.516083843921594 12.71903169820549
Bi 9.004766402644016 11.919013646829749 10.820716303481221
Bi 9.10097297926223 7.364528683597249 11.977619955824407
Bi 13.398638052903342 12.119177484895083 9.448161148228053
Bi 11.697569678896516 8.099467893482322 10.538528375887864
