41
Energy = -148.93113402 eV
Bi 19.481828323931055 7.2247125274180615 12.682592770387844
Bi 18.290875324156985 16.591845118383965 11.182594518340666
Bi 18.097448741253494 9.239712614281046 14.518788366638505
Bi 16.7807842704591 14.18179515886577 10.143275166762827
Bi 19.483176359813463 11.396307725788937 16.358776836170865
Bi 16.847002108403323 6.355118350823217 13.936850473079533
Bi 16.847656893886775 7.823199835829204 11.359772532460683
Bi 17.982085355802965 13.083401321996316 14.397156356979037
Bi 12.674703418202476 9.7023375905048 11.83190806532186
Bi 14.383436584099796 14.298224384393617 12.165899687272876
Bi 13.574733863006482 7.873924819319791 14.165181327560461
Bi 14.919936194860584 9.459498193611921 16.46208110354875
Bi 17.250688762609386 19.344540836198824 15.168631133480481
Bi 16.46113910173555 16.714120444754048 13.72894887111401
Bi 12.135363281882443 13.328485676152898 10.402332854253409
Bi 16.49059604181184 15.7543932754816 17.051615347539894
Bi 16.321839138995593 16.94580199073148 8.94417343925327
Bi 16.903517175214713 10.993569117359078 12.199432045386528
Bi 16.248550982333693 18.629406466026225 18.008540853594987
Bi 14.296557774889441 11.510845018502883 13.65083034298094
Bi 13.76744747381084 17.50459688047226 10.5976837656517
Bi 11.039416530092002 8.664239503693612 15.817735229705935
Bi 9.968063229945455 9.897971209539289 13.236261191255535
Bi 16.593644572142885 12.099323867901472 16.916579270537028
Bi 12.17430472807582 15.851184492310992 8.60733417419789
Bi 14.346503929669172 14.253626418681653 18.751547907722262
Bi 12.699941038021851 13.540715296876952 16.084506574331115
Bi 11.915160420731658 16.623634074211715 13.298237647376038
Bi 13.863370377045552 17.44328114032262 16.572128948297692
Bi 11.809804591411485 19.772100810079603 9.757534132676021
Bi 10.240502303455635 17.498347468242866 15.798147183998035
Bi 14.583606700848405 19.08790134047565 13.740419571072696
Bi 12.366508966104975 10.846747250240723 17.53551423240741
Bi 9.819264975616566 14.881290129742737 11.823092151056533
Bi 12.634894410800102 16.63009203254484 19.345626746031737
Bi 9.713561694240516 17.611618214901252 9.27442387093475
Bi 10.096055947161444 12.819676790332034 14.122124627793067
Bi 10.468066905460189 15.03310425556619 17.61671278446479
Bi 10.10277692106033 18.843489952731986 12.056054577638255
Bi 7.929393718749852 16.302411154108505 14.262038135900408
Bi 7.876801709603266 13.824418091995538 15.907926026220345
