40
Energy = -145.37767276 eV
Bi 20.35886360120299 13.62343323083214 13.423841033643262
Bi 18.247096477199086 13.672875304797593 15.900065107104906
Bi 19.18909866821619 10.960661961106359 12.544371356922843
Bi 18.305550103035706 16.05548628132386 13.777108053668314
Bi 17.217652209011582 16.470554172290942 16.56769197913471
Bi 18.527489785937753 13.392167160589912 10.869332500128069
Bi 17.26795283581169 10.094139252330674 14.754739669227618
Bi 15.95653033210049 8.335531068076442 12.635648721173407
Bi 16.035610778344793 14.834605387257634 12.048493254373442
Bi 14.412264577213772 15.917280809493462 15.32554133769924
Bi 15.47573970689887 10.557105930668182 10.633511072339239
Bi 12.467221569352738 10.9877815678732 14.764084898230292
Bi 15.330758630244695 17.37028514169079 10.460160649867984
Bi 13.6124427083455 18.167032529176538 17.27767237449444
Bi 14.589845846608753 13.554539113030359 8.845106476922979
Bi 13.810597885412395 18.14512563111823 12.992153432415993
Bi 13.159730803827992 8.132179789258165 13.864205779907289
Bi 15.431264624408792 12.110581708080458 17.82601333694524
Bi 15.384574581959289 12.464966767893124 14.754311428311839
Bi 11.726026557780278 9.40641871469317 11.499708306561983
Bi 12.56678793948853 10.991485808236206 17.8055024192951
Bi 9.527699817702965 7.477476727622647 12.748718271608782
Bi 13.321912913950932 12.764283926160795 11.564285538948804
Bi 11.274988704273182 14.425523850261955 14.712277099498936
Bi 14.047902867425535 14.79636427028119 18.31935583988942
Bi 12.95599232774174 16.160042577661088 8.765260106319118
Bi 13.533562011183749 8.965849064573092 8.960666746613883
Bi 11.952699170549565 16.09528250962215 11.783348390434199
Bi 12.658550138931608 11.536920309722177 7.486061756724998
Bi 11.524088598760013 19.570164773355902 15.522137689321413
Bi 6.948082442924707 9.126890598790949 12.950090574680031
Bi 9.170336141767434 9.445694463723937 15.011815417260923
Bi 8.30675578013986 14.048732248082446 13.744210659592396
Bi 10.653959938173786 17.867488685032004 17.90828356836901
Bi 9.004079016904258 11.312774227358693 12.531271488614212
Bi 11.254005199846588 13.805858191091595 17.787110402434074
Bi 8.800284229797153 16.06122642179038 11.471760053622008
Bi 10.72548628680899 12.283351133343018 9.750861224862405
Bi 9.790136737238527 17.09384754889484 15.074706781508265
Bi 9.867777874722346 15.001964267455678 8.857373539290377
