46
Energy = -167.61080504 eV
Bi 7.090247140650479 12.190855032295769 10.752807760890803
Bi 12.828310373779406 11.893168730344225 5.331006696661221
Bi 12.12107500934313 9.33388859803773 6.840132211349156
Bi 8.712040972424019 11.1182574886151 8.386910120025044
Bi 6.671648196915763 11.248995259603307 14.604824553865576
Bi 7.568016458629515 9.18252232228807 10.420467899404587
Bi 8.056308225075313 15.196301839617874 14.521625261532527
Bi 11.983707237337427 13.509263556994128 7.973841223832656
Bi 10.195791634737297 15.080645224108903 10.08589805079181
Bi 9.815044606708334 9.361028863983675 12.536768011867222
Bi 15.140470457534203 9.338418406252526 7.301456518779305
Bi 15.42249045872396 12.319699867035736 6.786565833924464
Bi 9.04185563171278 12.629281074088974 13.112400974127286
Bi 15.830249576667525 8.690593299014683 10.226414361257374
Bi 12.778174238248706 16.64118219955878 10.53274386543912
Bi 11.539396884220567 10.888191556587955 9.431618100930582
Bi 7.916366256715073 9.62471927232503 16.861502417252364
Bi 9.353466576148373 13.869085982032828 17.133034703887844
Bi 7.410745052294386 8.330812556438621 14.153505604382143
Bi 10.551733182673994 16.66975831305155 13.743820022278124
Bi 12.455676765307883 13.878646777965148 11.752165621835424
Bi 14.584420445124533 14.25066858684468 9.421651571407251
Bi 15.71572836059381 18.728842701574447 12.264246862714549
Bi 12.138512439613608 7.347766197078217 12.850327014110139
Bi 10.641749171490797 10.431784340499494 15.858441685998473
Bi 10.492106246498903 18.46534346190708 16.179277841352967
Bi 18.735393399711107 18.383394151369362 12.370006929737466
Bi 17.065053424613655 11.486602313558047 10.204946517110956
Bi 11.884931107985407 14.227784384715362 15.350598934944118
Bi 13.85956867255487 9.810295622585269 12.252643623045998
Bi 14.529306422889693 16.521695376120267 14.038395050374676
Bi 12.05774444189882 7.7201512027849315 15.906723011419059
Bi 10.441273082169197 16.41503797355744 18.460407417688234
Bi 18.45773994487649 14.393591205623073 11.840143185270373
Bi 15.830970689219418 12.9887200500216 12.641690911920547
Bi 13.58783750384329 18.343866399890594 16.323950267322104
Bi 11.790721240477918 11.906697395397781 18.279988417890376
Bi 17.25801942376031 19.613628703654893 14.74923350255285
Bi 14.643629134902227 9.167810419325116 16.579004452732743
Bi 14.202184639599945 12.229080557861193 16.550601682414733
Bi 16.114611354410673 8.670316606686615 13.975601864460176
Bi 13.318351861453067 15.630302575446994 17.720261849171184
Bi 19.264787692641374 16.054663874398344 14.2434159282619
Bi 19.406415343532256 11.46920705893256 12.209899973410483
Bi 16.87728053609684 16.832856931738608 16.008046075452793
Bi 17.497434410237215 11.305043606030946 14.61495154158751
