46
Energy = -167.54187064 eV
Bi 9.948574646860651 17.658745366146153 14.228718778940188
Bi 7.914418555807588 14.861227459229617 13.46041028822178
Bi 13.606537477713227 12.787665412707094 9.072130656398029
Bi 13.475815876727065 16.165776217710757 15.821400460429919
Bi 10.323662714083163 14.33460992269243 16.63783532260988
Bi 18.802684965971636 11.226934664492203 12.314407947619225
Bi 12.909482866568325 18.407040934519948 10.91733878991631
Bi 12.242512859316802 9.743405155094683 8.259544134870962
Bi 15.58429719980405 14.555655115836041 17.485640386952557
Bi 12.582906779821043 12.03159795084209 6.282872377754372
Bi 9.941588996102253 10.95876299315975 13.486619109260584
Bi 18.338482531681063 12.324027066526686 15.162574779841076
Bi 14.816270589487857 13.854116923530702 12.45897581324144
Bi 15.22511295612069 18.17488513552491 14.288423967832808
Bi 9.904891278813682 8.473761677128337 11.633598823501437
Bi 12.717970531116896 9.675713055495034 11.661739773648971
Bi 14.92334465012613 10.41698941067372 5.0974486092933775
Bi 9.260967858957743 17.0894743092118 17.142465540725457
Bi 7.134209662119061 13.453765458854495 10.83375897228572
Bi 9.985775749505132 12.536731625495236 10.333349354790336
Bi 14.99368607466541 7.691486606116376 11.061223536124503
Bi 16.120868191817813 8.107413874715306 8.294482593040751
Bi 11.779409768572139 10.798368866911066 17.831719047530278
Bi 15.577169785901205 17.556160140092167 17.634483914523468
Bi 9.225608310417497 9.893228509189353 8.944490231868842
Bi 11.194763701176633 14.653456995870465 8.467274490917593
Bi 15.428641162420314 16.705156929365305 11.459159651812744
Bi 13.795657324813135 7.833962955778406 6.365871757828699
Bi 17.562803721345205 13.78946986216657 11.104246224179679
Bi 12.196334521632645 17.613874701665434 18.269371452135342
Bi 15.89392617741268 8.369086561613361 14.924104100149831
Bi 12.434198270800547 19.447811683003707 13.77040405771067
Bi 17.131506909658842 10.818696256882173 7.20330000523513
Bi 16.4274528539835 13.559529258513802 8.205154651446877
Bi 10.593996599361576 13.184768769329109 19.38956502898109
Bi 10.950318167064728 14.94763928862575 13.110527904654392
Bi 10.417729548009653 16.67038880298548 10.641710862590312
Bi 13.044089920123854 15.030933888672033 19.559899438155867
Bi 13.367581310775012 11.862486952075571 15.414941639876552
Bi 12.854198168027374 8.904442681275862 14.716852450738555
Bi 9.105402139677038 10.224529733573597 16.381439693586128
Bi 16.818435662437164 14.90103985770718 14.499808057061792
Bi 15.984461177777884 10.210364061162437 12.543760080058227
Bi 16.029695592659543 10.900314128457056 16.64735022478119
Bi 7.645970679359513 12.93796345462817 16.24556416381608
Bi 6.998627711842337 11.656836880699634 13.293513562710407
