49
Energy = -178.77728193 eV
Bi 12.50851623388723 16.421245320532716 21.167871789825742
Bi 13.052938487796801 14.266886682235452 19.090496864600162
Bi 17.103868276129916 13.831531830836658 18.972110907430846
Bi 10.428204166498178 15.860822007346504 19.030197329122984
Bi 21.095731751066936 15.150531541922085 18.108434702907836
Bi 14.774221548830644 16.777997398469527 19.142034651115697
Bi 18.335357817505614 16.48693394654989 18.04250402135514
Bi 13.768464318331603 18.335562266825598 16.717385467323506
Bi 16.87212240434562 10.23201385097078 17.848262565680884
Bi 13.867404479301573 10.780350695004541 17.80689224242831
Bi 10.158076439574925 12.630451120956467 16.998296990026414
Bi 9.047471369562633 16.8120790128082 15.190227801644403
Bi 10.774455463264367 18.28012305985739 17.255234119466518
Bi 19.787635170219826 12.41757146181207 18.512896233899205
Bi 10.80707632667364 14.416393426956255 14.55819751736457
Bi 15.783821326960057 12.678071006973394 16.37067456528137
Bi 10.306275221806663 10.020820466719277 15.389960607312076
Bi 13.84811048861741 9.130095590648928 15.178508599899564
Bi 20.478226041334427 13.2906242793275 15.65928824596228
Bi 7.680885489755147 11.580490238079095 15.569171712840573
Bi 18.14229971986677 15.229812510761649 15.240376964004744
Bi 12.251623373911677 18.228294827882916 13.414892878445412
Bi 14.184300323530945 16.142281395242634 14.642489573096777
Bi 16.681987793611913 8.076530504259498 15.629705846878164
Bi 16.219908053150423 10.33999714625058 13.687698731760179
Bi 20.02049493988761 16.007391379222085 12.920438454336047
Bi 16.526573337381077 13.896557900814495 12.249740992423265
Bi 16.0091102424884 18.28425303680477 13.439450741965498
Bi 8.76542478184374 10.876721239996648 11.915717561586058
Bi 10.823641515772978 19.49732451837018 10.085767408114712
Bi 9.713741060947644 17.30911898207738 12.046207554069232
Bi 17.44195014342991 16.64782679807457 11.305780879705551
Bi 13.8515086790479 15.592005598111543 10.580378447827268
Bi 8.1234834261704 13.566316422961712 13.260226473053034
Bi 11.600244312647165 11.183775095300605 12.832705570149281
Bi 12.112730831914059 8.345895787597657 11.815940551557556
Bi 19.473154296368637 13.070047169403173 12.45790270222677
Bi 15.135652581928916 8.629928058659221 11.326284585369114
Bi 13.882177362362969 18.68627891540922 10.9284277228838
Bi 14.264618348351815 11.310747667031961 10.243403861089426
Bi 9.101293866732556 10.878879735868237 8.827760747001948
Bi 11.452022513800106 16.985134603646916 8.727833849043465
Bi 10.945245513985581 14.600193149594059 10.845840236332517
Bi 14.897280500735997 14.694465768640905 7.852032633877106
Bi 11.254283359820608 8.733694049850314 8.8331954725483
Bi 16.771959387090114 12.766019128631777 9.364700438670713
Bi 10.223013201440207 13.546774800747725 8.00757224185583
Bi 13.669307509599129 10.09081254822504 7.5858600662568705
Bi 12.787901593730759 12.830230447274554 6.593068979028636
