46
Energy = -185.24033345 eV
Bi 10.212660890119109 7.312078888003812 17.47883066498767
Bi 9.941837242003576 7.480333455393246 14.942869718579695
Bi 11.914219341945678 9.548262521362188 14.336837275487845
Bi 8.24088403741916 8.810201676651147 16.761601424829784
Bi 10.99703454388735 9.68222606968921 16.770882944750316
Bi 12.483032874901404 7.381998142222367 13.053046855959783
Bi 9.013648202343948 11.282390202280082 16.934258417646653
Bi 10.220878292994302 6.228865895181058 12.757885447590036
Bi 15.35132683078507 9.612719073296065 12.266308817762834
Bi 9.073230249939716 9.967617138686872 14.513021501417798
Bi 13.800177996938372 15.320722724162568 15.48573354181493
Bi 16.279236077250296 11.62167562233477 14.24860851315726
Bi 15.784569104012569 10.717102074628706 9.7978358700416
Bi 10.634793927413146 8.179197256784924 11.083723897317798
Bi 10.277430375819222 13.385142914157294 13.997813260705081
Bi 13.620868957171483 11.276681489958541 13.559254458424565
Bi 8.052604708115389 13.235045220212768 15.554124088740434
Bi 17.286831538324005 11.694071464274902 11.847485910692448
Bi 13.402524212830619 10.790463587274257 10.94610886626679
Bi 11.928230008590635 16.290419980259976 16.9228587859164
Bi 13.223577547678723 8.146411073546643 10.703982501441104
Bi 13.118143051489422 13.714401223725217 13.664052261388143
Bi 18.61173379180455 14.005477428601091 11.9221513810586
Bi 17.48978209471198 14.080114120204362 14.339841100620909
Bi 15.722180680246414 13.313582510607455 10.072689478237157
Bi 7.799156571166967 13.688313969981328 12.948158532032954
Bi 16.251634516333933 16.122393446307427 15.576397314680419
Bi 10.456651786534803 10.372884638731513 12.388423878891132
Bi 8.735604976249068 15.980264701668057 13.739509924838533
Bi 15.407256726960743 13.619659365595865 12.567388263343629
Bi 11.91520902975833 12.563959786021833 9.75897480843691
Bi 19.963355420493063 15.263304841265308 10.281996693182935
Bi 9.905885430211244 15.128747907663616 15.812111383623442
Bi 18.217218762741776 17.000995999144777 11.15467701185299
Bi 12.121793976671647 17.476358621634688 14.655421311863746
Bi 17.57289815704947 14.990882954165633 9.287652465512828
Bi 16.372916326344885 16.042590305337836 12.662386871673595
Bi 14.924178321638204 17.691922214126993 14.138126796935321
Bi 9.823958285630676 12.676119917240452 11.484720655002354
Bi 12.070064201219942 14.51300087625754 11.55488150599443
Bi 13.576916698485093 14.633834920820574 9.35109888624381
Bi 10.876639789585756 16.55346441004162 12.514136824234491
Bi 16.487444438496297 17.34069513709719 9.28571587034969
Bi 12.778753032869885 18.05778914046053 11.904954551369087
Bi 13.359989327362554 19.63387030540276 13.867017849046002
Bi 14.52979510771485 16.571280982166883 10.794691877380941
