47
Energy = -171.24263331 eV
Bi 12.253828126660197 19.000869674798533 16.11020732776349
Bi 15.267215743776218 11.04678103891397 13.540874339194561
Bi 13.496549447844634 12.840876966388349 18.68419795556006
Bi 11.634862468535855 17.521461681707294 9.830424868261835
Bi 10.741977181975017 10.690576988273058 9.849360244661808
Bi 16.07197648535016 18.51970535177941 17.83712433658391
Bi 16.603281615039638 11.288412170907577 10.103806995013043
Bi 17.540828916389525 13.773313682472105 16.166078017201635
Bi 14.024366905013382 18.501767989044932 11.457180534143152
Bi 16.56555739574668 8.303964719843538 12.7641803940696
Bi 15.607427777855928 14.719904994357366 13.971097295263398
Bi 12.517794187829217 15.952768236516352 12.289678092400381
Bi 8.078587453283543 11.100472288557402 15.431991563094476
Bi 11.081750241713442 13.830427816855305 7.417597618362008
Bi 8.976991901753 8.871768337360093 12.676962836316521
Bi 14.160503690562972 13.092686073349387 10.753088037046147
Bi 10.088907052387956 14.633650212044751 16.951255912878924
Bi 13.003026518735567 7.951103908117356 11.88085230244297
Bi 10.920766721662828 10.57623992126278 16.303295977514182
Bi 16.379284172426992 13.768332049352082 18.9938726906348
Bi 16.18977995566713 17.70136118196778 9.509923806482972
Bi 13.024228853024907 16.17806979894591 7.485278859764776
Bi 11.503066631296191 10.45467796681576 13.228038501882912
Bi 10.482163403751846 7.684737120874422 10.159360929824667
Bi 10.897745082083283 18.278188258913957 13.469397205183052
Bi 9.983796169904307 13.33989406124414 12.349142891784437
Bi 15.510127665289453 14.86483998726346 8.670013330294015
Bi 13.880103266884785 16.569445436318805 16.960513832880853
Bi 7.607714797614171 11.48186027437664 11.798546359490413
Bi 14.08605859813737 8.988756666181974 15.907965066545874
Bi 19.050362656865076 16.277349425138738 15.256016813603955
Bi 18.421122465477133 14.714196154028768 12.662291564898684
Bi 9.031021364486989 14.48870719709632 9.48504966164846
Bi 16.88109220575662 10.41167254874816 16.422945331399763
Bi 13.773905712625709 17.884675266837185 19.699866224596114
Bi 16.706462804474153 7.422631987317635 15.763592388581046
Bi 8.117759132009633 14.036529470893383 14.725803443900954
Bi 14.682541448446129 8.930614449623862 9.573274953781933
Bi 16.469589501187848 16.581550080260534 20.154454347694735
Bi 12.501527863881678 13.170708652982364 15.783443222300392
Bi 16.494492968700808 17.692724823697127 14.253685926951755
Bi 14.813334617337077 10.057430312048824 18.663412098378608
Bi 13.262930830442606 11.568875963010198 8.237113164057074
Bi 9.599636263102468 17.53126696295491 16.110469859025056
Bi 18.184502773039526 10.916306565427918 12.741349066327588
Bi 18.285054171043253 17.629822147681338 11.725883895206236
Bi 8.079998259229626 11.693626603751623 8.7256433814095
