40
Energy = -145.7769723 eV
Bi 19.449092440938045 12.293929216274469 8.793889258740117
Bi 16.536192555429476 7.891649661084706 10.592233484161673
Bi 18.416094824123466 14.476600019668366 11.745712535270163
Bi 19.910502814949414 11.697436244101873 11.656227863276536
Bi 15.164806298876956 6.603028575578024 13.008922883688104
Bi 12.421923242540881 7.715817184000126 12.104006475593048
Bi 17.07650386756384 14.534162574175918 8.993126725149398
Bi 17.059032607368696 10.131369361497338 16.19314842031874
Bi 16.48723852155918 11.534592569409678 8.908611824087247
Bi 17.5539793416665 13.06321184873082 15.590880497312815
Bi 13.899589847970422 9.281836709889136 9.918479450038003
Bi 16.978445696638676 10.669123704172636 11.807627937631475
Bi 15.793299325791276 13.661647096750954 13.160539020252294
Bi 16.49908247392081 16.59857623206211 13.299861878267395
Bi 15.268494363802706 14.536984204608128 16.915573454825356
Bi 14.563620726723519 8.950928842365396 14.877568655566606
Bi 13.299198607839447 10.626114544578554 12.63994355530752
Bi 15.204193647255998 16.704538725145248 10.620745344105872
Bi 14.949332424778884 13.037235791193408 19.538899747299595
Bi 12.741048439530255 13.307568731249074 15.713819265896923
Bi 15.010670516304028 10.184292126615942 18.47251881888386
Bi 12.426832328217015 19.002281141482477 16.41912518592589
Bi 12.742209956216595 14.91152310232107 11.050609431665503
Bi 10.929600162085231 16.588502138321793 17.56132232103727
Bi 10.277248061358979 12.607898837533469 12.582456230184382
Bi 11.193443265856667 11.960559361627334 9.69018123408618
Bi 12.343533942978423 10.55231630826653 17.03484964424871
Bi 9.731340223250498 9.225801936387121 9.832159582547389
Bi 11.577697789198009 17.703385283365797 11.133946758971273
Bi 12.493220501268661 16.44535115987689 13.744922394001316
Bi 9.972870048255283 20.057328048896892 14.944725727347434
Bi 11.997496823311307 13.12624513352701 18.71504622860629
Bi 8.52542468557822 13.297053243051941 8.841294314137002
Bi 8.391363923832868 10.167515260290525 12.39967147664461
Bi 9.848216336170225 19.452104240603656 17.913028206667903
Bi 7.86995496124112 14.314414744876045 11.609384032444703
Bi 7.0777690589376645 10.751637321599476 9.730329262629901
Bi 8.085557126802737 17.793881473607588 14.237391311792265
Bi 9.850717691500451 15.441686321995888 14.926198593253845
Bi 8.5622462555162 17.278956706365538 11.260106695283874
