44
Energy = -159.58281828 eV
Bi 11.298882800728453 15.163211454632174 7.306355159338888
Bi 13.464585569324749 18.28857655454046 12.549859679988018
Bi 9.350712493559534 11.333529823316479 11.96647690339264
Bi 8.992301536481932 12.45375790407256 16.0524348315618
Bi 13.560276938877251 7.526560684371753 8.943593030970586
Bi 16.80270305605315 7.932070556097377 15.505354157072906
Bi 16.177167762028116 9.862940120684204 10.223361991274146
Bi 9.592996755840387 7.923952882196121 11.133564241746692
Bi 10.650906541704794 13.469609368955984 18.396537509517085
Bi 10.56019397174592 11.31372456928882 7.760370307554725
Bi 13.102493268477588 14.02314234512545 16.637341428357786
Bi 16.750818845942696 15.923479943976753 12.761448710664618
Bi 10.974205209475706 18.564195075097313 10.818285078923982
Bi 7.879869287385069 16.342892721178266 8.869799798726692
Bi 11.66553428050565 5.647673659562734 10.491676112679961
Bi 12.34333036682864 17.86027087364516 7.99766758245512
Bi 12.345256763995865 7.674355653903831 17.51704570271657
Bi 15.523024962651782 5.975724673437958 13.53947272134539
Bi 11.790595296675589 16.631414270518345 15.794210107643254
Bi 15.564007099418022 17.552349796716076 10.434674821683217
Bi 13.271602724745815 10.508945588551185 18.095980743360823
Bi 10.381725742895341 15.410173248609546 10.347384710732028
Bi 14.223885825756355 14.770589541902135 9.899399996770747
Bi 15.244781080046037 8.192776363978993 18.17853239132511
Bi 16.937067190793776 7.069386806987841 11.098740391720957
Bi 12.551959758989815 6.5029153765913845 13.322856468391425
Bi 11.563468611377042 8.558959940441108 6.865439786828864
Bi 6.6942396011332015 17.18312842492787 11.56483766439682
Bi 17.39246406754351 10.644678028836273 14.332765890567114
Bi 11.3951507004098 13.043882692331236 14.216865385742807
Bi 9.32972559847536 16.062720241639134 17.409293346924567
Bi 8.919161612208573 18.371323063560475 13.130320753864073
Bi 14.981460565914503 11.430444815945576 12.617646564427137
Bi 9.707773254046158 17.66280831255792 6.634700222748465
Bi 10.203774748121242 9.970169106000272 14.648920463882426
Bi 9.211970550704283 15.478293117808123 14.236749439140857
Bi 8.932307885140055 8.782340250997702 8.285711933826786
Bi 12.422668485694777 9.054309036917788 11.336871562345243
Bi 13.274071703091469 9.455661998033206 15.228667161295041
Bi 16.76607955511978 13.380252030868778 11.013948983889781
Bi 11.870233652475928 12.07990944533736 10.420904422073507
Bi 18.738497749570268 9.381632115439801 11.898541607059467
Bi 7.716566755489499 14.175176317043622 11.493569877176274
Bi 13.761148717428796 15.247740148247818 12.903469298768556
