42
Energy = -152.48137716 eV
Bi 13.707803177101146 10.036831220893335 8.382756209677027
Bi 8.98049555670555 12.1560915569531 8.703649680371532
Bi 9.657806293068202 18.894441513847852 10.125798918852288
Bi 6.551725783996652 13.110559339758158 10.322010184645146
Bi 15.763287040083155 13.86879481860674 8.33322070172706
Bi 8.70930910289717 16.082358642298015 9.375498735431767
Bi 12.911660228440422 12.907738884917402 7.640473549993169
Bi 14.631897620824892 15.416934933164542 10.760610721004225
Bi 18.02319608037614 10.323102569746146 11.117954484963313
Bi 15.347871417537252 11.626729543245284 10.377956771121111
Bi 11.71086838630333 10.019273396284738 10.75313272548529
Bi 11.079928803683405 17.24520563807643 12.264746713629808
Bi 8.107426018017364 10.589274512193365 11.151540570250845
Bi 18.739001196943104 13.276842623344265 11.37684971960123
Bi 7.9404483116382645 15.135364704853993 12.177338323922077
Bi 11.694936879875508 16.78323696693064 9.345927703028394
Bi 9.003707898161815 12.511845367104254 13.373421800648988
Bi 11.35699490685868 13.070297710175863 10.374985929362012
Bi 13.622982029355207 10.074662558933982 13.187393784743627
Bi 15.519034205358059 18.328179996224193 11.08158626212852
Bi 20.235143663846426 12.388416443044239 13.887902945258315
Bi 10.689274612093225 15.46471820258696 15.591551891013445
Bi 17.234789199765846 11.912226066119754 13.622698759115144
Bi 11.31096759107953 8.78884617800135 14.564178070376204
Bi 17.341540193034735 15.19874457168072 16.5898844291318
Bi 16.884269774544332 16.084797851121177 12.728798115646526
Bi 14.459576967174613 14.86995022436826 14.250883781717095
Bi 10.232047917305161 13.818175799711572 18.09901340823458
Bi 13.25801525206722 19.29874398782729 12.870989488224671
Bi 20.018900423752594 15.191111954930252 15.110125339887093
Bi 11.939495026519623 12.451995640668942 14.390742821616637
Bi 10.062634718530886 11.067880948733249 16.58207916970467
Bi 14.690235651406114 10.731928428674115 17.15634624054252
Bi 12.190038751209245 17.478994369582196 17.276920474075713
Bi 18.122980218883367 12.339034829692904 17.302578817768026
Bi 19.944183721517977 14.637226001782958 18.107228775854033
Bi 14.493845109281793 17.757714828976383 15.187819905619222
Bi 12.184346617284872 9.022447369015403 17.460123856933816
Bi 13.115812541357325 14.568920070620154 17.417607358892425
Bi 17.04787599668547 12.170622637233086 20.16511870398833
Bi 14.007970766286533 12.002421354241147 19.83145113693928
Bi 15.666511990374856 9.48815338506348 19.769940660101405
