41
Energy = -148.63069351 eV
Bi 10.968926797223952 6.755635248037823 16.336059848591873
Bi 15.098163327608246 9.207941916281444 16.955304349590318
Bi 10.480134347005986 9.462089611359898 17.68008772769025
Bi 13.109904517904276 7.153639563662978 13.901256226083236
Bi 12.926090179433336 13.13622403714506 18.194327565950424
Bi 7.973727415199586 9.835575602732325 15.993652129634647
Bi 8.472327494291156 7.122107778618374 14.62789291354385
Bi 12.571857881335017 9.953623169277808 15.44311761643492
Bi 14.866782837986035 12.123071561794156 16.034801050785287
Bi 13.009126925516975 16.108134739155545 17.491809997018574
Bi 15.968491435889215 8.552027964707484 14.071006068679655
Bi 10.148322145041599 13.189559804032129 16.823554086588704
Bi 10.974022314552181 13.205862596655647 13.917545958923114
Bi 15.652535897782517 15.7171563590851 16.002908272886135
Bi 11.82693285752845 7.968597860829828 11.283811235942109
Bi 9.620744176497686 9.650147299413577 13.372529337526617
Bi 14.675412530813015 8.540738863099875 10.430262955106084
Bi 14.393667526002009 14.386009059155171 13.570794425584241
Bi 7.98429181858204 14.103865401157504 14.056873629095819
Bi 17.436136118561738 11.824639809343322 11.361518704855289
Bi 17.457557586903892 13.969813353686856 13.506841348544658
Bi 14.693870652213475 10.838010651918468 12.444686627036758
Bi 7.839314067852155 10.146617644709853 10.972858701144338
Bi 10.791356882861663 15.910648245756281 15.381236581996605
Bi 11.4189799198499 10.331391463478349 7.333357383532848
Bi 6.581247936355194 12.872336728634227 11.665679435606725
Bi 10.572087682276766 11.253067377901191 10.15698246314501
Bi 16.032842700863124 18.181336189069683 14.128212590424942
Bi 13.921466379964809 11.120237169353329 8.860775369772254
Bi 18.082812485004865 16.706176288766727 12.322279214100345
Bi 17.48745150035202 13.755695645894473 9.018185640881853
Bi 7.7921079552318595 15.722935668935932 11.466726383168531
Bi 13.265278218393995 14.34805197340522 8.493641866371817
Bi 9.21815815733807 13.650009818406286 8.779702638040796
Bi 13.374917672943198 17.249304026341544 12.98856946994169
Bi 11.254738310840018 13.284057108481054 6.470592829095119
Bi 15.483680612459493 12.919998912351362 6.892406663172481
Bi 14.173164864066605 18.130893506034685 10.212755038408844
Bi 10.780177598256726 15.403281238996701 10.758244333150014
Bi 16.79228306364516 16.673874419501153 9.586311960149065
Bi 11.887495315372579 17.128567418312322 8.4592439941088
