41
Energy = -149.76095364 eV
Bi 9.534152084180317 12.424613708289103 18.17946347889402
Bi 10.950666936432237 9.752525311646293 18.418404600076634
Bi 13.252775446938607 8.572471360457225 14.672047226651065
Bi 16.87403437521296 10.203732199542548 16.223838625093375
Bi 10.212938996330703 10.679244114081355 15.6443084608791
Bi 12.357257164861894 13.758162698554141 18.639351731779325
Bi 13.741646937370847 11.044762691567167 18.498826573170977
Bi 14.143056114405937 11.363147636900528 15.49921600289173
Bi 18.13669275892867 12.7432764132689 17.388501076353865
Bi 11.13170516465962 11.805758480681357 12.12534106275898
Bi 12.961946249419883 17.048196856861125 16.880174164745274
Bi 15.795883611235004 7.817161263231788 13.0008520381545
Bi 15.801465615603266 14.684868226449204 17.43138715295669
Bi 11.22473774334926 13.824378908483467 15.776421858037752
Bi 12.01069448919384 8.900144831191115 11.869485192345325
Bi 17.74262757026746 10.168341631666939 13.314732807762683
Bi 19.71257339363161 13.44701450023668 14.925111593400672
Bi 14.344653959685969 15.160320606146975 14.753502659953428
Bi 17.534091892189707 12.185510092363847 9.708823937662897
Bi 9.127988461839651 11.638976146915198 9.85053446947546
Bi 17.348374867202214 17.301258746964177 16.840026945946093
Bi 19.364148283395004 14.411617434020837 10.758242584340842
Bi 11.574618635212286 15.850928197426166 12.494796559326875
Bi 14.734797845070544 9.348071064761042 10.553486238217346
Bi 17.1514590829499 15.049695786077574 8.765069452167301
Bi 9.98969469089108 16.52279510934619 16.756707822758273
Bi 8.284085035727193 10.841935477292731 12.75990185507723
Bi 15.56781502846251 11.917312404938093 12.047239458916176
Bi 11.70185343234499 18.899400636494327 12.799787712845633
Bi 19.453830546619393 16.466834423752385 14.808654381878943
Bi 15.784687828057415 17.881255767886294 14.248555983288878
Bi 8.35132384513369 13.798259030370248 13.537766101629714
Bi 13.501908302565706 13.142663617136552 9.213730612605518
Bi 9.310451765982624 17.34201557746527 13.910935840210621
Bi 13.77068797459814 15.38089679287968 7.187007077580464
Bi 7.8077670638803625 14.307516408063476 10.608903502948426
Bi 9.923957788620028 16.45963300058604 10.003035954568787
Bi 17.572262667083574 14.687013494739965 13.168576358682042
Bi 13.38821396155418 19.545306174488374 15.225805065949752
Bi 14.505947231936643 15.877683599056384 10.096294759607126
Bi 10.97030282637797 14.395077247122453 8.064928687813426
