45
Energy = -162.94739069 eV
Bi 19.38534962320065 12.670479658640195 11.264350078542355
Bi 18.08957758486778 15.410656284043522 11.17267315953865
Bi 18.483691503898132 15.8027325212262 8.165675008938816
Bi 18.218213251261393 12.364985334789921 14.070672815711529
Bi 16.572703732555194 9.896238111196306 13.301405611230686
Bi 17.781669191257393 13.058656299448481 7.144499966778924
Bi 16.006144316448253 8.090730530141252 15.736053881929939
Bi 15.360728950247113 6.2797808135976965 13.38212868510099
Bi 17.018349360592918 11.533339947420576 9.702538709928312
Bi 15.403744786303045 14.055523730890233 10.512156409675383
Bi 14.856620734616309 17.996695643913718 9.86849209531816
Bi 14.858401675317962 16.760982533004775 12.782532664125188
Bi 15.507192552068846 13.0808823417208 16.80091360090447
Bi 14.697157037110342 16.030556446914908 16.254002138436917
Bi 15.527695782868292 15.123818861579467 7.616314696356224
Bi 12.405872670946636 5.535242486152599 13.389240072544213
Bi 15.15993468039448 12.576164353139832 13.787504591300102
Bi 13.306297699391934 9.542949094249895 15.801602581301387
Bi 13.390950366286553 19.294644851650244 12.230646622377765
Bi 12.586588354120252 9.593014238778554 18.786237656320385
Bi 13.230710396590386 12.177339730793173 7.636911246428629
Bi 14.026710055823226 8.838409618140403 9.333185367007601
Bi 12.999651376024943 12.640087053740922 18.53705885406604
Bi 11.298393092274397 9.95557945197297 8.579419884383874
Bi 12.977902362728718 11.44185806835699 10.608093983250962
Bi 13.275787197641202 8.226605732468977 12.248892407129164
Bi 11.984396276064775 15.594536838817582 12.05414643419031
Bi 12.053104964602207 16.909886161059738 9.267168844641366
Bi 10.807601052573727 17.696019054033215 15.427862739253872
Bi 12.250289684668378 15.89394846985887 18.30090012651801
Bi 11.282214111502826 14.55070798470782 7.476872221824869
Bi 11.974577862713096 14.801726317581112 15.513758612468996
Bi 10.627172685219719 11.28100439061316 16.969022753906714
Bi 11.257019269987488 7.241460935729219 15.646769738843181
Bi 10.370462325532724 18.176903995551907 12.347222240810973
Bi 10.0432241618623 13.672793540584061 10.164941256272929
Bi 10.335941731179165 11.280642968850827 13.494733018993518
Bi 8.348797374941357 15.958851246309406 11.119536701347094
Bi 9.558284154174272 8.341362383289841 13.331917690133459
Bi 8.980214300015547 15.68939788702958 18.395595092820795
Bi 7.880014789988235 17.008334979019892 15.916733220298214
Bi 8.735321167673703 14.652722267661579 13.994052292746177
Bi 7.774646889944919 10.299507450477574 14.920142892305979
Bi 8.21956879228081 13.246434220782564 16.929122272911858
Bi 7.581645607787213 12.173739008951005 12.479371538338176
