49
Energy = -178.70346079 eV
Bi 17.888699521384495 11.082512878406375 9.552325659604755
Bi 18.54766972720697 13.488142113129786 7.789510848653442
Bi 15.541810948475007 13.292475501055433 7.158458807828773
Bi 18.81183836798289 12.94263294204014 11.856924923205888
Bi 14.935461604002938 12.019045806935411 9.849235521457292
Bi 18.153268712590165 11.586832531718972 15.15688931397958
Bi 13.968840729108255 9.577309436229223 8.218194166191301
Bi 14.472836511797267 16.18429203041591 7.44132514106095
Bi 12.967960438194263 7.911110625189242 10.617621351195883
Bi 16.081392624106766 12.723435047479228 13.222899311806101
Bi 18.548323693548472 15.486484770197327 10.14595435227512
Bi 12.340661234813265 14.242309919473982 6.2333004723583265
Bi 14.285298571911644 8.013490213713608 16.70878938259156
Bi 11.119746232040201 10.384600688704431 7.348580280814366
Bi 20.038895668335876 13.91570290011403 15.504004387495744
Bi 14.861183639762325 9.502566596922332 14.102420390787755
Bi 11.556765923868337 12.938068182931652 8.946116221817867
Bi 10.306478106321132 8.026224572964239 9.120602986735882
Bi 12.283413884249384 10.11675134599682 12.57189696195225
Bi 15.56516558419976 15.601130838968576 10.523100424331522
Bi 11.861913299400555 16.87314465999841 9.151320338953763
Bi 16.678455546287434 11.803322458280356 17.804024307761622
Bi 18.516989949752386 16.369356566388294 14.499968285771109
Bi 10.079589378348503 8.472017269916623 13.95067073461596
Bi 11.426053617365065 7.125855457146983 16.547402018462154
Bi 8.914800559620161 11.010878298943766 15.386847822401705
Bi 15.634238120541767 15.43541202517285 14.619719289212366
Bi 9.783740681555892 15.081219189141644 7.75243341891048
Bi 15.992786782087519 17.898047650828282 12.381822860105617
Bi 7.6615828133365955 13.39853316545442 10.261610925101028
Bi 18.715761142819172 15.738861356793466 17.53769235764381
Bi 8.26494161301749 8.25290194199968 11.347146220524447
Bi 13.966712664712379 11.08463404314315 16.564982442219353
Bi 9.523560393729575 17.06562182573203 12.1117494953388
Bi 12.974819776396378 18.50643378659279 12.147423680657653
Bi 9.855161759698223 12.733370136750699 12.25123998142539
Bi 11.407968384120231 13.545734989602444 15.654621706418153
Bi 7.790342303684982 10.004231119054817 18.050688919136196
Bi 10.781623610264159 9.840274058687008 17.695418022258565
Bi 12.175688690018951 15.57313008558348 11.858444334752948
Bi 15.876148940201801 14.697185326347032 17.72950090953516
Bi 12.579353945902788 16.395831486943866 16.233653646239976
Bi 7.661772516885704 14.754586934168497 13.00185075868958
Bi 7.3280140992307095 10.970896231211638 12.24899169563544
Bi 11.486690556181296 13.283890969777843 18.7454356363133
Bi 8.423486027750103 12.855434570843656 18.984951956457955
Bi 10.973858307710923 18.353541465995473 14.527255653735562
Bi 10.430102046995367 16.169773043248938 18.436995032198688
Bi 8.625518229979974 14.614301595830385 16.45385103193723
