44
Energy = -160.49968298 eV
Bi 19.47871543344708 11.963877712560478 16.51474055880457
Bi 21.14359149194579 15.720705518945515 16.351855125040156
Bi 21.688235482311903 13.224861282296759 14.673748217603928
Bi 18.771748277067275 14.536051782614214 17.967473704200465
Bi 18.46718934117183 9.510483661620087 13.525584189112248
Bi 18.51641671020487 18.376709301310022 12.788001818121613
Bi 16.93945219261726 9.643616518828402 17.525601744312016
Bi 19.085706746932953 17.89584183847042 15.71801658467441
Bi 18.936314437091152 12.598873482349104 13.600266210633878
Bi 18.186573550125257 15.521176303933045 11.729321838862473
Bi 16.65894960506484 12.009278986848805 19.49534328481336
Bi 16.045794053761206 10.832946274994145 14.823283847764031
Bi 17.151940175990713 9.69919195649618 10.79443921369468
Bi 15.429864311991562 17.945868833692284 12.845560491751613
Bi 16.650193111758202 16.178872033371608 16.475722075110024
Bi 14.247660356188629 10.293876342700678 18.8019779159691
Bi 16.32291726953546 17.20210024170873 9.983667925355123
Bi 16.034620158131986 12.533326843075765 11.206584736983574
Bi 14.638757562517819 12.967167072652723 17.36606412808435
Bi 12.139347735008563 13.699873001420544 18.986656944331337
Bi 15.847490879013028 15.037514404843995 13.763216630365793
Bi 15.367004954871014 12.570064743618287 8.281833232851616
Bi 9.652523520626652 16.138691300302952 13.927253509044476
Bi 12.620071778663347 14.77862646032783 11.42538041290842
Bi 13.596033965917876 9.125136456880613 14.171751047302429
Bi 12.605310250671042 15.544176106928127 15.049199013309591
Bi 12.054445362919937 17.773786349289523 11.00283492619729
Bi 14.135895185328845 15.346135900972559 8.83701407907923
Bi 11.081768371153093 11.544907301579862 17.121774126930077
Bi 12.456807580804405 12.012276844398585 14.372982161217683
Bi 13.303610514395887 11.491151140566155 10.26112565524182
Bi 11.399095255049362 16.368195178050197 17.719635108495034
Bi 14.291938339929304 8.71161255629007 11.203277013715171
Bi 11.874368050624755 18.35478427475421 14.033012589984882
Bi 9.321329449411122 16.98131959257745 9.754477434257153
Bi 10.571621236864926 14.302744249579028 9.126435576336117
Bi 9.854646893517742 12.985363736175918 12.898290365313681
Bi 7.49342994653469 11.812484205882345 14.388533092792995
Bi 8.32157281933421 12.796896001445832 17.12757210875152
Bi 8.643552063665064 12.201892608586869 10.194709907110758
Bi 8.53911756801471 15.807892082009172 16.76937578307899
Bi 7.064655560142837 16.535914631199297 11.743548126369946
Bi 6.117778060366088 13.880987205745754 10.632136104030348
Bi 5.996795594651634 14.312871454840938 13.66122882211076
