43
Energy = -155.92531787 eV
Bi 16.490607641850705 17.30177195412087 7.843451130792085
Bi 18.086460086686298 16.731372317571164 10.333008939091513
Bi 15.593807911445069 17.254265133574588 12.028776038826749
Bi 14.565890993905109 18.91158127580526 9.562439482609362
Bi 16.88371664244219 13.89047428415294 9.735149470740552
Bi 13.669038564712865 15.045673372950002 11.028216872399714
Bi 14.828702436966363 14.571656697160776 7.487081838872781
Bi 17.01401740968261 16.139680865997104 15.142060815645278
Bi 10.213109097827548 18.616574334680216 10.932113854158942
Bi 20.56151432885247 13.532798416893195 15.467705741680852
Bi 12.185841334045616 17.062553418204246 9.206813754851488
Bi 17.229504717366456 12.844563012698773 6.827095608038492
Bi 11.715325944852951 15.075615356219181 13.402851637961065
Bi 16.59467436921266 10.774345246579328 10.360637118144822
Bi 8.020443526340097 16.60539893148485 10.518510794699138
Bi 19.26368329698765 13.100122227544242 12.67217224068611
Bi 14.070586970929499 16.27319077954202 15.953713125392413
Bi 14.851569608860704 11.334240810818798 8.008763594605915
Bi 14.35989153168764 15.862853685638543 18.988134281211952
Bi 16.65766757577148 11.443072143566527 15.920826288606623
Bi 18.433020194723774 10.311511107661863 13.541446131139526
Bi 7.508339466590935 9.66602447681281 16.204142493916805
Bi 10.09475722662232 7.746263146485353 16.9355475458025
Bi 9.382898818319294 11.379312906675434 17.925056649105336
Bi 6.253351170859931 12.744914586838219 16.09965461479312
Bi 10.461337502712817 9.499170610636552 12.653276513736063
Bi 10.239021823552193 12.329255412267365 15.043936424807596
Bi 7.551788789130116 11.499465321755045 13.68063087379616
Bi 12.133096130426514 9.834356543542741 17.603496905686697
Bi 12.032678315908505 13.854727808592285 18.855348962288673
Bi 12.22147088254538 8.402653244283421 14.900104708237402
Bi 7.891557837513193 16.236679426669664 13.586619004718116
Bi 12.201914189742531 11.72813643120022 11.266654663369938
Bi 10.537511291114054 17.825320865423688 13.86443432735527
Bi 14.543758556453223 10.318242086746316 12.601982234752757
Bi 8.727303971557355 14.297671103640301 16.834711058023224
Bi 12.69570036330328 8.812304720894751 10.670869315548995
Bi 13.414837018791323 13.242290231325127 16.17993802348815
Bi 9.22794767908796 14.097920800356157 11.854522962279969
Bi 14.907814417064943 12.868677784382777 18.934478980338746
Bi 18.032905407383016 13.965349733401819 17.095638120507708
Bi 19.727302376996576 10.723163998233872 16.254311572507135
Bi 16.38640574284511 13.707556550641932 13.456448448455108
