49
Energy = -178.3580317 eV
Bi 10.848478202682248 7.57971153669796 16.982013880265168
Bi 13.95352444388465 7.8472127009428485 16.75542366325248
Bi 8.963498858779465 8.515204941705946 12.32266823339252
Bi 13.547346055804946 7.020950970239241 13.788705612388723
Bi 8.245894670861528 10.449237914519589 16.164490048396548
Bi 13.610495975551897 10.7219382881257 17.71076125008647
Bi 10.517923025981847 10.300107057529615 18.290889414706207
Bi 17.181641347946886 10.539811924207362 18.232257876241828
Bi 10.644297096978448 9.541506952949822 14.655605212192276
Bi 19.077280346847587 8.615695624996444 16.84856523992395
Bi 11.429491396182911 7.766700597860836 10.688394839141843
Bi 16.111216240369288 7.6556606743714575 12.38178623612622
Bi 16.633016891290495 9.384693078036094 15.23365329782014
Bi 10.989078949927388 13.614735959445941 14.067817436660588
Bi 10.455966958114544 15.437852898959008 16.518226115109865
Bi 8.40360823334468 11.439530660361783 11.522346543814868
Bi 16.509613877214747 14.096784467785044 17.209073842910517
Bi 14.073490075713405 12.991704092034816 15.705641019828763
Bi 13.31772109294778 10.088670758385204 7.240018905114028
Bi 18.82563238591014 11.451245098213214 15.850209176562783
Bi 8.077926393545953 12.864436031532405 14.287186443541225
Bi 10.623024022717765 9.844321474940553 8.59986212899613
Bi 13.576936297772237 9.616770343031126 11.994740627915771
Bi 15.036235648829074 8.604193211369905 9.394241108856061
Bi 17.899213707010666 10.93237638803279 11.981654274547736
Bi 13.676703753416312 14.895369922406648 18.084343106053648
Bi 7.886842528826593 15.28595846484875 10.612215030820344
Bi 11.314298882859621 11.967145297729596 10.649820300940837
Bi 7.0982691321949245 18.246076707982915 10.547565770888994
Bi 11.310793218198752 14.066568547906634 8.417397414821583
Bi 17.37334803305533 14.715114577541332 13.423683377935111
Bi 8.008377898747293 16.687677480638058 15.023039617647479
Bi 13.683309616970865 16.46208545365865 13.879666150912488
Bi 15.340277796161878 16.874851972266423 16.45186902010958
Bi 11.97008778965467 18.03742467074643 15.855433762489364
Bi 17.32004602823584 10.580450858841498 8.978137397313274
Bi 15.355163632998412 12.655707134713314 12.329065702356258
Bi 13.905251035174844 13.026784006772749 7.2413583359285845
Bi 9.902039742631278 16.187540505740735 12.691074132970767
Bi 19.024895839620278 13.664518422601304 11.056350587284923
Bi 8.866119281747439 17.06445653281903 8.346756351621536
Bi 12.595591396545453 15.839010523217487 10.564844742203146
Bi 9.538917588919416 19.73669318534337 11.61878111775094
Bi 17.417141639625683 17.139875635939614 11.595613971920773
Bi 9.426474311409384 19.37090428531576 14.69493677448938
Bi 15.136850605668824 17.267815381299265 9.604770472961114
Bi 14.938900028038335 18.777678062406505 12.281944495526435
Bi 16.198980994820744 13.405967683190982 9.436822368736477
Bi 11.365836441857574 18.406245748217298 9.5039848718268
