41
Energy = -148.46502195 eV
Bi 14.436058305456452 8.410479820321838 12.472239578068871
Bi 15.992931331889785 6.471902457286608 14.19971364482074
Bi 16.26517954651979 11.149974125470894 12.589071193312394
Bi 17.88027617270805 9.061606326564016 14.231167857933151
Bi 10.55899865847226 9.194867713382008 12.879980060780426
Bi 13.337174841903584 9.340755836670676 15.18401444954645
Bi 15.99059202117882 8.493376567217847 16.51596284808622
Bi 13.858198486260688 12.183966096598557 14.271295711940331
Bi 19.830247377162898 10.936256305536254 15.87046494242582
Bi 8.27870323717513 10.220016999557107 11.236706232071189
Bi 13.732467370079355 12.903780168139749 17.307479588506176
Bi 14.461218735269593 12.77646626237382 9.516100375235007
Bi 17.28445793787774 11.952710929042604 17.29577130616912
Bi 9.637029046674876 11.517248471071769 14.6474679220083
Bi 12.283505011275242 11.234066505305206 11.094055582648158
Bi 19.19785701004196 12.394881528751611 13.372926090876648
Bi 19.62170015831548 15.147983948493405 15.030377910324063
Bi 16.689687790435475 14.26499709577987 15.366266466801017
Bi 17.436060464608794 17.257505955189174 11.067735622805799
Bi 9.842685914837492 12.2098031493744 9.405305337099374
Bi 17.900002005621094 14.048474692722376 19.449439738573922
Bi 18.449620545817314 17.75554266197286 13.893612584128189
Bi 10.977551221755935 13.700067347246918 13.020507356810185
Bi 12.204327132072047 14.404993253452458 8.533320773523942
Bi 15.531466384658485 19.42440245619073 12.126229200347536
Bi 11.15467141051103 11.280128496220973 17.373328915527697
Bi 6.75798876161409 16.909268179299143 11.488415669232614
Bi 15.720072291637976 14.799368186490923 11.750636519108575
Bi 9.887733204278991 15.518250740251013 15.373039283225323
Bi 19.117887378418576 16.319076094005894 17.884642748728478
Bi 16.09948548888569 16.01640079452041 17.95539128761191
Bi 8.18439569392597 13.282954298472852 11.693117913948022
Bi 13.967518675090064 16.558971086550667 9.808215267464256
Bi 9.955480057384145 14.039551493536703 17.99589866928051
Bi 12.650944242408718 18.237520180532844 11.959580444137934
Bi 9.662026393675195 16.68618167454368 10.574547158144705
Bi 8.919056739628754 18.286404409352688 13.066498253618906
Bi 15.664122147923935 18.2623337287057 14.995552696859072
Bi 12.412526129184965 15.718631875380728 17.07858441881155
Bi 13.774698237528773 16.080242282274217 13.872320209372276
Bi 8.162799101626693 19.317992467941547 10.322420831876238
