46
Energy = -167.97605022 eV
Bi 18.43934606507271 13.459381441810384 16.31544207014581
Bi 18.46397681036201 10.618816842431482 15.148801786222203
Bi 19.20223227589597 16.136868774715847 13.838206206033636
Bi 18.586184289198254 11.010629790126043 18.142088258692393
Bi 19.005690734178323 12.17507594396639 11.825492885124955
Bi 17.266449809885444 18.35962103518048 14.534613908279788
Bi 14.773060138985898 14.517394340403007 18.866071715466283
Bi 16.875260030927436 15.824726353216283 10.210397644246322
Bi 18.31655963246239 18.127887168211167 11.686687815159896
Bi 17.028061721923347 9.830960362702136 11.629418435976454
Bi 15.884066038685333 10.432938594506993 16.815355256074845
Bi 15.364988483416163 13.395168575813559 16.09912511016689
Bi 17.714903549824328 9.818460661148046 8.607553079652252
Bi 12.474507695034017 18.688676101244127 14.406375111839285
Bi 12.225635895018977 11.322381706714733 16.581424949624783
Bi 14.732464776287209 16.687205780649318 14.953769420394332
Bi 14.218224530442113 17.377436339803452 17.912772124184354
Bi 14.44670934057203 17.204035759079623 11.461280094809672
Bi 18.811775669969236 12.654944352582 8.813537431264729
Bi 13.383096625232676 9.434316234179215 9.495499346144664
Bi 11.90177082116145 13.530357778059491 18.76688206936496
Bi 16.982908892362335 14.24110323191667 12.821500482491002
Bi 11.226328429509719 14.599771774764298 15.983783892069464
Bi 9.322242843806018 10.880215492746519 17.218803128809856
Bi 15.869046201366121 12.24830883245648 8.240071999919119
Bi 12.838274697160184 14.455979762564908 9.289529616594535
Bi 13.90110546063766 8.851263626301128 13.950562257270986
Bi 12.906212881385516 14.67077961432284 12.39091355020964
Bi 14.702229551835421 11.737950227836391 11.029734234769954
Bi 11.954808734514048 17.378869146526597 9.65508605427976
Bi 12.113272036798262 8.18252559333265 16.376826236861145
Bi 11.586110716877338 10.774682031866288 13.085035004648756
Bi 11.296961874205198 17.488564775068923 16.979077918850603
Bi 10.769743896562789 16.88178075286494 12.486509890109009
Bi 8.363835841129436 13.739442610613617 16.59167907043377
Bi 10.260040229090018 13.266241633946468 8.205786269816087
Bi 10.648897532218234 10.319721544422054 8.429024884046507
Bi 6.669884845586634 10.8560912470772 13.411475435249493
Bi 7.220635096845973 13.701274344092411 13.747171573125831
Bi 8.80389130202568 11.010692353358818 10.889340183074841
Bi 11.905371586125833 8.05278409549671 11.78469298957484
Bi 9.000495136955733 14.09846659999386 11.041391782625556
Bi 9.650249136569084 9.068629775874276 14.746112366483914
Bi 6.126960614272656 14.176364199964024 9.920323445936857
Bi 4.72687678785347 11.829708267492762 11.264563462703402
Bi 6.526611042336571 11.369464831120926 8.838169853740693
