42
Energy = -152.66760827 eV
Bi 12.974030254221502 16.635628622856036 16.003589532865853
Bi 13.779587470096935 13.439079388584439 17.390029063832976
Bi 11.879009580536597 19.009784872496347 14.381688705433273
Bi 10.84144933276486 13.01277484745287 16.784978548880048
Bi 10.11256040381193 16.00410051501358 17.023194605436117
Bi 15.980423081552914 17.518061637006998 14.266215538546147
Bi 17.750756006889095 12.82377279969168 14.769470840036567
Bi 13.431918503103574 10.615283893627282 18.52937470240184
Bi 10.624703392396487 6.345195975905283 17.175430223885947
Bi 9.3498807463817 17.36370030605978 14.005109170726529
Bi 14.781784178034114 12.146812531871523 14.780781222814552
Bi 8.578273644480287 11.290606391451274 13.96504936926054
Bi 15.546192445012661 9.796913524483942 16.5465295122763
Bi 15.877172812938555 18.70476767370776 11.452408063048942
Bi 11.185689649167996 14.832315986265852 14.25811521914752
Bi 11.534461002160715 18.58435366340608 9.78062326587316
Bi 7.652696327767298 13.86129612562741 12.49505339810946
Bi 17.682579541881385 15.42395434044373 13.123855952799207
Bi 11.89314691780867 8.974017670562045 16.26363432253677
Bi 11.3627080860945 5.937709563121714 14.25925488311726
Bi 18.088550214837472 12.130939599431404 11.804964454229378
Bi 13.219685676737837 17.44136925084313 12.093553768889555
Bi 16.408939331904673 12.992420226561467 8.257565782037005
Bi 9.4632665572717 16.740832849445727 10.842983712108762
Bi 9.190900159873495 7.83155177949854 14.97355575264926
Bi 10.533422794070145 10.499212499747363 11.71186412889893
Bi 15.555282450934385 13.850006185318703 11.307945694369177
Bi 15.882101921270948 16.316195412975684 9.51048528491685
Bi 6.2776964416563805 11.165814805256291 11.965420583547443
Bi 14.168502831357948 7.510207650302955 14.680394327260013
Bi 14.026592647205375 9.492107135924773 12.357838256965957
Bi 16.92006605263421 9.346724915793006 11.390612938540375
Bi 10.303089815801279 7.570845581223505 10.905775599766297
Bi 11.344400696713576 14.249745299818313 10.750639520869077
Bi 8.575364225382813 13.603597741205741 9.590075884174635
Bi 15.720585703693361 10.059040892190565 8.649808394934658
Bi 12.894894256176086 15.904104333635402 8.600247714284423
Bi 13.729461550012745 13.116523513688103 6.9145232918627935
Bi 8.271973136479474 10.525565640446002 9.698175662456476
Bi 13.307205260563794 7.1388114787992345 10.53313956985012
Bi 11.707598271600803 8.667006988921866 8.417810139947374
Bi 13.044426861519112 11.376456785470506 9.338505143784033
