42
Energy = -152.98469105 eV
Bi 19.060483213160413 9.71377572942431 14.827743453846825
Bi 8.871465186968882 13.561253486245983 18.161780448638474
Bi 11.572068007840109 10.605608221436983 17.28533948884501
Bi 14.603287549347812 16.754078390506624 17.466334270286527
Bi 18.215304026698146 12.379928942465668 16.229181382430603
Bi 15.379988314445399 11.965127983933925 17.3579126556216
Bi 15.226124631069045 8.886661667002786 16.972713279781935
Bi 18.194823463135787 16.22436244395069 15.752033839956855
Bi 16.703530853297064 18.85376157412132 16.688762408419592
Bi 11.681025944369054 14.727138419933853 17.70420097065882
Bi 15.929453864340465 8.234074944597905 9.681489728829893
Bi 9.385964670226794 15.227634287835778 15.633369055094688
Bi 12.346431374782444 18.4062920744968 16.20832775668582
Bi 15.179837584029915 11.007236840468364 13.367127941063666
Bi 12.554389184828327 8.266987109103985 15.630518089246172
Bi 16.410608073535986 8.409244218566307 14.237063606118312
Bi 8.747802292948005 11.12949478287464 16.33363416815484
Bi 19.437762858080806 10.842975339819036 12.017280332413103
Bi 14.55492672683603 20.16838442429897 14.87791860418129
Bi 15.413125150786353 15.435316435170908 14.751010361767538
Bi 12.920623064705804 12.817834498446851 15.665932936590472
Bi 9.729527057855046 12.74108272894587 13.846370036517964
Bi 6.7450803463506785 13.462136052703856 13.344293284094524
Bi 6.8771693849130395 16.494328530759002 13.153332367809988
Bi 12.525758897194214 9.63282429827556 12.811795608939041
Bi 13.526847450071942 7.242705117715035 11.197844429641714
Bi 12.172314614622758 16.502377822091837 13.798610751834222
Bi 13.250756202667965 18.9196533742796 12.261631817922542
Bi 13.4492619701609 13.897033321688278 11.62270382196003
Bi 19.174384812451002 16.042239977063225 12.775912300280421
Bi 16.465684286050536 17.896596699076966 13.098545369153689
Bi 16.63915718065549 11.026778211383984 10.693820812155009
Bi 16.423375894198767 15.303952480158975 11.114815265158901
Bi 6.6735012018184126 14.829758151169813 10.644599377667834
Bi 17.91444849372739 13.220973380163082 13.279693875742494
Bi 13.155301292076233 8.947013199849831 8.70410504333432
Bi 9.785279834098597 14.33124590798473 10.782707480199866
Bi 11.951556270171604 11.60063221143062 9.785951263279435
Bi 9.716125763902678 17.101445149683915 12.016926046398654
Bi 12.241198527093102 15.810133513165905 9.521782534781583
Bi 15.303104511856615 18.051273992509568 10.188257870964497
Bi 14.010406139074371 13.447910231641519 8.625892029974253
