40
Energy = -145.76921084 eV
Bi 16.88752550053258 11.643880253022242 7.907576137403798
Bi 14.334733387913598 12.484123661048162 6.459650981401416
Bi 16.317192197766026 14.686592573289044 6.989205637160833
Bi 16.082992465876536 9.071402560397264 9.840794873786578
Bi 17.911648359243028 10.578380449567918 11.770554644032712
Bi 16.334417483352055 15.746420064474279 9.846814855692424
Bi 11.25942489641673 8.528451075252457 10.20005224803259
Bi 9.024019628512246 14.606050340139678 7.674605057275903
Bi 12.444583023599783 6.454832868417107 14.212051846693662
Bi 16.003751068100662 12.72546675575748 10.609222579513634
Bi 12.714070218844634 12.833954144587596 8.990432572854079
Bi 17.109244973800426 14.239307729405168 15.262425052322126
Bi 10.141633965666106 11.768561969844495 7.717692360599157
Bi 16.55990510054175 10.10050110563389 14.512324993876392
Bi 11.764504208686285 15.698433122447716 8.534038588938461
Bi 14.934564013434114 7.980017556031866 13.009626860993697
Bi 13.610328091611281 10.145933513571393 11.300078104232592
Bi 9.260753697040581 10.83659085381697 10.477409088858364
Bi 10.246408645868298 8.21505842113217 13.088166606184135
Bi 14.68590453351406 12.517156319994076 14.602770097527223
Bi 10.916140117449382 12.684814341303603 12.312946237301658
Bi 9.684552208704144 15.08439343041427 10.68437449933472
Bi 13.87079171736381 15.495145815361951 11.78094655934695
Bi 16.441120528047325 16.432395665025524 13.210313214976416
Bi 7.377307308465848 11.000636092980494 15.631281111878721
Bi 11.65343684974542 8.074907865574307 16.69497464629856
Bi 12.051508176637217 10.245961113680407 14.621428681074196
Bi 12.393298151999476 15.414258097880184 14.997153953880492
Bi 8.61895387954335 8.299161738856885 16.460198310227472
Bi 13.830767959517523 12.101812395088249 17.540266465840226
Bi 12.53833775147639 18.282732513614086 12.136463763258485
Bi 16.023735545836114 16.01313250805658 17.496941843000585
Bi 8.289421119473818 13.293166944653713 13.707590959959209
Bi 9.588138468616583 17.621195244554503 12.524956621100502
Bi 15.66431741208218 18.326955203582546 15.506089094960203
Bi 8.870839146170733 10.768356212271598 18.224946853653258
Bi 10.898210134672958 12.352465221009032 16.546616173302088
Bi 9.391224565286798 15.872025820489245 15.061722178244894
Bi 13.17050085625959 15.035446541918633 17.926402904326032
Bi 12.652467169289697 18.417705101213553 15.175407321415365
