42
Energy = -152.19165879 eV
Bi 15.734318262874577 18.837270225000356 16.731740337935594
Bi 12.706298485112521 17.35055494224192 13.914680750761699
Bi 16.821906641314637 15.748658796297963 16.839873407543838
Bi 15.50038059587672 18.49875707255393 13.160521954436902
Bi 15.63985012371563 17.31023076508388 19.364619968042156
Bi 11.93373669247124 19.181727648130366 11.303709730452367
Bi 12.758540200005603 18.647868177490377 16.714620036984535
Bi 17.678617570934453 16.20869233946332 13.184782308353794
Bi 18.24789851428229 12.768882482495911 16.919489572261647
Bi 14.680793895298656 18.76441656927661 10.187255859313213
Bi 18.235958706015413 15.212336608285494 10.320737102013885
Bi 14.597042175777874 14.13374387851372 18.17918418774717
Bi 14.811225808095468 14.992062829407688 14.184529402871211
Bi 14.684008316970932 16.032849982523967 8.874232637364154
Bi 20.338400352123102 13.306513851202684 11.456237130384432
Bi 18.31678552981456 13.17514842442189 13.904298265886545
Bi 9.60117334504573 16.139522297599864 13.069947440163311
Bi 10.09854669141622 17.22392958396109 10.064088776173914
Bi 12.697002364181174 16.41924980723313 18.82468037771082
Bi 10.788857766380726 14.89886637894525 16.01770161548085
Bi 14.180011559500212 13.97103409334198 11.10423985562173
Bi 11.25674878109265 13.638029105945572 12.614056851604845
Bi 17.853566584282238 12.19521732646679 10.21763997584256
Bi 15.963644462336845 11.419723704096027 12.722822318013767
Bi 6.916792323689876 14.622593765302206 13.513238439326036
Bi 13.586556350380453 11.342092304809025 9.143520071594972
Bi 11.84624837105827 14.959441756184884 9.110155363637215
Bi 16.132480519729423 10.891759822462374 15.897985215040986
Bi 7.888100434193773 14.015813257211912 16.344367199827243
Bi 13.522152826362793 12.552878515064926 15.769487530324426
Bi 9.887000967980933 11.918464385764631 15.266100998043003
Bi 12.599664158739298 9.984732950276515 13.223909725525113
Bi 16.884198165598576 8.66857263709235 11.75933200171808
Bi 9.460389866489592 12.5275923967181 10.388399906302926
Bi 14.993079470413676 8.615582453948747 9.392044114379226
Bi 11.207107585415185 10.04997670806756 10.284336450076333
Bi 7.838042592570544 11.78453175733305 12.895747217253504
Bi 13.15073485698071 8.807239836901934 16.174908193720032
Bi 10.171092763960443 8.509202221997914 16.734937556163892
Bi 14.06674431919187 7.546112496744327 12.103529982988729
Bi 10.194856889053463 8.090039371868714 13.702501068967788
Bi 11.66477671347425 6.173419072474156 15.55514170234834
