47
Energy = -171.32943908 eV
Bi 20.138576363637643 15.327585013107786 14.501982394625896
Bi 14.0945433959784 14.3686057383045 21.207199915868824
Bi 18.488181966918212 10.183698719851595 14.43618741707913
Bi 17.31001712477316 12.672311471267678 15.779389228162778
Bi 13.608710767455193 11.534953679020777 20.159885156612212
Bi 15.93570729276795 9.983467747398539 16.089251913836808
Bi 20.983008287057494 17.782583784903576 16.08148288410137
Bi 18.66124946619613 16.081266726262513 17.075910849138335
Bi 15.04795059593125 15.026070001502264 18.353492220454754
Bi 11.28971272756652 13.291861856851181 20.982574813450928
Bi 16.991239268153468 10.939415707900427 11.808059177112936
Bi 12.409330741889832 9.022849301761822 11.996520501172595
Bi 15.387867885596474 8.358473580765617 11.737236793322477
Bi 14.964979540140448 11.933540307540651 13.906781499264644
Bi 13.375194447859466 12.689327761217962 17.27507835212538
Bi 10.843037900723862 14.20595631075022 18.069922141173937
Bi 11.990452416891943 8.344451275813643 8.993103422821521
Bi 15.694457294274716 15.99904510290165 14.858353778191802
Bi 19.04366550590218 16.88879914089906 12.146870896600543
Bi 12.219421823737996 9.430626823201461 15.656893752594128
Bi 13.99163282402306 17.529171189943476 16.911804673315622
Bi 18.185893401792786 18.963750058811204 16.18398259230946
Bi 14.426533414165352 12.283511189233343 9.929200365333868
Bi 9.552952341024286 8.053060858021007 15.993761787469785
Bi 15.026148312531816 7.861465299386907 8.73743133131961
Bi 11.97151290094141 12.057681692713931 11.7204034554533
Bi 16.985136771507594 14.810481671428452 11.128081389077927
Bi 10.776271061138885 9.512367289379183 18.407164917038365
Bi 13.593890002852522 15.277886950614638 12.713701967328266
Bi 17.037717242603637 15.446814047742123 8.13544732023604
Bi 8.972561162579744 11.82562925300373 17.635294374021065
Bi 9.684260775176693 10.892024186616359 14.795094306600134
Bi 11.232387797395237 17.204625411982086 15.627505555127573
Bi 13.743350035728922 10.381046077474272 7.64108107631583
Bi 12.779144337150196 18.22896856597487 13.17958259301919
Bi 16.83843329994717 18.455011125838123 13.499305606277213
Bi 10.852728499494352 15.422357304158702 10.004568943112483
Bi 14.040768026133419 14.754737571457694 8.138068644796146
Bi 9.729138081425981 11.14353946181708 9.767108662245247
Bi 15.172202579620144 16.9777087735436 9.934382071394472
Bi 10.637837732083264 18.452923428388445 11.025184380399905
Bi 11.406541042955228 14.302093711031617 14.65609038252528
Bi 10.061979315069559 13.175824770816801 7.652882272830021
Bi 9.207987376178089 14.372308338064611 12.44593089908215
Bi 7.957113878247751 16.15419426585871 9.483816051452855
Bi 8.189121035144202 17.259167447553498 12.360994143334917
Bi 7.426716434908966 13.094024503194541 9.133217626144717
