43
Energy = -155.96744503 eV
Bi 14.886541018710675 14.649650135312054 5.459361821701913
Bi 12.711266356276203 11.301760134965647 6.85270600208023
Bi 15.444101590332542 17.50262034197348 6.523526652754288
Bi 16.79913341140663 13.695619381149855 7.594709845097655
Bi 10.27445186890179 15.25289949612156 9.206588133553476
Bi 15.63880438094567 10.756859765673248 7.263226965782128
Bi 8.913871437446385 9.799873961166368 9.47096852093997
Bi 13.575805293449697 17.129958240759752 8.890331265194366
Bi 13.769496692199203 13.918729611007414 8.223993627692035
Bi 11.938892802333054 10.30444970529042 9.63285574028536
Bi 7.412206279396507 14.49904810370708 9.883401209968488
Bi 8.8677275824976 16.552679280184037 11.583115372762592
Bi 16.450268974102524 16.560966660760755 9.249156775180463
Bi 18.01236286798675 12.06946440789713 10.74550899726805
Bi 8.427448645334492 12.043624634862644 11.493603771309935
Bi 15.83306248278283 10.018224872119426 10.265018677289302
Bi 11.346511802222945 12.983441944393963 11.068973360478823
Bi 9.765641765603231 8.269324220629038 11.963472149141172
Bi 12.660044484777504 16.430860054767425 12.376550100983874
Bi 15.179044036681754 12.688030120084097 11.587674708589915
Bi 13.704650244628569 8.57627359765807 13.856117484178183
Bi 16.777632968006888 8.62630408268892 13.84787241539859
Bi 15.282787883447677 18.013415253684826 12.681825156861562
Bi 9.153160900606089 14.60312116939903 13.997765862351319
Bi 17.201991029595742 11.648468901122177 13.689926839815833
Bi 14.282171872381824 11.181554312953942 15.888750084837275
Bi 15.065799905619308 15.3472664131836 14.144229017141223
Bi 7.62609971427999 8.376390225609889 14.15535652164291
Bi 11.604214792093277 18.209538725615026 14.6612869730798
Bi 10.870587289495715 10.383155756108279 14.001186327703849
Bi 13.749189145508153 7.630757978254716 16.725336075886506
Bi 8.1459635522671 11.323907569971778 15.116035294061582
Bi 12.035155616753752 13.582795501727011 14.432333334128426
Bi 10.125002604227943 7.960021567648373 15.902000831879892
Bi 15.718526648389384 13.60305263582698 17.399847114969106
Bi 14.470041893471006 17.936614650335684 15.6577258406974
Bi 9.695933365009429 16.509956953099593 16.33848371889133
Bi 16.408063358159513 9.192179573003004 16.85190696872627
Bi 9.394933932302372 10.310689466304066 17.744949349793742
Bi 12.528513675685629 10.174225353875366 18.2438317706308
Bi 10.900393434776177 13.812898997768714 17.291095885150735
Bi 13.36566589809003 14.857991698208224 18.779765274238972
Bi 14.480332827544395 12.204830868854943 19.75112448560774
