42
Energy = -152.71740676 eV
Bi 16.40674668189852 11.306790125616816 8.746048818783466
Bi 17.92360192063896 10.266611552181882 11.248981339956767
Bi 18.4519358234209 15.036207547703638 10.509366760730513
Bi 18.28903377920451 13.342966332949201 13.056643571400679
Bi 17.371758133991754 7.352383564934413 10.506137223084139
Bi 17.206313837517516 17.101061855574265 14.72094396548796
Bi 16.2874596541321 6.317365913477444 13.228948397454204
Bi 13.827275206024261 9.832379710306386 8.444381950038556
Bi 19.628335468190283 16.113569630676995 13.080861096325249
Bi 14.063417562967556 9.992737816774774 11.756318362151204
Bi 17.460556024836873 9.040923230036604 14.11837666317976
Bi 16.332336241937067 14.519317025543467 17.533143026283707
Bi 14.576922510558376 13.157660154205168 10.376757779811104
Bi 16.466181227209923 11.752990808366901 16.04884497382936
Bi 14.668616579463965 17.872654337923862 17.405927290523632
Bi 14.39604271074936 7.141386964698581 10.802902420193895
Bi 15.769039644231897 19.184969681558158 13.043519059101998
Bi 15.574843780193575 16.0544555068342 10.74877237742142
Bi 14.555544576712467 8.64187031782197 14.595273613024736
Bi 15.563044924124721 14.79770983982483 13.568915273671031
Bi 15.784978582534114 11.9370618222446 19.01428688760039
Bi 12.317667364556227 12.524734922163892 8.45419075108955
Bi 13.517889307262866 11.904441029594505 15.076980309751203
Bi 15.00437562606919 20.42090819606595 15.757923397391192
Bi 13.458565780868378 13.465137117281047 17.76250303125199
Bi 12.858478785049355 18.085828115459734 13.015610402549163
Bi 13.016540974732948 16.168518346455624 15.40703297897057
Bi 11.641181800312404 18.44022103362969 17.353961051577457
Bi 12.053960068851035 14.746834335877066 12.044877848988175
Bi 12.072602739969897 9.87878248747036 16.913001731863258
Bi 10.007804457765562 9.131047338281542 14.818852533333775
Bi 10.993228638791594 9.764720955400914 11.947719184640334
Bi 10.251148318074653 13.46076036460382 14.471712089257133
Bi 12.013216045100085 20.337445223955996 14.986701536273335
Bi 9.459315353838603 11.394313794175703 16.76788989737858
Bi 9.639078219658836 16.08105001615991 16.025198800696582
Bi 9.791485765782571 16.60821833992505 11.221385065636925
Bi 10.316510929479042 12.517487801449171 10.798656626269754
Bi 7.203629220309008 13.6551683039399 14.218632979175016
Bi 9.177644412988647 18.052980162453004 13.823442470368263
Bi 6.456729036476647 16.608174832864798 14.062977350011733
Bi 7.162063995216039 15.007255255231094 11.532500825163705
