41
Energy = -149.2262725 eV
Bi 9.178184305032918 16.179346987543195 9.905733469089284
Bi 7.756702279215449 11.599386710050188 8.828326595126804
Bi 9.207463260523538 9.01152034067304 8.766970447497918
Bi 10.33389817909236 13.694113289955185 8.559913882243093
Bi 7.457163845794053 14.795626701141384 12.029099725230205
Bi 12.031663570208938 10.262022690305196 9.419384903763483
Bi 13.440901582274423 14.49735513216029 8.45720580070096
Bi 15.658506569970719 16.75453821742284 10.870624086623323
Bi 17.571843807256627 14.700751215944692 9.57490249549302
Bi 11.009499242323342 18.857297765013243 13.881156336997906
Bi 9.57357382701118 7.808631838102676 11.589358644814714
Bi 11.606175240500653 16.60936603959183 11.816323416724538
Bi 8.088040526741889 11.806215473381044 11.787278966422367
Bi 10.016905502194195 14.80594151730669 13.738511330020755
Bi 14.529193014191867 11.707389803254811 8.107795646625487
Bi 11.07483275797028 12.524993702339318 11.309629597797993
Bi 12.580553979443616 7.826785927152251 11.197879799485074
Bi 16.301560046579255 12.116114052811906 10.568745896210169
Bi 14.095038683199272 14.176733430859583 11.432726611934845
Bi 18.079302810778387 17.233541906738505 12.729905824881255
Bi 19.198071912016232 14.4485712033406 12.172197823205176
Bi 14.006084488429636 15.723571419569454 14.888628383946806
Bi 18.117525270492024 10.630156244546061 14.5978181892855
Bi 13.731424521923563 18.822537249069008 15.249004055268474
Bi 18.04423320289007 17.33021758711464 15.812113220807898
Bi 17.05718561859491 13.468789567927658 14.139154145234963
Bi 9.560304896591742 17.160566606081208 16.00390757773396
Bi 13.855910744624833 9.404412505183352 13.683396561107735
Bi 13.292577892008556 12.413971580986589 14.683472543641614
Bi 11.942098900670167 18.467653794317478 17.637459128812132
Bi 10.608556642007361 12.17821188678414 16.047115819679274
Bi 19.26940814313661 14.532437686916051 15.949037087192588
Bi 18.474485206906166 10.997154705817225 17.59679501513256
Bi 15.651824536421245 16.17788371223136 17.37844586836824
Bi 10.703377376527389 9.957961121045859 13.61116350278433
Bi 17.54877503032533 13.838969635108377 18.350207687930737
Bi 11.82024871121729 15.400628030892966 17.070117544524138
Bi 16.15690774209227 9.319254873827514 16.562392275958842
Bi 14.408477013786014 11.627532465710113 17.43840178022282
Bi 11.830546572889531 9.980229246655032 17.84688900660541
Bi 12.005394397329413 7.950525986697434 15.576401417733877
