47
Energy = -170.1183955 eV
Bi 16.34452481838123 9.700136409336258 11.618873514572174
Bi 19.88517565859114 11.977580681395553 14.209692177280266
Bi 16.08634895289325 15.17099305841853 19.0321713044871
Bi 18.761770577612022 14.817209698769007 14.36390810275698
Bi 18.13022201677443 13.176355908977376 19.98587919108854
Bi 18.450363151212574 12.37212809692252 10.996767019932756
Bi 16.378697007138097 12.929125187597318 8.582601522381527
Bi 17.880034405128704 15.216792125091406 9.921699989140329
Bi 17.688944232378816 9.850756503416722 14.41129589901717
Bi 16.064318577018668 18.55245353735901 13.343483701440842
Bi 17.098883260742973 16.407806439011335 16.450915655480514
Bi 18.92070968952888 11.493590472993091 17.536269223380458
Bi 17.04764602644491 10.353482201436437 19.764420751783838
Bi 13.616138078345644 11.069373296820887 12.006567849026558
Bi 15.174820774069588 16.831507419477795 11.012404015016907
Bi 11.561995023453164 8.073162267111314 16.411833065715143
Bi 12.20697469154923 13.816019181207663 7.511745837028495
Bi 14.243251937586551 8.02088122294443 17.83597874874984
Bi 13.274957140064537 19.462172401199584 12.356881411525436
Bi 13.318479375139237 14.449102410885494 17.84068683762576
Bi 14.088775374351437 16.613877088985635 15.737204384651934
Bi 16.428759344710283 12.18147081319112 15.929275266005918
Bi 16.496486515895587 14.01251091635959 12.536608562050569
Bi 10.829021125581697 17.556337115453 14.470260341810336
Bi 14.536939919629997 11.064868201362085 18.204890685294952
Bi 10.060002603984424 19.182761853972693 10.602040747465722
Bi 14.931060712408518 7.139414023430952 12.60439479555012
Bi 14.111205199054297 9.042589542834916 14.947523661183874
Bi 15.712736051330257 19.833957037851736 10.59968790407513
Bi 13.232578267249956 13.76869236415074 14.818123087242626
Bi 10.268945700639074 10.784790820904302 13.457981915172748
Bi 11.786824438210555 16.750565782831966 11.458007306838677
Bi 9.696243371902124 20.332370962492885 13.411869044225229
Bi 10.386882933333476 14.327763403273755 15.941438796435463
Bi 11.538415020702608 11.170745671671469 16.24044713913703
Bi 11.589473478916515 16.68800447763665 8.213967957315985
Bi 10.276312765927466 13.346318706195587 11.155710864676507
Bi 10.581607875094557 7.855727889640123 12.68771298544939
Bi 13.818535044693476 13.53645118138051 10.133259407686174
Bi 12.858380460246432 8.362854914078111 10.733144030500071
Bi 7.431846913435642 18.834868277071223 12.042469715961632
Bi 8.445399495774886 13.852934894141042 13.58346733106009
Bi 7.943494821905271 16.822277263944958 14.283345351457035
Bi 9.421965184774347 14.62655960037377 8.436383020036995
Bi 7.196741503450774 10.395254452772965 13.126008222450857
Bi 7.88916174445333 11.50766481103468 10.381866543825161
Bi 8.156857050061578 8.516647724363667 10.917743426780849
