46
Energy = -185.69919749 eV
Bi 13.078632721104315 13.238264939976116 8.209696007669198
Bi 11.245879018771694 12.105236210074452 9.633900209985619
Bi 14.313404985216108 11.219089408013408 9.37673346845391
Bi 14.31221225296849 15.559258946347667 9.137067139969547
Bi 13.97921363427739 8.63111058529736 9.442034358999594
Bi 15.15520302336103 8.738817694794633 11.797254452523484
Bi 11.37465729980975 9.45392291731805 9.73971797843483
Bi 16.4754987685343 12.029666263226389 10.442370383627308
Bi 16.44582418835472 10.7942475072688 12.631981392946487
Bi 16.266494774510516 14.531634895767224 10.544262476929855
Bi 13.129651533506678 13.899622417716479 10.812463579446936
Bi 9.573214406071626 15.60195024979563 11.318513545798142
Bi 10.664858759860143 9.203239086413443 12.252081155218486
Bi 14.665226010521744 6.650711603277468 13.166057180014121
Bi 13.006793933802376 10.40044056085498 11.71123808918278
Bi 14.50033689691638 12.6071820044601 12.57156211289619
Bi 10.690876206398112 13.386361335763239 11.7747420812487
Bi 13.284862536361695 16.483610907600468 11.411181843008517
Bi 12.60579196494737 7.574902140381269 11.835154884170379
Bi 15.279514022492558 10.460670699734104 15.322330798876962
Bi 12.016766099010258 13.056477826801013 14.023190427857838
Bi 15.545016181143966 17.44144176886319 12.401110634294435
Bi 17.775332831775476 16.149616412232486 11.80161593021125
Bi 10.993800824256875 17.649128772111073 11.501612821133016
Bi 15.859159446194127 14.834987109063945 13.249360530905694
Bi 12.054560043682619 9.991060019273514 14.334234428699483
Bi 17.729030154723944 10.84053615185702 14.823548987542198
Bi 9.688050470365852 12.66538353855124 15.262924009930927
Bi 7.268312724936909 15.419187552699436 12.487314962774741
Bi 9.299498425869837 16.840197393401183 13.680253718755695
Bi 13.831402946451544 8.31665343885332 14.872985118723046
Bi 18.099859344660214 15.477463285065843 14.441683393521512
Bi 13.845366617401858 9.480408060920686 17.327285512880696
Bi 15.904555930678669 16.88444643286677 14.891343599372851
Bi 10.25647605369762 19.17292550131246 13.537187617902594
Bi 12.944040980568362 15.64052804337213 13.869980700010336
Bi 13.511135243941688 12.09177155560141 16.12151361038668
Bi 11.8679513474332 17.7301505438886 14.881224222251548
Bi 17.02270136118176 13.264111244828793 15.228962258921332
Bi 8.364389600239837 13.100618127434847 13.040104744503385
Bi 11.568316016218915 10.589057269507947 16.879359981628024
Bi 14.167184964322432 15.508789090506001 16.21406243638802
Bi 8.13317695293037 14.899319849997026 15.128610522179544
Bi 10.746203706313336 15.16148787267964 15.3834534229694
Bi 11.988085050976268 16.501656825011004 17.20064179046657
Bi 15.345747362204449 13.52777894544742 17.20871674432506
