49
Energy = -177.57576338 eV
Bi 13.974389782178832 9.32443245868969 19.3261727840977
Bi 13.25775297814093 16.953886173225722 16.43486955399283
Bi 18.71713423892893 15.013694644767375 14.821201049726186
Bi 15.710955539863486 11.823672194515435 18.918905614018026
Bi 14.18558527003326 13.489334169168798 16.782356686526736
Bi 18.049095581042874 10.507799874742245 17.411802532771674
Bi 15.335895945239521 7.084412131154864 17.77409194596821
Bi 18.753276524350724 11.928149595515936 14.759510540182912
Bi 12.852317777184917 19.624082006140274 14.901046895579295
Bi 10.356334534032879 16.178631996380982 17.020160050351617
Bi 11.264826087415603 9.079187240892466 17.879747520775297
Bi 14.955351884937546 18.59941826796053 12.823126769496444
Bi 18.419521639027586 14.227527998031912 11.889906582967678
Bi 14.275534949712851 10.513443406816876 15.78532134416485
Bi 11.536375443453249 13.232698088012324 13.996059394886181
Bi 16.215670021712505 13.462876809310298 14.062095686535164
Bi 15.895846292896735 9.894632598270888 13.116009605393259
Bi 17.09779474302054 8.285256654483643 15.52765052508024
Bi 11.176550723778032 13.15666543772072 17.012518325198332
Bi 10.844095535204913 18.142725741457397 13.065686074516233
Bi 12.743903175178213 19.44304587798658 10.957024280858546
Bi 12.439324337931302 6.3184431396757486 17.19170334817955
Bi 13.14212100539703 16.121144042694326 13.508893619041936
Bi 9.363313546787655 15.352255028416959 14.246376115988664
Bi 16.181875923938996 16.00424629805464 10.71439893512487
Bi 16.674348388574803 11.689301060590806 9.975606715326343
Bi 14.459618071503646 13.494833561562393 11.060902281041132
Bi 12.10104040274639 18.098998438748588 8.292375926431152
Bi 15.354755183948887 7.39165202921523 11.260554108806437
Bi 13.420288131086611 7.310090153195174 14.330504799765215
Bi 8.352921460313613 16.6296717870451 10.925025412892703
Bi 10.448969819074165 15.5934876601607 8.965947110591433
Bi 6.6112239981607175 13.205302080016176 13.409101417750414
Bi 12.327628263417422 10.252517996768683 11.205840007093627
Bi 16.67187479578452 15.663003965240204 7.70504008992243
Bi 6.794983108227264 10.395602943108186 14.512681579318185
Bi 14.577955950909647 9.54822023592131 9.2434948083286
Bi 9.013950541984311 11.4320593021323 12.662515384753254
Bi 6.87204455587549 14.24966377221637 9.73853256609687
Bi 12.33636897755439 7.1389532086723735 11.442487214292955
Bi 11.51870266938731 9.713259848830145 14.852863586202496
Bi 13.850705579967789 16.16316022791371 6.751123344826129
Bi 13.076322084726261 13.392440640359279 8.249272597827494
Bi 7.746819652309084 16.55286903470056 7.940974533138457
Bi 15.900392048320334 12.749085461585805 7.1824228765571405
Bi 5.418198689181617 10.804868735592388 11.82655960847285
Bi 11.188087891298778 10.792745092744369 8.412349731172817
Bi 8.420058532931597 12.060429772569169 8.241445892484617
Bi 7.871529966201195 9.843943089857758 10.254335826254891
