41
Energy = -149.22233971 eV
Bi 7.196797691254612 7.405085014824233 12.37742895887127
Bi 5.622878878194038 9.652170551257699 11.084045180965933
Bi 8.38912258911775 10.912972006081059 14.225499582705437
Bi 7.761000220440947 8.17805302966101 9.50931919941169
Bi 12.040781041874112 9.268486352656007 14.747579517388013
Bi 11.889818549617704 6.9726407787961815 10.923108974560773
Bi 11.393860279173872 12.675338004983898 16.00721005157874
Bi 6.9705236137672 12.298281250430131 11.955651576548547
Bi 9.746026795036418 9.007179880131538 11.723132872955041
Bi 8.403046631853645 13.429457121722333 15.905991911955923
Bi 8.669149507029042 12.004785813403156 9.43592281919845
Bi 13.666938302585162 7.075308952872919 13.318104110831264
Bi 14.018116520081696 9.326543771779606 17.148321174974214
Bi 12.568354413923066 9.617612753353907 9.1788107715526
Bi 9.903611934558926 14.61388584423377 13.45182272044209
Bi 13.333395010907413 12.068115344084756 18.337666549702067
Bi 13.83766222969765 11.504993402547383 13.462049818695686
Bi 11.387643071591441 15.482085423582134 17.376253516566806
Bi 8.4046281548092 16.44783339328447 11.550900310231196
Bi 14.821108218358905 9.331575363897747 11.40016928789283
Bi 8.233856511736494 15.012516086125807 8.832831678681023
Bi 14.292651575172595 16.483751282355765 17.08629400982348
Bi 11.434188964155918 12.102005661159694 10.738813383456026
Bi 17.474814468579222 10.020638681291393 9.809520164346523
Bi 17.174860587485046 12.507153638621697 12.488119344265487
Bi 10.557876143046808 17.207619221801412 14.998483077992583
Bi 14.780719988218516 13.636065530468889 16.133983985015014
Bi 15.33041618930138 10.70849345198405 7.907005406600342
Bi 17.50290571893132 12.28867565385549 16.631336704952254
Bi 16.116764387196696 10.04669070080194 15.03366002455666
Bi 12.166630932085296 13.303335673868782 8.024878662615828
Bi 13.28315006982083 15.248521104907187 12.35055439430863
Bi 19.197156845360603 13.682056877687097 14.490504276617676
Bi 11.03083211783355 16.100810959625882 8.181700574418011
Bi 16.84449249171011 15.392264093049667 13.657844939848507
Bi 11.329182979538082 17.277638116023304 11.003759480831397
Bi 17.872248079420203 13.284570030372539 9.575364338179856
Bi 14.794001382174814 13.232290225009214 9.74850952628893
Bi 13.551417577255762 17.591275797468505 14.31278359544043
Bi 17.8064344186188 16.25128525090594 10.903206398864102
Bi 14.95826922897355 16.374532026835624 9.975699334097447
