42
Energy = -152.73937273 eV
Bi 15.163674451447893 14.073841128266917 18.956518430944485
Bi 17.106180603699304 12.403585341721993 17.34701735207936
Bi 16.656184812250594 15.37150604912626 14.596130892466492
Bi 15.298039044047975 11.045686411765988 19.396615063994172
Bi 12.979293986866292 17.521627435366753 15.216918862123686
Bi 19.03571484670195 9.305444217894816 15.518384537688563
Bi 18.448225554218666 11.42176870678383 13.328375670322103
Bi 19.11403838440366 15.121149816900946 12.795511492374024
Bi 11.096494876657754 17.80297371108451 17.64003267835994
Bi 12.393365346842701 11.05361973399944 18.430407485940176
Bi 11.027152826077478 19.704414699194924 14.353597638658647
Bi 12.902077366087685 13.676607072295688 16.923904492901407
Bi 18.243421741573794 13.392237368018582 10.35289951625347
Bi 17.28860245292978 9.357321750717615 11.419123122892312
Bi 10.705346346076208 14.940344074182356 18.581057275406906
Bi 18.73388667819404 7.336231424584657 13.265201864602544
Bi 14.779986676570791 14.914871008960338 12.195286497087967
Bi 10.986416028609195 15.459065754924469 13.96231428064876
Bi 15.67708992563332 11.90493130466526 14.6477010351978
Bi 16.12842346705146 18.252555216519774 13.552551889481261
Bi 15.942350793258457 9.02878101140061 15.852606996230705
Bi 18.372408976160937 17.801321927393836 11.48972343131166
Bi 16.51318584717088 15.940467992622926 9.899675459938234
Bi 8.986837379452004 16.02073943953947 16.308645224628524
Bi 14.255237681059697 18.384889256375004 11.064902848526835
Bi 15.355502130448421 12.327021248858573 10.596489299525295
Bi 9.84818930975863 11.497121253818863 14.406320851814794
Bi 10.069719183368754 18.763093593847458 10.29470612367781
Bi 15.596209019870457 7.520250532410912 13.226506997483336
Bi 8.045006571648395 13.733834440799475 13.12735389571237
Bi 12.366248407212499 12.182706368044508 12.74514254151266
Bi 12.145061197724582 20.55846227847034 11.613232529503302
Bi 12.736679952832706 10.126981472116125 15.532931967144922
Bi 9.063720383857497 17.756696821547873 13.008437523903885
Bi 11.988828173557483 16.311421329618632 10.839553162249013
Bi 13.511844787618042 14.304529124723425 8.859411301521211
Bi 12.336220241540886 9.236900304045138 11.613318511397862
Bi 7.504380244041414 11.593605147506729 11.028588907119106
Bi 12.359624201365301 7.546333405578786 14.109939524716566
Bi 9.007785117001527 14.132346746510478 10.253381959761173
Bi 11.386139985055284 12.282111202296804 9.828373636609639
Bi 9.318282444707068 9.363680320151353 12.294284670938147
