50
Energy = -182.21653581 eV
Bi 17.992062866999298 14.27676724446207 15.741307730404577
Bi 15.938976729743334 13.319048555691639 17.83592304962311
Bi 17.38966929042609 16.803012419462107 12.248671389223935
Bi 17.24355226399781 17.232587647640532 15.271660609207947
Bi 19.946390251962033 15.613449167725614 11.06926095638836
Bi 19.712570727418445 11.989275055626338 13.787486179765047
Bi 20.433473638569023 12.600600800401628 10.951725059665998
Bi 9.722296899958833 13.5632424717491 19.723180928326737
Bi 13.268160273227236 10.36983201611163 17.939909384797513
Bi 16.32186506248838 10.300983064006907 17.62492154183282
Bi 17.078042361927363 12.347080244390705 12.097216714714381
Bi 9.676612406362198 16.454327486981697 17.137137693121815
Bi 15.631214870793979 14.987736364908658 13.989769806447628
Bi 18.251126268413614 15.87659225981422 8.543153128449038
Bi 13.292720576472078 12.988927647486694 16.271976845824103
Bi 9.721297100510721 10.690655058282694 18.749989441180826
Bi 12.52019963555673 16.2589777522839 14.74850655241933
Bi 12.091671725292802 14.950323569949008 18.336906141017693
Bi 6.691753905594104 11.130261825168072 18.508783221542753
Bi 7.124323363380887 14.157514459055692 18.15990677151123
Bi 18.735107686550194 13.126107376362533 7.3531981668976085
Bi 18.223706186428917 9.535486829621894 12.772809349666401
Bi 16.457571787988424 8.632672214964908 15.049835661004131
Bi 10.827189887901604 18.74632127939147 15.343617381790478
Bi 12.719348251500474 8.169660392056715 15.902079060288841
Bi 9.695618807039454 15.042957533448932 14.421297869936652
Bi 13.88142884188048 11.831549319302189 12.210506094942776
Bi 13.20387523032581 16.35006427562208 11.702209321338982
Bi 10.015592841689134 11.429546008332016 15.769309173706352
Bi 11.162670511878536 18.501765261035075 11.09744692237191
Bi 17.99500879993619 10.989707136246562 9.452957574254969
Bi 14.783982973812016 10.333022596023733 9.709452044919162
Bi 9.677040122330967 8.387068122865056 15.865541527092025
Bi 14.011189785744227 8.944216904134116 13.221081722724133
Bi 15.44068718616736 14.629233234600198 9.113912091104384
Bi 7.092832943781587 12.334405631522568 15.721355717801774
Bi 13.325821805424225 16.17952563213514 7.478521750265756
Bi 10.75418341215039 14.652138878090465 11.01729585413388
Bi 15.945118036281077 13.725918091268994 6.278593845685611
Bi 8.93955782870745 11.367879441288048 12.414468687468087
Bi 8.96075932056466 17.765601268768737 13.134185390126852
Bi 10.53004952434446 16.60402905075436 8.730687683696713
Bi 14.195101508138551 11.335183955286105 6.8351402661885
Bi 9.34324343341559 7.174351972983761 13.101134563453108
Bi 10.909554548165929 9.201086823296695 11.38522378164721
Bi 7.024195250863621 8.960032358317601 12.211292941920822
Bi 12.028512055565347 13.512023237164255 6.6400623352859665
Bi 11.388704489111005 12.181657044452418 9.320241530240564
Bi 8.314242472164986 12.013679148646421 9.450777288433537
Bi 8.445079889670856 8.941699614864707 9.48759129914774
