52
Energy = -189.23685299 eV
Bi 18.891725467121717 8.073903227084056 15.336678656267582
Bi 18.429515645742196 8.833743864002313 11.233798705016453
Bi 20.199114423748224 11.256960467203388 11.39676465379118
Bi 17.20755214856317 10.166580359891407 8.751916749551423
Bi 20.109453414913336 10.445060147668519 16.733339279113462
Bi 13.591956535646373 8.110405267370961 15.618047143856733
Bi 14.209971812479434 9.798115183155403 12.186105090396309
Bi 11.602650229925649 9.471544111306775 17.478040155860754
Bi 17.361057425380245 9.393168568799451 17.58674471900511
Bi 17.421646228270898 10.391794149730103 13.745372059891471
Bi 13.696509265492715 11.124215061212924 19.094621913414727
Bi 18.07209205522462 12.840400567889388 9.936314491972448
Bi 19.672766563334694 12.483800568742295 14.439441025585166
Bi 14.180830489650575 9.777081226461917 9.105964226698143
Bi 10.993295205907824 9.374047350032988 14.506560490661217
Bi 15.640889815490306 12.527424439514455 11.822147856709572
Bi 15.189904945674076 14.08357748960119 7.515985310919767
Bi 11.332692559379428 12.859575362991956 20.156817073886675
Bi 17.439788337185078 13.690095748817178 16.335439439539947
Bi 15.081445263236828 10.772043115239121 15.990661221209107
Bi 11.925153227891707 11.787294370721375 12.82071822255378
Bi 15.20349290829154 13.80849761757593 18.96629072951501
Bi 9.98985891847005 10.512538787462168 10.771400231710885
Bi 8.33807760795392 11.079350963307116 16.819345327408204
Bi 15.161890467793643 14.161453023292525 14.34064215609765
Bi 17.095714383866387 16.09442239194348 12.97293424410888
Bi 10.437479355024642 13.397338430488205 17.269053761771058
Bi 15.574360765898769 17.783496228430835 17.23632473880655
Bi 15.886582815218725 17.024764120825388 8.177444198703897
Bi 13.24587427107058 12.70451507041652 9.470194269260986
Bi 18.03830611582939 16.684104533245787 15.806155474753655
Bi 12.922899688493397 14.978582972228164 5.667004428965005
Bi 13.559924671303298 15.481206281134536 16.99670976399872
Bi 12.924240545228624 15.475479638753377 20.28104998497567
Bi 10.673551564695154 11.756651856010036 8.059776322711391
Bi 5.957581637793918 12.885667284617565 17.182214086853914
Bi 7.219875876658924 12.605204267678014 14.430298020778716
Bi 12.513716828652345 15.89815095654143 10.2211638566206
Bi 11.227667388856798 15.230287147844944 14.06473163273252
Bi 15.774229667644356 18.78230661289105 12.642190719456922
Bi 13.715036279875585 17.882167670250134 6.193870558978795
Bi 8.09504927606692 15.209890929264208 17.81594858437025
Bi 7.472900118447331 12.259997088505255 10.78901660427629
Bi 14.066424580798094 19.33827214225473 15.10224375728868
Bi 10.92649336572189 16.901505881066008 18.191345994712055
Bi 8.228924307880337 15.484621083602574 14.774190399630903
Bi 8.345626889368342 13.730096589510984 8.170294036824252
Bi 7.8352467859957455 15.261018682543195 10.732493645944439
Bi 14.036252031000966 18.487783433174663 10.105207563092547
Bi 11.272595583750338 18.012686750975913 15.315445290218625
Bi 10.138548268458818 16.940782039061414 11.783950966641353
Bi 11.247952971514701 16.63728728494225 7.558105635886877
