52
Energy = -189.87023283 eV
Bi 19.850510357839475 16.551065992908924 14.861707987224705
Bi 15.051013691629956 18.90078623173659 17.18600246981199
Bi 20.20871840701347 13.513914908017522 14.690144652227097
Bi 17.709881038547067 13.728439508703023 16.45524677893212
Bi 16.555317388724987 19.39955044124972 14.540009427146757
Bi 19.064315173392465 16.77528642174544 11.903186355544285
Bi 17.38037273896906 11.429609262989247 18.539632573725598
Bi 12.374828015072616 18.844772884046368 15.743100033890814
Bi 13.921539415726226 16.23713005830486 16.268375171921516
Bi 16.551393027170725 12.87372821700369 11.807266744064533
Bi 12.722160656254522 16.334538235036582 19.07467436262495
Bi 15.713650706945327 18.218206964711445 10.561272781212681
Bi 19.458944073730695 13.727780997937503 11.725962974080284
Bi 14.142814810762019 19.523339603811213 12.63634194438499
Bi 16.582037990039595 9.717005536364146 16.08034275552085
Bi 15.688732134170996 15.449300304630448 7.729658955527682
Bi 14.796155370445199 13.093890178220303 18.286225441646785
Bi 16.912392752319658 16.435091672066367 14.012637101060351
Bi 10.410568289023946 18.015547598130095 18.004312831247468
Bi 14.212797008681315 8.516631557339355 17.64128367880336
Bi 13.4978323536306 15.6269800993074 10.070866652707798
Bi 18.08517814147335 10.304285521069605 11.130122835191841
Bi 15.201925891492227 12.335651212008877 15.27303031008065
Bi 13.412229113153703 18.235986433024475 8.523538827018953
Bi 16.72777197598908 12.744224760654424 8.7665321087781
Bi 11.716657346325501 17.005987151540157 12.42858520984798
Bi 14.376265533924247 9.816882634905182 12.629076978816697
Bi 13.511153466701316 13.9077954261285 6.42718290910665
Bi 10.910133496207553 13.818504961741446 15.971376852168433
Bi 12.270615562403622 6.233754163512344 16.816293023589182
Bi 16.90209060763047 8.113745728817383 12.901417330234372
Bi 10.73827751336239 14.006547513261925 18.991694415700426
Bi 11.122166375204012 19.19405088989872 10.384269005553172
Bi 15.68791826078577 8.642352341178107 10.141675410943702
Bi 14.054736774570403 11.360603869067146 8.172915589635167
Bi 12.233347944158076 10.432055570942063 16.396620035743357
Bi 12.431684632137715 11.41462991419812 19.25577803426825
Bi 11.089309120599513 15.276578091978227 8.082541752691986
Bi 9.279443654642101 16.343746715034563 15.657305693145352
Bi 12.255349235627838 12.06198296209034 10.552340364407243
Bi 9.460734582959144 16.664269255695416 10.407983547207758
Bi 9.213372281103773 13.720915575640502 12.618396772557192
Bi 10.050174895659854 8.360701361259158 16.85050419901842
Bi 7.960250097147392 13.793003174191954 16.753423917904236
Bi 12.556719886309146 7.436524549714039 12.225480024714924
Bi 10.551452162136258 6.707786452450279 14.369569098592137
Bi 10.207495250547893 12.346677298702412 8.354557426948684
Bi 11.169760444969915 9.206175473041329 10.133546585952132
Bi 7.808607189458681 12.361215633434838 10.247195266392168
Bi 9.241717566065791 10.918247872960544 14.007346204357043
Bi 6.78990723656858 12.704193743874013 14.109133987822215
Bi 8.408420086869125 9.560398837266 11.373170321100659
