54
Energy = -197.35744866 eV
Bi 19.943110619964152 19.149468670260582 13.175764562640675
Bi 19.66762127295724 14.931653967879488 13.881631759031006
Bi 19.453183612447077 16.49198978719544 16.578112528293786
Bi 17.897981214371406 14.000887174763776 17.555566788120363
Bi 18.53089931283078 10.743422102965893 15.82625375252922
Bi 18.03568167437533 21.374386492487208 12.209418150467435
Bi 18.693166990510623 16.849936438629154 11.67069374006703
Bi 17.32175477873418 10.540225609616874 11.998060259223134
Bi 17.563717671273004 8.370539644253759 14.114550186244122
Bi 15.895337036242479 20.322280936059318 10.245808231248475
Bi 17.374710516626134 17.880891669771707 14.297406246947753
Bi 16.146335920728273 9.49719171632005 9.321210178073834
Bi 17.161750933791026 13.253734950455 14.683289413088321
Bi 15.929084481840544 10.546108746497568 17.467371446407313
Bi 16.137457921608878 20.76066910593878 14.521832961734338
Bi 16.720888989107838 16.76628561835608 18.11626123788415
Bi 14.291781600620215 13.899837036716537 19.00576541846827
Bi 14.386263890252247 7.17510946869992 11.800156809692737
Bi 16.066401651894193 16.059082428067626 9.128781118319605
Bi 16.43472821992901 12.433464673221648 8.467657077348159
Bi 13.961610569756562 11.347889384703759 15.271353333011229
Bi 14.129239074542781 21.60474674609499 12.391265317007024
Bi 16.059099213287045 13.808220314421128 11.162831351937964
Bi 14.801591322252673 8.416644136251417 15.49878571600025
Bi 14.311758900738944 10.200882982220781 11.605138883093757
Bi 13.750112259498376 16.390716908068732 20.709455135512513
Bi 14.470033834676682 17.56239231161601 16.18832123791687
Bi 14.940259417910086 17.71349700220659 11.430748305078103
Bi 11.525494956224616 15.75694496933583 11.97089121204242
Bi 11.323372108091355 11.908246511497737 10.869348553763567
Bi 11.647146823058023 10.07140148560685 8.41483322775943
Bi 11.229846959923021 7.377374258749971 15.796445542892474
Bi 12.029138785341217 10.432879080554635 17.5098348786224
Bi 11.384581892603464 12.904225658124728 19.276759772308235
Bi 13.260047497719645 14.766807330249692 16.297892300715045
Bi 12.328860012184496 7.245768313211453 9.481460511954534
Bi 10.774506019942859 9.21236752421706 13.269263808170853
Bi 13.47683594192701 18.755998766932436 18.81072461537251
Bi 12.239005980211275 18.074178552182065 10.05128302309857
Bi 12.082202050249752 5.704641779734761 13.339485831559623
Bi 9.215641751137992 11.100787637716925 16.526580643677384
Bi 13.834704480474523 13.919655741494996 9.100971382252448
Bi 11.46344793819764 20.058441200290194 12.238329138966765
Bi 11.036812158170106 17.19212862599645 19.64682206281653
Bi 10.156766337688387 12.86718619062176 14.195989453632487
Bi 9.014885775402709 10.098780831283332 9.969116981796619
Bi 10.467338671346491 15.185261748480901 17.399885973571717
Bi 8.481993472296676 8.474013728187966 15.04447086189005
Bi 10.00522831870923 6.904116427614956 11.433939707449635
Bi 11.256945895611528 17.76419290012262 14.290340686978022
Bi 7.565404337240594 12.511812768444118 12.650002645993364
Bi 8.841446204227568 16.994859900132628 12.603402364075649
Bi 8.704380243016534 13.158393532256772 9.882290375168504
Bi 7.878194093338259 14.886663084445209 14.561548832382513
