5
Energy = -15.9243155 eV
Bi 8.054247786177738 11.014593311276235 6.569013751799708
Bi 8.461423397743088 10.331641379615535 9.574997885444896
Bi 9.560005224635365 7.508176352500764 9.437456085256354
Bi 9.939710355477498 8.847478993282852 12.098845658759043
Bi 11.441990939385484 9.827109997394299 9.680269033018197
