50
Energy = -182.13980433 eV
Bi 20.24422170069683 11.881324710062206 17.034828044483575
Bi 16.744764576110487 7.911245359723242 14.663162177759258
Bi 19.003993293986056 10.482992851277343 12.679871825063975
Bi 16.768741315240803 7.1992796381209025 11.670780723125644
Bi 11.433242754578377 7.471198272412163 10.482966967165444
Bi 21.045790644665782 12.246998331047243 14.097429380361737
Bi 14.231723876372802 6.8271103175342756 13.36160270965984
Bi 14.144040008473683 7.944626087016831 8.835130665878433
Bi 19.512671726920694 14.567135445411905 18.246399978030755
Bi 17.266996284493796 11.05975788470057 17.188765681786133
Bi 15.813566407758302 9.8449319837644 10.449202179991683
Bi 19.598512800351212 13.310288425851791 11.63972266003636
Bi 16.38308762711181 10.895606493672496 14.267598167004891
Bi 13.917854190923183 9.496049624964785 17.17885060659063
Bi 16.7949760574225 14.084597059802112 12.428605349559435
Bi 13.159954079752241 9.424777767810944 12.168752347587198
Bi 9.760236313198968 8.169274025410278 13.174208030005252
Bi 11.536578513231715 9.296179370098042 8.043517450416374
Bi 11.366040523043756 12.169300830030624 9.055401692890243
Bi 17.23276920433325 17.16128914918549 12.24588541644297
Bi 18.450558540075768 14.973640458258147 15.447781775333885
Bi 11.646600087618893 9.760213192753058 14.990258978911223
Bi 13.898435102747609 13.373671731326741 7.841016410831834
Bi 16.50091864316497 13.996121223452098 17.58640430931058
Bi 13.42112160560814 12.375397907436769 16.190382583109745
Bi 8.596431415303645 10.93191783681417 12.667525141149856
Bi 11.578244908561208 11.113491709655525 18.335210675768874
Bi 13.222559993825971 15.330982594623345 11.452170762102146
Bi 11.18355985389717 12.536720363187737 12.136688624555962
Bi 15.687219844675177 15.00663258130872 9.72360750165362
Bi 13.003462864373777 13.747817892763637 18.93109177984084
Bi 17.01324189871228 17.692509336746355 15.268061127532954
Bi 14.296588770636792 16.32558497299919 15.366775542183351
Bi 8.942991285683389 12.010502747558505 15.560430361914328
Bi 12.066515564020996 15.78568152613229 8.635278580800996
Bi 13.87259344088492 17.87028516559393 17.92437138878745
Bi 8.885394158808642 14.014184089110904 10.634767534420577
Bi 10.560820145152697 14.55359939453544 15.080471012994437
Bi 14.277995349550116 18.17335972536965 11.92316956418253
Bi 10.250066095384039 14.857927733025447 18.10522327081902
Bi 10.413420956761463 17.25163805376764 12.882160530482233
Bi 6.582189561245147 14.80324536690713 12.534518649238699
Bi 13.321877730617453 18.588615656991617 8.986312194545794
Bi 10.827418438137412 17.869525903844153 18.03891812395168
Bi 13.559289213884151 19.292986501299726 15.186161001189538
Bi 7.522495297816333 14.765017469017515 15.40691735985103
Bi 7.48462110198869 17.698546583367218 12.115559977275005
Bi 8.784893089330616 16.91581301728929 9.420736744775464
Bi 10.656973717393477 19.132031250030177 10.37550892008579
Bi 10.5010017923931 19.177696311583034 15.28117790251726
