50
Energy = -183.11122082 eV
Bi 18.920188386241843 9.98765414797104 10.202965675811711
Bi 16.437385460067073 10.391487637458711 8.496298262986462
Bi 16.539456050261638 8.09629223800044 10.493465330505442
Bi 17.49777889128402 14.273199045490756 8.819995185360998
Bi 19.00096064231366 11.905930682887396 12.604441478960851
Bi 19.508484364303296 14.513448463431743 11.093082937350353
Bi 15.81522698544654 8.14424334245772 14.983085552322057
Bi 18.409460777385103 14.558935864069463 15.376195029122604
Bi 18.302635937211935 16.55834702313321 13.075217276777678
Bi 15.297290179497546 12.68871396032141 10.18164181463389
Bi 16.209586625571415 16.90617135818768 9.574426729491456
Bi 17.250313836534747 10.668675646291485 16.004471937304707
Bi 15.189773411908352 9.890021633542379 12.515382541784577
Bi 13.481863930402682 13.34207361062055 7.813252603571041
Bi 12.76976271961016 8.86860598026291 8.676307233728455
Bi 11.528336712023789 8.161061981225206 15.438745179030125
Bi 12.41517089747667 7.156155141037038 12.681213167677921
Bi 14.554462165426678 9.889165564321958 17.152835654039052
Bi 13.53101620991666 16.386877169532543 8.189914711397968
Bi 15.336512008685578 16.075915244866827 12.368266972435638
Bi 16.39276905806375 12.781567027095054 13.942384966982305
Bi 16.309090814119347 15.823325897494763 17.245316233146088
Bi 13.697344095347075 18.665800438977794 11.794172916516848
Bi 12.698014887867986 10.929300166934782 14.960729959119238
Bi 14.604805096871564 18.00197171317654 15.665688202000029
Bi 9.700202243986764 6.396331584858588 11.44138108760663
Bi 12.211087651113171 9.893559016637486 11.479106168789974
Bi 10.565225548062005 6.642797158064929 8.571512370047056
Bi 12.5399593267575 15.610487626881369 15.484995544977728
Bi 10.862268385164644 13.348996081036434 9.39073592063573
Bi 13.605732571275563 18.44160246590283 18.54685790537922
Bi 14.220315852352753 13.743499046116344 17.55491640585069
Bi 11.739619960607452 16.61169634899145 10.680074299053876
Bi 12.455949290647723 13.909089783327701 12.035165052205738
Bi 10.271390370899638 10.543654573197689 8.246562077609374
Bi 11.999165376743075 19.214373044402095 14.274231334810604
Bi 13.353702368879674 15.656004430349382 19.7744593977942
Bi 8.310065234360929 10.882056228388986 16.93232194878379
Bi 8.605776399200565 8.706055245205896 14.83275581419643
Bi 8.424676640917436 8.540694266300383 9.727488044442907
Bi 9.640082082166893 13.423353691771542 13.417501385224561
Bi 11.135447749201619 16.77098075458055 17.987481522686487
Bi 8.35151605146221 10.753187405618018 12.586289738589945
Bi 8.49798944453705 17.282346770872294 11.7593131141249
Bi 10.714559699100212 12.724804383719851 16.389450762195406
Bi 7.8197131532480135 14.472266636774151 10.927129520316777
Bi 9.779414610806496 17.23852641818494 14.592885974590983
Bi 6.406130824785201 11.868522786208755 14.757909691537467
Bi 5.990341720512149 15.897612077889857 12.892496072594362
Bi 7.466355835998607 14.699979427565696 15.260598910747168
