5
Energy = -17.03454796 eV
Bi 12.274804342174082 10.087420632395295 11.680743486658141
Bi 11.384305218101389 9.591603055160094 8.87425984391221
Bi 11.017749031242836 12.372409064214837 10.091807181990985
Bi 9.523015524153124 8.858073338549662 11.186678423310951
Bi 8.216873736355934 11.561039131158559 10.871940706882091
