5
Energy = -15.94811449 eV
Bi 7.943763150555997 7.717051327827404 8.663998076058732
Bi 10.981776360711157 6.961317583724331 9.521162345667994
Bi 6.668472046605835 10.632462950291465 8.263346651491082
Bi 10.316852426367953 9.357382389342014 7.817542307862766
Bi 8.783674236591418 10.065690284129296 10.337946328007865
