5
Energy = -14.84853873 eV
Bi 12.929881856292605 13.701611132854763 13.154103241863853
Bi 11.276204154667916 16.00764398262668 13.65066433366703
Bi 1.086601065954219 10.722253401899048 13.975974097916943
Bi 0.2303209118379971 12.932687382552837 15.200035748497871
Bi 13.540533765795503 15.633680095784598 15.417344152343384
