5
Energy = -17.03952993 eV
Bi 6.550022956037602 7.795100830930762 5.29543632433023
Bi 8.005596812837918 5.4230434755933645 6.381523857845599
Bi 5.498240823300596 6.418046256597469 7.8124384498548585
Bi 8.960272253820142 8.223922623546766 7.126580336048845
Bi 7.134066802761187 8.289387206015727 9.531046301738659
