53
Energy = -193.30874875 eV
Bi 18.11853736366656 16.34385096587961 9.252982946411658
Bi 17.79793352014776 13.3661738698668 8.448459154752014
Bi 15.656476807979558 10.444999213475905 7.909539571445321
Bi 19.57288602229853 15.350406688482154 11.693866069106209
Bi 14.692900515420485 14.945420048491304 7.494529710560893
Bi 18.101039618595085 9.388963421792258 9.491567888491298
Bi 16.760093538434177 18.93586532193025 12.131872701827255
Bi 15.212008014401693 17.292486342002455 9.783293449672957
Bi 19.830794867227556 11.828297275811586 10.139204030687532
Bi 11.914679688480234 11.821197537128713 7.988973043982654
Bi 17.500268973199542 13.07301973968459 11.606972286968816
Bi 15.582092773764286 15.520542531700771 13.980403810398851
Bi 14.618491404672197 8.167973820047655 9.669574022276297
Bi 18.267569070012915 16.999512143238018 13.901659550026002
Bi 11.79238570734008 14.80539384379632 7.057123513541696
Bi 16.17663838903162 9.790710572554094 11.825053786625697
Bi 12.758849963235788 18.865575757365196 12.358539982978593
Bi 17.970639337704405 12.334459420831413 14.893284853099622
Bi 10.788218830867487 16.724015134568283 9.493482272897364
Bi 11.706428856325973 9.007905085871439 9.711677171439836
Bi 13.025408330601355 15.942321716753884 11.524477616411703
Bi 19.551219731209667 9.67937119872455 15.094217058482222
Bi 14.898165758896134 18.485211674207694 14.496005441825039
Bi 9.016190107667045 11.794518062416454 9.062022656056701
Bi 14.409224739053682 12.717148422549162 9.62140645452486
Bi 14.70994741918587 14.614405082848632 16.846656647750965
Bi 17.881340151649415 7.78595351401745 13.424970118296482
Bi 11.238463168061283 16.07103244928157 15.366732429000812
Bi 15.455785717670766 10.778920658935833 15.72055687728696
Bi 8.374682100060447 14.77748501737891 9.722751577727298
Bi 10.730225393755646 13.29246040628399 11.687928645965883
Bi 10.363479534657799 18.77955649842161 14.235247795635466
Bi 8.78795856301543 17.694352647539144 11.87954371344033
Bi 17.163742877764488 8.277720371999411 16.32656429875156
Bi 13.272438976991111 11.784366412669415 12.996460775949947
Bi 16.842327319444806 12.591108485701184 17.747003172046256
Bi 15.136744167101485 17.329356291004377 18.19642102179108
Bi 11.408277317858667 9.378514002771622 12.665795349401895
Bi 11.919337266129816 12.654034041882023 15.656072803065317
Bi 8.304705094441688 14.83981559886755 12.83740218687442
Bi 8.810145304240745 10.938997874954289 12.029817624480833
Bi 14.244851921206903 13.591863721814573 20.648909179546642
Bi 12.213818946193095 9.99928981665297 17.217593626508567
Bi 12.189987788060447 17.876953640776986 17.669409422300472
Bi 10.5287695185213 13.200671339233079 18.86104622822323
Bi 13.66531155516535 10.709848963754757 19.820232192846035
Bi 8.450622187278652 16.47030273084043 16.5781069165226
Bi 8.970438613788186 11.639176159622497 15.451561677083717
Bi 13.06000843618233 16.38222441407335 20.190756060343002
Bi 6.974219155804845 13.813680394835208 16.283355353083458
Bi 9.3674296779054 10.485130317030954 18.263897817172975
Bi 11.669646271487798 12.213350006786337 21.540021048057408
Bi 7.886074071197956 14.731737920931055 19.031638530968937
