53
Energy = -193.10508109 eV
Bi 8.840991251164116 10.019219963485696 19.582812864779186
Bi 9.026467231029109 8.05978524989512 17.311780839721337
Bi 7.2171717003580405 10.487851139884905 17.078471234964137
Bi 11.065077427146715 10.355745203662778 17.472233160840496
Bi 7.689980487962867 14.264827928708598 17.73120819932074
Bi 12.228948811247463 13.434026692347778 19.98898877427003
Bi 8.72656916985245 10.975785035061486 13.030290686503538
Bi 12.809258171206846 6.971520047057559 13.541983271563412
Bi 9.367106794032345 12.377066981583994 15.775577596262664
Bi 11.560196096286502 9.95373865616234 13.755938527259278
Bi 7.46162517156345 14.94515480635759 11.438694684511072
Bi 9.63370134861496 15.076857106262954 19.954405553151958
Bi 14.122079171809887 8.533849148048718 15.781036364200288
Bi 8.00591202650528 16.91545573077315 16.425754082988053
Bi 13.844291871884728 12.379156446525869 17.4650924563816
Bi 17.128296121001913 8.225707766738749 15.386492338368848
Bi 9.340191371408208 15.550743201960024 13.76770193196465
Bi 14.630318192416365 7.7830769418849535 11.250151978608402
Bi 12.487653313125973 9.92290088426381 10.834485620318073
Bi 10.003486153562562 13.239144483215387 11.557573882190228
Bi 12.560080218283696 16.18884628714517 17.363210482309384
Bi 15.014035069033765 11.046283608083895 14.169219705601575
Bi 12.772248708664796 13.173708632048838 14.701931787967162
Bi 14.092294837358269 15.870257669232972 19.938950608872833
Bi 16.967778289778312 11.088850628813194 16.548652049827957
Bi 16.161485555082546 14.409596397201147 18.169235854398337
Bi 10.179433566328237 17.715642618746624 18.459072237538383
Bi 17.17017695713294 15.128387760197999 13.676234735662256
Bi 14.098274452223697 12.5293569233762 10.774946497407262
Bi 13.786079592599126 15.768251438814666 12.924832270722431
Bi 14.241964323365664 18.5302531737561 16.315620396896232
Bi 12.079593034436504 12.963942744744422 8.503235954894421
Bi 16.736945528426546 16.740702337236915 16.30369808179403
Bi 19.76604163541209 14.434299994523283 15.133595450545064
Bi 14.604041680403661 11.283274091623472 8.04755148177661
Bi 19.467203909013925 11.454620350236159 14.534163993795095
Bi 17.347338078301817 8.71805995265929 12.337551583900611
Bi 12.057582396885717 16.366552908673768 10.302087030150314
Bi 9.249832341435532 17.392723515783402 11.280855721757185
Bi 11.993622352079923 17.834567493568542 14.26769969221057
Bi 17.63234637892308 11.851665936003391 12.118077609566894
Bi 15.347316281822811 18.5463231237257 12.797603097888514
Bi 16.370985074678135 14.99303499322655 9.635314964753046
Bi 13.376278066957473 14.897312396481707 6.436817516702132
Bi 19.071620966288805 17.064928957622506 12.209355994325755
Bi 12.638303343837105 19.209933483864944 11.584760006022776
Bi 21.725826585714007 13.306474869862265 13.11443466134637
Bi 16.14951874545273 13.714556841825477 6.9109386179589265
Bi 20.250391697027116 12.596732731897216 10.59836524383781
Bi 13.299066551490663 17.641777092751397 7.754033977835087
Bi 19.392881327495562 15.377936776075918 9.705472641873996
Bi 17.358036980977975 19.07348433045245 10.591130756510697
Bi 16.320448377319146 17.57803989374854 8.112343113572443
