51
Energy = -186.06535039 eV
Bi 19.106166101375912 9.465224856459857 17.13753459982736
Bi 16.661785550765 9.507822746966514 18.823974166749014
Bi 17.752785596643424 7.792652147865957 14.96276875708865
Bi 19.795111470358428 10.784680680844211 11.55742455766971
Bi 16.23743176643881 12.820832906272736 19.04352347756946
Bi 18.120615617800617 12.45931099884525 16.681734342063553
Bi 17.2713483179287 10.367204833697782 13.350721638284286
Bi 20.3478893177265 13.609822086472372 12.600044203465703
Bi 14.247083740758889 10.36932354139046 14.778872167637466
Bi 15.184894703042795 8.004937939504781 16.65260374596394
Bi 16.53987047585503 15.712893988277221 17.648020017589356
Bi 18.993406269709343 15.42659122683366 15.928399658772994
Bi 11.893353404977447 10.628372501591826 17.208782385571947
Bi 18.172396782165897 12.020447704728983 9.319287683979885
Bi 19.547473947520228 14.706126472190615 9.838744070135403
Bi 15.304914683696527 12.122259157298101 10.584739814048197
Bi 13.611321634713674 8.146511227732686 12.802958129360752
Bi 15.085281884138212 13.382055425242706 16.27842511104769
Bi 17.52393733995096 14.461999270979195 13.452608641501106
Bi 15.839403382741835 9.13174872486812 10.932219741513157
Bi 17.754114496158905 16.700662427915375 11.335096416868621
Bi 7.475867828067166 10.750141285424785 12.852866843658575
Bi 9.429284394680854 11.392302111890373 19.015066155498435
Bi 12.877198978348265 12.501960502235589 12.76226068626127
Bi 9.305790960102682 9.033853601321086 17.09193573030085
Bi 14.730806055712755 12.08261285572798 7.548244945116657
Bi 14.928022967283718 15.850701920817915 10.582799825262331
Bi 11.22214814922175 9.99643088775032 12.22012781941665
Bi 10.849893749809997 12.870699328368206 15.380823175929693
Bi 13.79752625990783 16.721125084046253 15.505821743515472
Bi 12.243503435257601 10.419308972823547 6.984862748674149
Bi 14.443207261426569 16.960995776195418 7.77913572305498
Bi 7.045333838125554 10.69854102403436 15.853335757951939
Bi 5.020405950316481 12.45083644085603 12.092903519388722
Bi 11.694175814730103 13.984145939158356 9.682692099544797
Bi 11.91809426364107 16.143285427028527 13.1187417581414
Bi 8.194725757708369 13.269997562318027 16.956762692344704
Bi 11.831869347971285 15.122471115145599 17.209244166443273
Bi 12.924049881932241 14.45818970915505 6.932123564643971
Bi 13.449826662218758 18.320243073629342 11.638647814762034
Bi 10.61570669947522 9.379108701559492 9.307974127159689
Bi 9.162695459156215 13.189114343074586 12.109082652816898
Bi 5.2405233417805634 15.176586542712695 13.45989762396794
Bi 9.886420311305281 12.06287491890317 8.092235906845858
Bi 10.848885122987598 17.568661847674527 15.644534867826245
Bi 11.98806164683341 18.416424012625605 8.936045227023234
Bi 6.958720242206304 13.530984620454507 9.973524249944614
Bi 8.268113845061848 15.38701283705929 14.031715335551949
Bi 9.762513394508922 16.313863850620816 9.16818986324386
Bi 8.667932139006549 17.46561899673838 11.769916925708594
Bi 5.969915342098985 16.337645082085206 10.735457441940571
