55
Energy = -199.73196301 eV
Bi 12.530306476793227 10.215849177836242 16.37022097899808
Bi 18.25031294614054 8.043131313418748 16.987383893925166
Bi 18.467186981631787 10.958614445617233 12.77630380832303
Bi 15.290084856096888 23.103856343536197 21.01471386117973
Bi 14.357529150075878 17.657769313805268 17.557245801193798
Bi 14.609313971938116 20.595667877205422 19.17851707258932
Bi 18.78815074255374 17.546868289365666 18.974542687314734
Bi 17.036169253744117 19.484645616786803 20.66381911258464
Bi 20.50353861624651 9.044267152320343 15.252906885751562
Bi 11.20745597200457 19.39354120158888 15.919276502463802
Bi 22.55027272157758 12.270234945976242 14.16881671795397
Bi 12.480007439096667 19.618525955223884 11.462311772902225
Bi 14.56437891527163 14.419237872808258 23.328550522547385
Bi 23.632737958263924 18.233601249459504 16.61186332083619
Bi 11.460680044024526 15.719202766861304 14.080740394388444
Bi 19.222361090423863 19.46722889892235 16.694390648523672
Bi 18.01879293980704 17.156520376551967 12.970207209574195
Bi 13.71785287476903 13.032840403656913 16.052953972198225
Bi 21.905222412749385 15.87615974959281 17.32364697988664
Bi 18.709541301029105 12.663864480016027 15.32561463913448
Bi 20.028586215415103 10.244702168789415 17.997404383471665
Bi 10.826864334778403 21.451152472991208 13.22287608563259
Bi 23.924509490283747 14.705640361269596 12.94794935393542
Bi 17.302891538367767 12.807781730023255 19.17397359806894
Bi 9.183465878498787 17.791056814095594 14.19710620259184
Bi 16.397713591373684 21.701920652877764 16.94552398815537
Bi 14.69069274780555 12.054953622671325 20.549156554992987
Bi 16.261344908226977 11.364482629924796 16.733497748534976
Bi 15.849888149921131 17.176866894352855 23.283471928419484
Bi 13.67136000166416 9.46956512182781 19.10164589439278
Bi 12.855074485511619 16.895858633015603 23.21078718643382
Bi 18.233349683942187 22.358616058000145 20.799369839379086
Bi 17.552882704225407 13.705715101904296 11.66328514513656
Bi 24.553515547865977 15.436997077273249 15.854848980262851
Bi 21.115780535568728 7.413710313261058 17.7471387882017
Bi 21.09186699476859 12.000090765815077 11.531661182965504
Bi 13.310099187930339 18.156622450260453 14.0467614119633
Bi 16.691794105181927 14.985903541881276 14.672882403525016
Bi 11.925324589673586 24.164481852406272 12.193573807059067
Bi 9.496127328764421 19.244404176996902 11.521710937619572
Bi 14.470317219220457 16.184461179710443 20.733868938841535
Bi 14.446128719312423 14.106749885455185 12.168065573379423
Bi 15.622466749453741 14.511081031082236 9.407809279794751
Bi 16.547735369076616 18.608706441507664 15.32242464376472
Bi 16.91441199934011 24.167250230198515 18.749697973123347
Bi 16.703076559493645 15.572536377439395 17.78744902408464
Bi 21.112503804145266 17.670594567661038 15.008093140786032
Bi 13.985071957997935 21.83318183790848 15.000966592534303
Bi 15.366534200099048 16.893663155452717 11.302073461074713
Bi 12.940635666884873 24.75912859407422 14.97099006589944
Bi 14.879845503306692 23.839218599121345 12.889609368947601
Bi 20.896904518816903 14.620031167861278 13.218478129144113
Bi 12.71889442826345 13.673636518727546 18.878778293324277
Bi 11.577423531590425 16.44791256860256 17.080759843628613
Bi 11.076307940353464 11.002984826370422 18.89557032002271
