54
Energy = -197.71891069 eV
Bi 15.235725976179683 10.259982361257169 17.1204617001112
Bi 10.706998205530738 10.104941378615008 19.135370317098275
Bi 11.918452965995904 8.943793878779122 14.807311590627029
Bi 12.960196419970451 12.87157062099043 19.766525778515295
Bi 15.074807914760664 8.292580145393787 14.79612587128481
Bi 12.725242535861893 8.765732835965943 11.777693883923336
Bi 17.045666937704958 14.266406333259779 18.00823793490158
Bi 9.877917292442197 13.025408548635173 19.513277717244637
Bi 18.550496875815984 11.465394035507417 14.429906964598167
Bi 14.55820343272015 15.425076188135057 19.32911120178082
Bi 9.174164560616223 7.8115056757162655 13.06897490679174
Bi 16.830902230579778 8.64084151875338 10.860005693122485
Bi 15.947990535619954 12.803425530661883 15.543199493505696
Bi 17.709030282019608 16.778602376081242 16.382015189505985
Bi 8.507333768826639 9.261428803649006 17.174592117241563
Bi 18.644352461416354 11.99738834616114 11.420401277369505
Bi 10.451320435890919 18.035734209022852 16.367951563446145
Bi 12.43205744843089 11.57604726613758 17.077518148963776
Bi 13.003845459695862 14.159594753173883 14.5779747873984
Bi 13.145877211965328 16.386120329056713 16.77560966663784
Bi 15.1979499583273 18.55193918884695 16.28930892316403
Bi 14.562984762324875 6.611365555026351 10.60633270318113
Bi 10.475150350304595 7.876066051272242 9.69466084295006
Bi 9.963583610966166 6.885565924354834 15.869034348650695
Bi 20.009902237037135 13.900260084106108 13.3740688917291
Bi 14.963567040706 8.725209465133908 8.440921926806555
Bi 11.907238886868829 19.786760446271263 14.58719421271159
Bi 8.463058461712759 13.65269703440971 16.82760064982636
Bi 6.888316163260374 9.664668998783544 13.80689089742593
Bi 15.276593274285581 10.463112196466218 12.744037118120826
Bi 18.10310724499071 18.384898014530282 12.518694203022045
Bi 9.229010038069264 11.281594550186142 15.003293749300932
Bi 11.867502441218747 17.93648429460828 12.045939859441697
Bi 14.209759005159215 15.979817160381213 12.431297113355312
Bi 12.962386387116027 11.022844116800051 9.085299859253638
Bi 15.13491459106454 18.894077681881207 13.285326450980156
Bi 11.507596004463846 9.208340093366136 7.112699975926082
Bi 16.03533163419796 13.53656465778325 10.720272694408356
Bi 10.058622023669313 15.332483112966457 14.796125065808727
Bi 9.705487074410534 12.146257393651808 11.43363133711428
Bi 17.546639224834507 15.504063953421978 8.929323624135407
Bi 17.46949499823864 15.608043170132577 13.573322265176603
Bi 7.7209503397899235 9.055661470195819 9.079354870922767
Bi 6.886345449024093 11.174052142510835 11.132731027984802
Bi 13.728315954373478 18.80892216794841 9.635301018581114
Bi 15.586958251128427 12.25829323145002 7.9401142977950006
Bi 8.255935689956845 14.717444747966342 12.281849120826948
Bi 16.768332745073597 18.28744614739953 9.764215564826472
Bi 11.937481106889907 14.623791068769055 9.757007378518471
Bi 9.642570017591714 16.535831006640674 10.324502708067065
Bi 8.931728257831532 10.852242090096603 6.9127613716933904
Bi 15.429235950491007 15.128955759196314 6.788565208315582
Bi 9.294038194550184 13.357769619911041 8.67268447111583
Bi 12.899979971372078 16.60543523481793 7.6774071433449445
