51
Energy = -186.00179083 eV
Bi 8.068715652186029 12.868146955615623 8.984726413578537
Bi 10.035377834163238 11.631657364315993 7.081430253590803
Bi 13.226605891988074 11.460164223479314 7.839231837097773
Bi 9.800982240092353 14.566340371598061 7.153809085295499
Bi 9.625658098956691 13.897869047434288 11.426885862556903
Bi 13.04212247356044 9.024447947023017 9.645299406966913
Bi 12.949337647068516 18.863489497846444 9.328409647650808
Bi 12.37978847713551 14.207578025237925 8.99862167197454
Bi 6.948129291821146 15.341565493140761 11.830830661667664
Bi 15.12196248158903 15.274310696172833 8.023126728577447
Bi 11.231994918676392 17.774439197988958 11.621877791653164
Bi 15.811813939335313 9.205229435454262 10.87835055981389
Bi 11.66107051911086 9.16774919748277 12.37215508133726
Bi 14.295403397909755 7.7229654260131575 13.11133408956688
Bi 12.255804265489422 11.820247203201022 13.772295098416118
Bi 16.04563152763387 12.535867251775834 8.92379761684278
Bi 7.646092470169719 17.369402490174135 13.97226595011087
Bi 9.1827671454419 11.748812381458178 13.519534880080544
Bi 13.041869916383082 15.286604464661071 11.982728290818855
Bi 12.957771572087582 20.34162535102754 11.919344828649747
Bi 15.573868742031085 12.089093297193838 11.907982882317825
Bi 15.175282661399253 17.02727557487714 10.505699432404786
Bi 6.192557805432168 14.801430836532385 14.709568187966758
Bi 18.360486936149833 16.47665762934026 11.578565825503482
Bi 10.278551255844176 15.971437172983183 14.86642119795157
Bi 18.644827941932483 11.830189272782516 11.931316310826915
Bi 13.238524766547972 17.94345837741465 14.712480204021983
Bi 16.382066749726857 15.26989805459052 13.649207645569046
Bi 9.845847289264308 17.257789361182187 17.566353827193666
Bi 15.323057192851238 19.984130689217274 13.862374546265553
Bi 17.664040534283483 17.991682448590122 14.114516993126133
Bi 8.749906097257117 13.553773328024146 15.927768602068063
Bi 15.189582342761584 9.909300583753073 15.00055099990994
Bi 11.587624270888233 10.834585139132914 16.68501891190327
Bi 13.32458304225071 14.48080519733764 16.211819419645117
Bi 19.296394439873108 14.31470782262651 13.589814336568075
Bi 13.690871236862357 8.609730984095536 17.257488880012918
Bi 12.16845264432511 19.200997320586577 17.259736911172958
Bi 19.74168415576954 10.121235805669482 14.23541517024338
Bi 14.47764287074925 17.054735232441896 17.610838994951372
Bi 18.397273074357372 15.778083320458538 17.032623103209364
Bi 12.059857481379446 15.486674184557655 18.814824461248115
Bi 13.434284839127201 12.394014899810436 18.540449229440274
Bi 16.788188174000855 13.155534957637954 16.57299126061225
Bi 17.645791510091954 8.18271206091478 15.332810503360852
Bi 17.272017302422082 16.208763410798408 19.85249436993857
Bi 15.500788014533208 9.97547802356387 19.327721856234067
Bi 19.495880432626315 11.839528972417867 16.79868126827858
Bi 19.75381201643978 14.560190723130217 19.523346673497734
Bi 16.99996963442627 13.135459099311266 19.631145683875776
Bi 18.221096682096725 9.318758120024777 18.122663926321785
