52
Energy = -189.45250993 eV
Bi 18.54467400939264 10.34762079181482 14.018035761889593
Bi 17.122998447880278 16.859805638440342 14.61763152195515
Bi 18.679500341487778 16.005847479933234 17.771013675329943
Bi 19.152650738684436 13.342374770535436 13.744259888827125
Bi 17.922025721470394 15.930730062181265 10.812593742464736
Bi 15.535009908225907 16.55812824688596 18.39843194915998
Bi 17.205860916038493 18.62381379427793 12.060002380813883
Bi 18.686348164997625 13.173744853310344 16.745146494368832
Bi 17.954596141049475 9.694212383916204 11.122039527354957
Bi 15.923185630333228 12.012369222424981 10.132191730036435
Bi 16.749852230947557 9.64661407685039 17.49118238105323
Bi 16.225770323457983 12.502788499277841 19.619054124734916
Bi 15.706536510437013 7.749868103866127 15.228431859938615
Bi 14.433125311488356 18.095203316189863 15.404835495478226
Bi 16.346675130679444 14.347855802748775 12.93417990343951
Bi 16.517387443101914 15.879833773383357 8.06295943728489
Bi 17.38466671026288 15.240442903786992 20.45922462136053
Bi 15.620352873201004 10.762048305222796 14.841221207842427
Bi 14.202089869183569 17.738645350827603 8.78310164407174
Bi 15.621084321595708 13.770401045760254 16.92968819460726
Bi 13.823899431498981 15.92758441274754 11.20634622724091
Bi 15.306699629542218 8.350590559994947 11.64154421134521
Bi 12.432424340133183 15.496422308245869 18.584345543910924
Bi 14.95621611897648 9.349405361114433 8.74297477624153
Bi 14.345979986126537 8.514992670020986 19.02926241336882
Bi 12.652045408247588 12.086196538540795 16.741506812971412
Bi 12.553536816398616 15.651337609842155 15.398036619321775
Bi 14.116423088107345 18.675177565060437 12.399389858667925
Bi 12.969112598996634 7.368170725468867 16.56735534209173
Bi 13.49296395557097 10.950698227966733 11.836451222479555
Bi 14.458707099078884 13.660500825454628 7.932318018587074
Bi 12.218421725161834 10.656056398716215 19.37683540720125
Bi 11.875217202586455 9.788027962648368 14.880633616654627
Bi 13.410747813207715 13.238808897130033 20.519897671689087
Bi 11.275288091106583 13.253178819253222 13.246767519031193
Bi 12.180738773500655 16.159019562327142 7.085974376138877
Bi 10.411603620922362 17.82455093613199 8.94808171027415
Bi 11.30589179173118 13.827769183144932 9.080970313093006
Bi 10.169002546053948 18.902561030788334 13.045462759424204
Bi 10.156724092343424 17.495183357389255 15.740174801727596
Bi 9.272303278337183 10.765850484793921 16.227561221193454
Bi 10.013796121720928 13.320151524942618 17.927209045008713
Bi 12.077897895799959 9.249174533084364 9.708540180244535
Bi 10.788362281224906 16.250048470914997 11.598080886715671
Bi 8.646282485688689 12.366802520374804 11.855030212847046
Bi 10.946312773999878 11.13858631455087 7.62541017088832
Bi 8.771886164197417 14.19670949140397 7.348064753421028
Bi 7.646023413359522 16.499922885742112 8.91229258887779
Bi 8.839274511679518 13.624986524672481 15.119933583560686
Bi 7.760064112877728 17.176935275229287 13.827704404886902
Bi 8.213105943369191 11.634742195657628 8.87074172282746
Bi 7.226222845358483 15.065294081075647 11.625268589524184
