55
Energy = -200.04432701 eV
Bi 6.825536286873232 11.50070770590406 15.653906879006364
Bi 15.884686236268557 13.995278611439975 11.418302938027471
Bi 13.318518715972282 7.639739609227106 16.434501495569723
Bi 10.0166978986596 11.123695119109412 8.33707088703287
Bi 16.74510733687976 14.138443193573258 14.629685298367079
Bi 11.955157969650887 13.501927773353598 5.118907598125836
Bi 9.559448033840274 10.633674096004377 11.976090959283367
Bi 6.6324510474081455 10.789373534365485 11.272140148455563
Bi 12.740586774886955 12.918784692777486 8.010827428065202
Bi 13.341636321607522 10.096365863877674 18.274298287479485
Bi 9.518417047334605 11.125792637521883 17.09039776115158
Bi 12.886986561299558 13.309223672784146 13.177531298310047
Bi 8.247511998969589 15.16261809239535 7.199782845645273
Bi 7.588845661946536 16.852554308548246 10.480428626302336
Bi 12.294964034172855 12.312150295831625 16.341912407041782
Bi 10.265649517512376 16.362851305866116 12.249802748266053
Bi 12.278698110467195 9.439752413979818 7.050540516445165
Bi 18.660453020147084 12.837851799353823 8.841848899457464
Bi 15.107984772232061 10.216248879415364 8.082938539354506
Bi 13.996363137595303 10.438293685888315 10.959239916202709
Bi 19.413088155387793 14.47717089973313 13.028517246947793
Bi 15.593192564905937 10.760813226534449 14.457128741393294
Bi 12.375148623045414 9.300440732385141 14.095443898669464
Bi 6.6964539403744565 14.042594011818052 9.6888886784673
Bi 16.14892005218022 11.006928651634103 17.471391493969833
Bi 11.971708866303523 15.793200079141576 7.096325313508189
Bi 7.449607669634115 15.575396020522922 15.5161439992368
Bi 15.006148928761824 15.703004461635219 7.779448067793061
Bi 13.450156460300002 15.634532240466422 10.474867079370833
Bi 9.26365591894579 13.477846780409402 19.05920187628685
Bi 15.423761681635755 16.810859384371103 12.547117364349509
Bi 13.064935038439469 16.090136796158323 14.40321901587701
Bi 12.33441319933168 13.45233155419512 19.320752692017056
Bi 9.78180297342829 7.798568360043183 10.81862004614483
Bi 18.723851350620514 10.446236591341759 10.810844358509387
Bi 18.81942792224467 14.119588392106312 16.915475321786158
Bi 10.300806719319679 7.758950630744412 15.710631057721073
Bi 18.572786862754285 10.978532105790404 13.82618568013996
Bi 16.116592996650375 13.944277510179077 18.409396751421713
Bi 9.080519893279998 12.56520141504775 5.767636281242546
Bi 18.34294148560241 15.49730774291058 10.328132030934636
Bi 7.795070012734927 17.73370070663018 13.412054596441347
Bi 9.748857710688693 14.251042653069714 9.70702943486779
Bi 7.539245174525733 9.204815107047018 13.764330737806958
Bi 10.34677845339908 15.20578391329069 16.80147377484366
Bi 9.474624453645713 13.774272731411727 13.780206458708124
Bi 6.458488248110886 13.301545016616231 13.167365632191029
Bi 12.39356022696418 16.443300764081787 18.865540307769233
Bi 16.360150063188723 8.50073373525478 11.068079720528035
Bi 12.64337348946591 7.936255029673954 9.71168710573212
Bi 14.787521661849034 16.324489206200543 16.96920512867428
Bi 17.161281962949484 8.185128699627615 14.02496734936005
Bi 11.429512941205596 6.5678646322313865 13.11260428338214
Bi 18.48996787906878 16.588664347310246 15.066204640228092
Bi 16.1506159353325 12.927828579168569 6.998398356090178
