52
Energy = -189.38993699 eV
Bi 22.586576012038627 12.06702450310589 17.77069537213889
Bi 20.506497919712558 14.262798843399645 15.599384093550027
Bi 21.007124456859824 11.156015472747692 15.382708075433474
Bi 21.227459203457297 15.005611887590407 18.588304301315073
Bi 19.146203560112493 17.0492776651526 14.493846705576804
Bi 19.333607295608374 12.643556280577297 12.308876622621764
Bi 20.181595882990433 12.345317819991811 19.579716035558363
Bi 17.846988824869243 15.363077864295015 12.279843078660763
Bi 17.150912452834437 8.669398314004054 15.010442395728788
Bi 18.141269836495695 15.692246275291522 18.632483622931193
Bi 17.20542964691231 19.042809736446102 12.055602216283239
Bi 17.99198905432828 17.900636567734665 9.37860522258404
Bi 16.850577913525992 11.463799415651154 13.781776979686693
Bi 18.5398047203112 12.109017082389789 16.903332470938242
Bi 17.808153116373784 16.87416562347099 21.38986964585903
Bi 15.517968463861239 9.906863426329153 17.286144472352333
Bi 16.922096134367386 11.554713195753855 10.742012023559113
Bi 16.932294656338385 15.00639391742333 15.234064589113277
Bi 16.11743632242552 18.014434238523602 15.37100554485368
Bi 15.388335566734465 15.27664110029182 21.75294900173859
Bi 15.35268951936074 16.21072684822238 9.225565611795657
Bi 16.292227758167712 20.416479039783283 9.439775452874263
Bi 15.834590735265422 13.19814391527533 19.57280913329479
Bi 14.493889098806886 16.99586124896953 12.05448187197169
Bi 17.071906409509864 18.545174854444543 18.321533616696684
Bi 14.239467083881806 7.924700625576851 15.313660939943453
Bi 12.789098199911614 17.260330781834888 15.264826631063242
Bi 14.264810021993686 18.66549592424692 7.856839119440309
Bi 14.159913950855927 15.237799034819439 17.886959159324846
Bi 14.386626337339726 17.70850925950812 19.688467655844043
Bi 14.06846938707521 12.241228532998623 15.787613548022218
Bi 13.217563307134814 11.843353254551559 20.49565221375915
Bi 13.453559371260539 20.216427100010634 15.963389561482998
Bi 12.719665335598048 13.69277730013517 8.982971743422263
Bi 13.390605787366665 10.3801370349197 11.378829291178628
Bi 13.18775067843044 19.720101352521407 11.475376118656639
Bi 14.448700038530815 13.243373746773308 11.521193714024939
Bi 11.241052934315412 14.224260998869749 14.213004120896546
Bi 11.63235506936524 14.172027975549831 19.286160279497743
Bi 12.401109434898363 10.154510333464486 14.240987041414876
Bi 11.241214404995437 19.573810749148844 13.910954122817872
Bi 10.857868514374031 11.516684713210983 10.092411439295939
Bi 11.502304305276043 18.64690558234873 9.186323952290703
Bi 11.878552305406327 18.51673094888316 17.91056706345983
Bi 11.8601695078845 11.520825183544739 17.78459554960226
Bi 9.52394915045531 16.588030524463615 13.17273636164376
Bi 9.436681094817377 12.277022260299063 12.705662308474736
Bi 11.68907263281279 15.986389611844281 10.683110944100322
Bi 9.163217240490823 13.96219005912053 16.503227680971275
Bi 7.979828784603191 16.68787462705353 15.894021545053018
Bi 7.50941476114465 14.51182804494157 12.022034906887601
Bi 6.520455182831131 14.233248038666323 14.89780759682974
