50
Energy = -182.74408634 eV
Bi 20.04616820743298 13.122100282980625 13.03627324363706
Bi 19.23296280677956 13.114209780330185 10.118485540604535
Bi 18.736398978177007 15.885656408529771 13.395003934752518
Bi 16.463346798315914 7.014997016298013 11.87583028528634
Bi 17.831644637294445 17.223176237253206 17.229046392862536
Bi 17.73791395808378 11.239329415404237 13.828094212352443
Bi 19.17561022804946 12.476783392235184 17.85123348902378
Bi 18.03994684841375 9.550808611122042 11.29802946899149
Bi 17.680224869616776 10.08320954316269 16.7030916165025
Bi 15.209854706077637 17.34213454487557 18.857490306854036
Bi 17.25928970707186 14.334820625790062 16.308590610041083
Bi 18.845707989226817 16.12269736256963 10.316963207644163
Bi 16.933591889636762 13.891404956357674 19.342590212543666
Bi 15.07657358808934 12.557638681216503 12.929512326215631
Bi 16.37708385566915 11.90755318458821 10.259489821050021
Bi 15.576194678601665 15.878233338573978 13.494150591645889
Bi 14.237597317877416 6.768680269184008 9.818611913256186
Bi 14.264952782518312 12.400886532885186 19.235873036052446
Bi 13.580202881250692 7.038919966132496 12.795151352596756
Bi 14.98496203042606 11.46792625569197 16.398197969884464
Bi 14.069562760433131 18.948540311126393 16.4585240247904
Bi 12.719473712994793 9.962891666411046 13.179919862420322
Bi 13.39942982635925 8.865298919546182 15.993850288025588
Bi 13.708895357043705 9.754084541160614 9.584445735553773
Bi 13.740481391806988 15.000385246289827 17.564819280755806
Bi 12.320466608821974 10.119851937955861 6.8937371213449
Bi 10.665607328665224 9.420889273274053 9.350191639193081
Bi 16.59551663929012 18.599395334395705 14.764425324329661
Bi 11.31123126994115 10.320048832712526 17.654541529169954
Bi 9.691244154388901 9.234616686795112 13.075187935133863
Bi 11.344672769696867 12.676682087704245 15.68356355547678
Bi 13.537843911528427 16.02113896521151 9.115980384003205
Bi 12.85450354756788 13.34477593864329 10.466071055329264
Bi 13.887470482974663 19.735573132874347 12.297348133101499
Bi 12.081214017185104 16.968876821206145 15.161640952747296
Bi 15.934117163007052 17.075710559339406 10.699416783505857
Bi 9.427593228526296 14.156927864202116 17.47560927663139
Bi 11.144909548808826 16.624641750199082 18.05405185006245
Bi 10.800284310494616 12.291105612619225 8.408039555619158
Bi 11.529067068861991 19.92901154808703 14.257683790923883
Bi 8.683208600947118 11.787044784898749 11.649897653047177
Bi 9.023785995479559 10.70779329369039 15.651137212142022
Bi 12.192919357884042 17.218807055029114 11.587448981221288
Bi 11.066245422439621 20.002982690972214 11.204608742067963
Bi 10.591286981882174 13.956447650219808 12.548111187935238
Bi 7.263174668400875 15.07660255012691 15.534550771340227
Bi 7.646033873965286 17.14148663850862 13.305479906230373
Bi 6.586676288123505 12.73994546436774 13.722231406885136
Bi 8.85981930948759 15.842721686963209 10.88505041705018
Bi 6.036587411706256 15.028884784731964 11.739554879803578
