50
Energy = -182.24188861 eV
Bi 15.94201276265343 15.011497418344407 8.194187207462633
Bi 16.488074208119126 12.225771695490716 7.2065676790327995
Bi 16.44171214639975 17.665004579175946 10.637477117717953
Bi 18.15553833937024 13.906214296801645 10.53389205244058
Bi 19.84079866032847 13.588852061735322 13.19387712328092
Bi 12.502553190111206 14.782270064420267 7.675041341412064
Bi 13.878446441416315 10.70606037438609 7.689898438132681
Bi 12.659361659937314 12.56941312529033 9.726396224819718
Bi 17.564959284575178 10.956074337636542 9.840529922393365
Bi 13.985354756086934 18.934464065790944 9.369864355058251
Bi 17.388122805888962 9.309286216609495 13.277971187804905
Bi 16.179032966758854 17.057794641440985 14.402185795790896
Bi 19.846728701241805 10.827545376240337 12.156291371549953
Bi 18.415797467512885 13.29352212719466 15.902197336647417
Bi 10.134133997215333 10.998067566106618 9.049510012605769
Bi 9.352744911028262 14.73179974710282 7.457618956957767
Bi 12.148966523082612 16.61921159209615 10.094152633248497
Bi 15.217910428885986 10.956978047601696 11.812956665618078
Bi 15.295078230882229 14.806108411328982 11.188175768571071
Bi 11.357135908759645 8.304202355437013 9.814435602357676
Bi 14.417606712515614 8.677101663418846 9.935527165567631
Bi 9.34655977864267 17.199286525735857 12.778408201732395
Bi 10.450323501765869 14.28882412866878 12.577149414557445
Bi 15.261730286724054 6.8026726242701505 14.885439660225018
Bi 14.588399816509995 19.52466525512051 12.288181099733546
Bi 13.152103957552493 17.23896149904117 13.795723438551576
Bi 9.807492054777425 9.990298930834348 11.909426023989102
Bi 17.510064763443122 10.430014689618517 16.089260750007085
Bi 9.294173256336002 17.30130126301506 9.05346291174731
Bi 12.960378823740033 8.207466923737922 13.349452128513215
Bi 14.232313765338398 10.806335150287484 16.543639731500754
Bi 10.211879169731334 18.94853565576772 15.187179924554083
Bi 8.334173471516966 14.661741877631489 10.301389507717518
Bi 14.328031049785823 18.62586118812375 16.22332001339941
Bi 12.032355565515463 11.191946318691665 13.655482276878567
Bi 7.682587131217041 17.261570776594212 15.361949830457807
Bi 15.466014830228163 14.142790126485254 15.346784022138499
Bi 7.8126395996778975 13.63346024862756 14.03109551445325
Bi 15.83647362760321 12.76006959211299 18.219761480380715
Bi 11.715703053975345 14.455666122513817 16.229933540818482
Bi 14.65155521311267 8.002437885285685 17.625845539787097
Bi 7.398321209453082 10.612209408563247 14.566158776308107
Bi 10.189807145442414 10.124549168897646 15.837518545790179
Bi 12.427251489858271 6.696469845078175 16.00908926325533
Bi 14.071200692795363 15.86136326907757 17.61745107573129
Bi 10.021929762405446 16.764651500268236 17.2788092939473
Bi 13.714731000939643 13.137638042414611 20.472553023104076
Bi 8.455179401895988 12.476243852338984 16.752737622996605
Bi 12.25261181035771 10.827559430780044 19.170847356586833
Bi 11.0146851715991 13.530909441478885 19.11593657737871
