50
Energy = -182.81238157 eV
Bi 12.749150191279524 16.400534039542638 20.53105609932382
Bi 13.458648488583934 18.15070585996054 18.07117756679547
Bi 14.826911960788614 10.764557606316924 20.332574409952805
Bi 9.432945417299221 14.762773526619055 18.38988167835298
Bi 12.012871891358976 11.833810590913247 20.372464329131976
Bi 16.615379667415667 12.989045788380936 21.23376107782608
Bi 15.75124512396289 15.88942994105189 20.82271748426838
Bi 10.938800851231381 18.83977880574914 16.44983543266315
Bi 14.975703585759826 20.59217579977859 14.930510771037289
Bi 12.41982174776227 14.199681661164234 18.499633620182344
Bi 11.233384703148433 10.330198867746603 17.83226493569619
Bi 14.307845664461292 15.940722627726666 16.139300166567654
Bi 16.278412799325817 14.232248541483244 18.331176322833056
Bi 8.696888672929349 11.955775520900472 17.353308979533786
Bi 15.17329921138618 10.812809159131504 17.139110653335923
Bi 9.36641414416347 16.32408694486434 15.75325095053973
Bi 16.789083800653227 17.753816933996788 16.492718110076634
Bi 17.704213123885264 11.156674220051555 15.408802221123072
Bi 12.94971177996858 18.41635974606341 14.113937880515538
Bi 12.23583222893133 9.124356474200665 14.462304473874546
Bi 12.685299632905844 11.930682584996577 15.661701016483626
Bi 14.621003634895576 7.945842807956985 16.0447260550829
Bi 18.78503670770732 15.53940440679875 17.16097416713126
Bi 11.32643727504585 14.782758363146653 13.903376600417715
Bi 16.213945851256266 20.3081479543764 12.038033589416571
Bi 16.53963461760394 17.412985654690576 13.40348399089668
Bi 13.33046659345884 21.109248393102725 12.458569568299648
Bi 13.748080176899629 15.16610152827318 8.712894145686406
Bi 8.947291351416588 12.847541378735205 14.423018013645825
Bi 20.227957410906516 14.375953926704401 13.168654032809506
Bi 17.611672066921017 14.172649056486941 14.704518303628513
Bi 15.795234594470248 11.333570566428659 13.064592035946555
Bi 9.340219731123105 15.582571241827894 11.688762958851655
Bi 16.560679435352863 9.825460872881873 9.175559612708954
Bi 14.850796752752917 8.440012850287927 13.055798883894207
Bi 16.813947799861236 13.93316670047395 10.61379883211337
Bi 12.09285011192369 12.24910352882533 11.288034900034125
Bi 19.332841830714305 17.141114849016095 12.114978971964153
Bi 14.066596027783147 15.984940238972744 11.725405786572539
Bi 15.304540598889176 18.065199465514436 9.895541218841107
Bi 18.286774191087453 10.20076731386824 11.707052749862576
Bi 9.618240987945345 10.716660145097359 12.342849432431933
Bi 8.08536796459512 12.865877985796622 10.811945842191893
Bi 19.602831197826855 12.761333123349697 10.65128525909549
Bi 10.75088468229956 15.711179229794787 8.946374988686472
Bi 17.94974575383111 16.489522458895316 9.43652390506168
Bi 16.8070141700779 12.577436525944561 7.9106884035954375
Bi 13.516487538643293 10.008911521265635 9.719201231532756
Bi 13.730606677484214 12.234152058107666 7.609416963902324
Bi 10.411435782282677 12.688646814996376 8.772937577840555
