50
Energy = -182.78088911 eV
Bi 12.536248502386927 10.080487763698297 10.211122921849418
Bi 11.273727872273774 12.130715363713389 6.754576569836342
Bi 13.813624745596407 10.681670866375148 7.496409646226914
Bi 12.18068350001047 8.2781581620754 13.855035728371899
Bi 6.3556198791349585 11.177617134844125 11.247747600985766
Bi 14.448026353395347 8.306333550923755 11.780770743553418
Bi 9.178794416418475 9.953527917155682 10.739031111078457
Bi 6.7963008711255695 12.60170133995406 8.58886176406426
Bi 18.48932162339659 10.338596520575077 11.140704661565032
Bi 17.62031166263459 8.641564852556256 14.389987085650075
Bi 12.206602250429473 15.049699343451943 6.635526892581362
Bi 15.07663751363717 12.881412568902102 9.30886672869509
Bi 12.470981073687936 12.762121470782581 11.882458127084861
Bi 18.058136681237134 12.233692644229636 8.813277467371721
Bi 9.816840813382813 12.73299830352947 9.398408915296026
Bi 13.668198324725404 10.173304309117864 15.69788888498462
Bi 6.389683300876145 15.281997119894243 10.000893783366699
Bi 15.212843641209624 14.739204327847048 6.828070613013494
Bi 15.66234826128844 8.099696092103112 16.708765843960407
Bi 10.513442919854171 10.851194895007799 13.334063274155714
Bi 19.560059324748632 13.191376229298186 11.234299638127627
Bi 6.821583126512697 13.797221604094258 12.709011210076282
Bi 15.963711656886007 10.708598405325285 12.90070059177923
Bi 8.86722922217268 15.91628746616602 8.329645513905922
Bi 19.441223614821745 10.370576307712172 16.171007293136444
Bi 17.341893422182913 14.063119313525402 13.293872997423179
Bi 15.480704912650703 15.901633608013338 10.591084806037152
Bi 12.219556267910656 15.939000842327538 9.6444362866213
Bi 17.348965018878484 10.071652506858841 18.40521039871654
Bi 14.548341836055835 17.426662379561883 8.193683151271664
Bi 9.753546410303334 14.672944054287623 12.545001748375519
Bi 8.291694946960652 12.248544174207831 15.846861880216593
Bi 8.973393146263717 17.627136162555722 12.173735232149006
Bi 8.957132479922636 9.66441190189774 17.195735180792973
Bi 7.92173657761518 11.950207965986719 18.848564065757195
Bi 14.227119066531337 13.925691739991347 14.362309648779013
Bi 18.08174023235979 14.318257345056145 18.003925396434298
Bi 10.237797538196693 18.299490900669095 9.479422619400951
Bi 12.004194784739296 10.031040952631578 18.272320888520746
Bi 19.410250717648307 13.348582262845476 15.451184268202308
Bi 15.80968463443545 12.431052225627553 17.333467428239555
Bi 14.202304244241333 16.83340512345999 13.230286194378651
Bi 17.189931775496888 17.04383406490775 14.123656524936521
Bi 11.199618428548256 18.20268180510857 14.117082861626477
Bi 10.421276616088186 15.656689187619177 15.385372441635923
Bi 14.006548593561803 12.224116430461454 19.756751479825795
Bi 10.704366979861662 12.836968297465951 17.891402578652944
Bi 13.494422841225589 15.95788927089415 16.679731105458945
Bi 16.521336554028263 16.737027473642357 17.042733664316398
Bi 12.654503191266073 14.842466892956718 19.38883334746827
