55
Energy = -200.55329719 eV
Bi 8.158267068228755 9.382035011977546 5.5970901921088245
Bi 14.24624204260577 6.818495483241408 10.472480234446708
Bi 10.32993016423371 7.783508272813757 12.203364793238103
Bi 10.75502414156182 10.608071718531058 8.663575645581032
Bi 9.345178368419417 13.627760380467947 5.667786071884717
Bi 11.783705877783136 12.165941320481178 4.5584506325708345
Bi 8.78980820462471 11.465055562193088 3.5703436560326782
Bi 6.660443706114723 10.978536796590337 15.532377529955966
Bi 13.533436125459781 9.632941739151537 13.880916430625588
Bi 13.2246201269098 13.205831581479341 8.840547750277928
Bi 16.24252277543585 11.5863346603584 13.14323878018633
Bi 13.72645773029685 6.597791958541389 13.464696371104694
Bi 8.068493328036277 11.647057849156665 7.643129343806155
Bi 9.284764178460652 9.127875191093409 18.75548833776414
Bi 6.629594709529314 7.926793166694556 15.275559867376352
Bi 18.428798152887 13.467986284633797 12.007874114392935
Bi 13.740572725317598 16.562199494451644 11.801845366861988
Bi 18.110804477034435 12.554861997040376 9.088507955796915
Bi 9.872872877880456 14.776731238717666 9.604623883101237
Bi 6.880829967895246 15.884864775915776 12.60062876425143
Bi 6.647305225011021 8.92489233724637 10.190786525677531
Bi 12.76653551050986 16.711810578546068 15.775747895295352
Bi 11.374466587799379 9.456446492549983 5.90825696188758
Bi 18.05416237208151 9.237091468371053 12.388359042273152
Bi 15.888138697138503 14.70225858581094 9.27864870561918
Bi 16.905543256676214 16.137936559368185 12.204529639396656
Bi 12.368924625100854 15.587121008398292 7.079940351825031
Bi 11.708213190273533 14.187340821891826 12.04176604622876
Bi 9.81089372627343 10.911095774329748 15.515624337078963
Bi 17.024815096311634 11.63092238170428 16.10091604759147
Bi 16.601284415570834 6.551821144434556 12.379673978536195
Bi 7.262640307725935 11.208965928863137 12.104162833727917
Bi 8.895658968947046 12.255347389040926 19.132451579557767
Bi 8.277787105113909 14.808315994040129 17.55365573571201
Bi 10.256103434985748 10.834144372162589 12.38973857026638
Bi 14.357752762557054 9.159891590976718 7.146940318961846
Bi 7.070222134987571 13.775421182647294 10.412145925169083
Bi 14.525106010109072 12.031399517399677 6.378327326237867
Bi 17.05788512021327 15.237957166193322 15.11541544824418
Bi 7.378639962686905 6.983206776222739 12.462515217342245
Bi 15.654336662282802 8.831055488207019 15.920332017917891
Bi 9.587235829306636 7.872653684492252 16.01738753720993
Bi 12.937734321264763 9.870180996491666 16.922514708626544
Bi 13.465096142720212 17.773449751918186 8.936354775785272
Bi 10.433493241833022 16.499798654905092 13.640629332270828
Bi 8.912441542186981 17.362858028308214 10.963572315724614
Bi 14.331681030356124 12.59793412746787 17.2436739235439
Bi 8.683863680233644 14.0271113015278 14.62804510749213
Bi 15.288725466871224 16.525245452891525 6.870956271680688
Bi 11.186167766128486 14.337068822222522 16.759251014403493
Bi 9.374518605543544 7.905980593326594 9.25614532029503
Bi 17.134596806197692 9.67189608881399 9.504624995921983
Bi 14.151790716047412 9.858876165890099 10.12830254544036
Bi 14.242654081724254 14.285880952341678 14.66510334315204
Bi 6.553213903556298 10.42794339250914 18.592973637582592
