5
Energy = -14.71602995 eV
Bi 17.129516371074207 13.994435266253603 13.112090067426312
Bi 16.24245032307385 14.854163313277592 15.458219400122799
Bi 15.212915254200679 2.673372078869073 2.884922954471424
Bi 12.365951857779368 2.2822869343315766 2.71450106296851
Bi 13.75004428344264 0.6866000420206129 4.669312039940414
