54
Energy = -190.67120826 eV
Bi 13.92297971048258 15.148184122547889 19.00843573567025
Bi 21.791224723603353 18.765119019204274 11.09038910817951
Bi 23.0641369734537 20.22116135335217 18.67616019738452
Bi 22.228302497077298 20.94856467469194 13.167719904848896
Bi 21.169903868956528 19.174634878659507 16.496332176452718
Bi 22.113540748039146 21.66737737487333 10.2234478679778
Bi 13.23410809956319 10.019323338428554 11.423778648070845
Bi 15.658311347295696 23.42868676373582 16.557699323076694
Bi 20.83808413069505 24.589530617544458 19.091080091505898
Bi 21.100799934169647 12.038283253507382 16.10531730477432
Bi 11.366538132933119 15.297384090843435 20.61074738559375
Bi 23.5933628630009 17.92971747407948 15.12355661707149
Bi 22.116027500995976 18.94742232432596 21.496042403794704
Bi 15.560335904983255 20.656354495677427 12.698017873372013
Bi 19.59158065430052 20.751737629474853 11.658824620139036
Bi 12.365762071046072 11.288369880229547 17.5601761183796
Bi 16.516837029259097 16.757094378556523 16.6416955815699
Bi 12.396581185611145 22.101471685294705 18.57937066058806
Bi 12.041328401611523 15.975199319747 16.77202908910514
Bi 19.43196509611412 16.21270510358085 14.882061018139783
Bi 14.647099086241324 19.821176850036323 15.501358088338852
Bi 16.954768322216125 13.811305766193184 17.512541924140535
Bi 20.467079051055784 13.286145308600732 18.768229689945088
Bi 21.356569579178384 16.021744324294044 21.49675031642325
Bi 12.171316187941338 18.78341569311468 21.496368684468052
Bi 10.799434634812034 12.642073435579306 19.761154058376814
Bi 13.376871012483543 28.82359024726255 27.673544106238545
Bi 16.774625203086927 21.406574411392626 18.573635997005972
Bi 19.144016289423746 19.28863031422703 21.317731645198823
Bi 18.565783038281634 13.307220312579082 14.894315494138379
Bi 24.42442268085812 15.651841531785603 17.12238110214943
Bi 12.269076060411109 13.278410308889322 15.248046584429236
Bi 20.346172235591826 22.217713756913042 16.22984707314181
Bi 14.941013896538765 12.051894591976916 15.9972776874463
Bi 27.472779647660303 9.336883093265447 28.59091528857277
Bi 17.60782814777859 19.51054813688928 14.609763725992606
Bi 12.59102558403651 19.021243666999425 18.498329979318065
Bi 18.67365026090211 16.563972138284676 19.95389119176251
Bi 13.817025515912905 21.084472661974285 22.64316532005193
Bi 22.07251113172318 15.905205629824765 13.389705949043563
Bi 20.310679019941176 21.49879545688074 19.29989850543039
Bi 14.155639239111416 16.863724307117394 14.735196093228621
Bi 23.434174160675255 13.678917827822513 15.04523052419125
Bi 17.424722348947352 22.581266676625983 14.208790673812038
Bi 29.176662619300238 8.573460390485806 26.708418602287146
Bi 11.122210736239344 21.666975585098996 21.38457501367221
Bi 23.162129061995945 14.327395767084203 19.666659690007297
Bi 12.254606947646712 30.324069263559718 29.549607300867926
Bi 15.31791621910296 17.91098954740738 19.285872642418155
Bi 22.915723176668227 23.287285789768607 17.39392980233905
Bi 20.745257908038713 16.16791862733514 17.705622894445977
Bi 14.745979694509181 22.862767599011555 20.33438242175591
Bi 12.879981256337114 9.995415673396964 14.096006878993313
Bi 17.71568852700209 24.320519280312997 18.642725935330542
