52
Energy = -189.62010198 eV
Bi 14.550361013645166 13.36555116892895 7.514518093449288
Bi 17.755778823062514 12.160354017290508 9.554348336795973
Bi 16.965239317190367 14.994099962979249 8.668166968210299
Bi 14.430107209150126 8.85085550393877 9.6353202423121
Bi 20.62110987268903 12.999018800162894 10.261912431322553
Bi 19.632397892382563 15.646386037547362 11.491668645299466
Bi 12.196775627338283 15.34829658269807 7.449903622968314
Bi 16.86465458530746 14.259235860127706 11.75941972361469
Bi 10.480636526462208 12.864915544509534 7.918907087518719
Bi 20.454314670768923 10.958537334914974 12.542588496412625
Bi 14.198230443861188 11.867029044949755 10.242824429911678
Bi 17.776796978304873 9.469157746155444 12.341348607730081
Bi 20.79949631231592 15.229932683474965 14.28401854648462
Bi 13.621633281525748 8.844253652403733 12.558554957608957
Bi 11.75541406525725 10.045827093555262 10.445167095113373
Bi 14.000561038562457 15.709445017461631 9.918316693979277
Bi 16.173188206306992 16.679313751315387 14.193575051848752
Bi 18.90365934749679 12.854056048380434 14.300306775196917
Bi 18.46575314540943 8.598140006408286 15.231899035634243
Bi 9.339298687119841 16.385595485894676 9.97931248067937
Bi 18.897205796774816 17.140084573252604 15.69373230844764
Bi 9.834238946110553 11.321426285585954 13.49820387751442
Bi 7.809446699469378 14.370318429544103 8.22525869697358
Bi 10.510965122340037 13.682786792157405 10.89897790382662
Bi 19.26359368600245 11.075140775660572 16.77705732547745
Bi 7.43003242480693 13.07405269970693 11.024798695126252
Bi 13.194943919196497 14.98764527321563 12.992475510155439
Bi 15.471029721471682 11.22666545502314 13.445751732061948
Bi 16.07002456364903 13.98485304152519 15.647360162109967
Bi 7.2113871621811025 15.864561468107956 12.198225389472853
Bi 14.68126548368582 18.311048537673667 16.639937576844158
Bi 15.449117081647632 9.307632895113287 15.863583137628355
Bi 16.47831803165347 10.962451465408916 18.18762558222529
Bi 12.6190956762886 17.892928136114875 12.240107386690406
Bi 18.11887108762379 15.000409831934155 17.712703717693724
Bi 8.881892725572996 10.107374159876716 16.207861407086774
Bi 16.534961846987688 17.36100364676493 18.8672771339693
Bi 9.66310522567458 15.36446146920336 14.088028044916772
Bi 7.288463872923306 12.440105091924986 14.86439040246173
Bi 9.715411666554884 18.470750512807953 13.101453571286402
Bi 12.181183556515926 12.387867093100581 15.222108461046101
Bi 12.90322832616824 15.83541105438677 16.31135573406093
Bi 14.712235961698733 13.509428184002871 18.45745880103938
Bi 12.255721871993716 9.621456425186617 16.621911469864383
Bi 12.097524949360682 19.786164585015587 14.579492383493038
Bi 8.073592634663484 14.7289468256402 16.639665680083034
Bi 12.490776462614553 18.782156982000977 19.145235327628452
Bi 10.465221265046925 17.802830129622194 16.21489186540158
Bi 10.233407050897274 12.553855649451409 17.5783237836119
Bi 14.182426389377547 16.848181074996752 20.730137633698355
Bi 12.840182999154875 11.15383630166693 19.104541341996946
Bi 11.73784694525589 15.857637032974491 19.210413400520792
