5
Energy = -15.96696001 eV
Bi 11.499994953572063 8.484464824757014 11.729266159880067
Bi 10.295008183886335 11.259466246959818 8.076736325399354
Bi 12.081129402152708 9.066933416419452 9.000259754364695
Bi 8.54826955017647 11.942465655632635 10.210665994383357
Bi 9.044647647363877 9.939294792922688 12.289704834667388
