6
Energy = -19.92042324 eV
Bi 10.198363486798256 13.52325499323519 11.303569409961709
Bi 8.46175341914987 14.202786170312178 9.392193432779957
Bi 12.534466466885368 9.03643524300685 9.667392669074802
Bi 9.676674327876098 8.3745617066682 9.033868475592085
Bi 11.050493262857067 7.069994903771979 11.379878630474934
Bi 10.311831611955913 10.029435675377798 11.457420685924125
