6
Energy = -19.52595509 eV
Bi 8.57590509700356 9.26984826156209 8.424345704701338
Bi 10.539865232296618 11.43880295526926 9.148613559767679
Bi 13.080703837750352 9.65346030084215 9.941180120358243
Bi 11.64896222664766 8.2303621126371 11.892702404966178
Bi 7.338029409262281 11.862212011930708 9.313020537163027
Bi 9.022361109823484 9.93059386230807 11.331900457295433
