6
Energy = -20.60389205 eV
Bi 8.305691352392193 11.036636014993913 8.465032849194861
Bi 11.219811850617607 10.278739213520307 8.132388960296147
Bi 8.362831888142972 10.480890854653184 11.440398267079436
Bi 9.707252889333011 7.792395301183829 11.717137020426293
Bi 10.395399565077767 12.344730223609462 10.186937023361704
Bi 11.567628252052595 7.6869766983379195 9.638604567140055
