6
Energy = -20.12847066 eV
Bi 11.538322747511017 13.01471581094411 11.134625800217993
Bi 10.041828936926635 10.741773778836103 12.391605016743622
Bi 9.089079882833635 11.975511055074195 9.7419693797635
Bi 11.571213644186932 8.610628848765462 10.835929982877044
Bi 8.950496578425778 7.825946066398852 9.607232176074238
Bi 10.660169709621481 9.857243787541224 8.200877325469046
