6
Energy = -12.4469554 eV
Bi 7.3391020594694965 10.008414626502981 9.444509431210404
Bi 9.71992947144093 10.219361844568189 10.668584261253722
Bi 7.8468510576088475 7.562713963318761 8.860448914719163
Bi 9.49465091137702 10.777123270357269 8.0560530909508
Bi 10.207683188308636 7.759396992307569 10.119698782630744
Bi 10.033130017310015 8.324875210582 7.507439010195816
