6
Energy = -20.00576806 eV
Bi 8.654898618241992 9.296683710580213 8.829107007024792
Bi 10.282928081784739 7.62386493150053 7.487822207638646
Bi 4.374691122451906 5.768887620697903 6.206784993727907
Bi 6.083810590986172 8.250520289921273 6.058680070417375
Bi 7.480046914178308 5.6237886139786 5.98426121636782
Bi 6.1966047013288055 6.516080539928767 8.51321960804184
