6
Energy = -18.74160021 eV
Bi 15.918172535621947 15.368206426823342 14.633883702077723
Bi 13.155103113288597 16.06591123181547 15.60837986684656
Bi 14.64683451797929 3.1315483333490772 15.591807090376133
Bi 15.641522975630235 12.90844199093826 16.16092377804904
Bi 13.354616959317372 1.3628700592600136 0.08042831445972413
Bi 13.896243191756112 14.386200243564462 0.7492016311568904
