6
Energy = -19.7592203 eV
Bi 8.968600885704296 8.459893618474608 9.411037909254867
Bi 8.980663466024147 11.878852347151565 12.244203118092175
Bi 10.356696279879081 11.127302387583114 9.64850358682854
Bi 10.877034183412949 7.362131209625145 7.312188394727639
Bi 11.469477606508654 6.839433113516894 10.00245143772213
Bi 7.817693427154377 12.795077644252112 9.862751912362882
