6
Energy = -20.13259797 eV
Bi 8.945559623785906 7.781314930825713 10.331742719387073
Bi 9.14309973428529 9.432970125288918 12.76878264858282
Bi 11.403582265433535 9.389367297324618 9.25598048793078
Bi 10.500950742742921 10.190046484102503 6.552073478215743
Bi 8.548543758467979 10.460897082540821 8.760066487678747
Bi 10.245618697636989 11.622162365128759 11.147512983919947
