7
Energy = -24.1708429 eV
Bi 5.884618668302248 8.167833148781083 7.577701102468992
Bi 8.163684946391284 9.613545190273612 6.281883190426265
Bi 7.896774766806085 5.803788854792938 8.40382614916476
Bi 10.13757605202612 7.294621875110564 7.091699010853114
Bi 7.094113935068222 9.900515239448222 9.698981087456229
Bi 10.056133117011182 9.939116891068403 8.734551768272057
Bi 9.066734781810798 7.580215067941476 10.510994656526597
