7
Energy = -23.3481176 eV
Bi 7.855116880311018 12.001739912160405 10.515997721155692
Bi 10.36904662154444 10.73508528379063 11.990780726874323
Bi 12.47929184929851 10.926000759989071 9.833823493568383
Bi 12.731297805258816 8.528606107295138 11.577097264159844
Bi 8.246892009547903 8.963823104029277 10.458021312304867
Bi 10.692878369070604 8.898009047861631 8.445584149993982
Bi 8.218808646797283 10.580156044937853 7.846554476229619
