7
Energy = -23.70287067 eV
Bi 9.59117019929849 11.767577864487652 8.234923169166931
Bi 7.179276011522956 11.055309013640759 9.801122765923306
Bi 11.349424701260238 9.31790549414749 7.7053134057454615
Bi 12.061657594235486 11.068197220062281 10.028452093102722
Bi 9.302924497592372 10.77539796205654 11.83483305341459
Bi 11.4617420713484 8.030316188479647 10.47938735474868
Bi 8.777166151642492 7.8691942944949425 11.73020567429364
