8
Energy = -27.87698297 eV
Bi 10.436016280083564 12.296336059978437 8.213288680637978
Bi 10.073117511099287 9.579604708735044 6.939547957533483
Bi 11.746657011581421 8.322049637598122 9.140931253901906
Bi 7.924442504396442 10.62403038631648 8.910699134281696
Bi 8.869514775457812 7.958779312349721 10.41277370251531
Bi 12.123937787338663 11.027407273368759 10.397006146167824
Bi 9.284535465477152 10.956978523392445 11.797044969621089
Bi 8.898897782942893 8.475703683977047 13.287532556231756
