8
Energy = -27.89438138 eV
Bi 11.054774489294944 11.793386027702807 10.59186015373631
Bi 9.486287021887856 11.286085389008699 8.05000290191632
Bi 8.745760964224603 8.143857950586911 8.943154049225445
Bi 9.340456374223516 7.484218521689845 11.83714265958043
Bi 7.010922133641075 9.228544678046873 11.17589832800937
Bi 9.388096930245336 10.429150048411842 12.691304390304705
Bi 11.971117140335574 11.171259649900682 6.44757095866947
Bi 11.885765613106152 9.460456611401137 8.84768988652091
