8
Energy = -28.11343803 eV
Bi 8.749883165997629 11.905622564152704 11.67992028526562
Bi 8.493692971398728 9.948155147007856 9.398982528375575
Bi 12.224816683558261 12.764693748108254 8.651237127066807
Bi 11.352505837002154 9.910088545122441 8.437945043534706
Bi 12.351306321615276 8.77083212541476 11.08129006323161
Bi 9.475494200084787 7.840024808051476 11.45553994123722
Bi 10.65089809516834 13.97419843610133 10.651134174120738
Bi 10.646059067909805 10.0563921383066 13.186050810304954
