8
Energy = -25.16625908 eV
Bi 16.981773093176514 15.3900440472784 14.054012329153126
Bi 14.670970029697703 15.550274380531498 15.838271325034263
Bi 10.000165333826423 15.87945330785788 2.501632398100189
Bi 12.35260208219759 16.950277096030298 14.386396978687268
Bi 10.600953304597821 16.671634584477154 16.993958341321004
Bi 12.264025622911067 14.580709889449158 3.796516613033504
Bi 12.970218995743599 15.240761330149548 1.0418950336919761
Bi 14.789710330078517 16.742777200742836 12.687273636209142
