9
Energy = -30.90278345 eV
Bi 9.756675970920831 10.202650917424348 9.969239463385774
Bi 8.946271893884662 12.474982321586547 7.919593146355257
Bi 11.082674317824454 9.030759321303963 13.430484042688098
Bi 13.720100301134684 9.973506512242972 12.229906394960484
Bi 10.858348277879424 7.464434657624229 11.007355635641462
Bi 12.712340753851885 10.904162525233064 9.499934152121783
Bi 9.752034592081435 11.919432084334652 12.53300961610847
Bi 12.611005287142738 12.813643672172025 11.820123147811437
Bi 8.877860825266232 13.985375039017153 10.238960177124765
