9
Energy = -31.95595292 eV
Bi 9.528568091445631 9.78341656191745 12.235008049317418
Bi 9.908267033344261 7.888005580875244 9.902825084683942
Bi 12.802423193863005 8.569342221639385 9.305732154340955
Bi 6.75993747553268 10.377215793850453 10.5084799800258
Bi 8.019393187146076 9.298916699775603 7.996129860509945
Bi 12.871874155355437 9.500154778179885 12.160039600226602
Bi 13.061286690849533 11.516425667127823 9.939113666930238
Bi 8.253687670498005 12.235213924518192 8.674732856517785
Bi 10.312578453931133 12.381383081671537 10.893044070731188
