9
Energy = -30.90039054 eV
Bi 12.341703506777282 11.80203983116423 12.065985245890067
Bi 12.528364940930409 8.75010443876744 12.392353056346701
Bi 11.766971093552026 11.567393293522676 9.049937741741516
Bi 12.456884359972648 8.348978100739 9.378677055238457
Bi 9.844794997119623 7.214702775812459 9.891688752395702
Bi 9.866592193720335 10.234190539249933 12.734307729619793
Bi 9.077029725043484 10.250663914972337 9.773506588569774
Bi 9.874535823440416 14.083815432461996 9.665546881381475
Bi 7.549429367416306 12.911316824154376 10.611146231641166
