9
Energy = -31.47226313 eV
Bi 11.481973968341363 10.62644670775768 10.510765754148965
Bi 10.05032282612687 10.389066094516712 7.798577246574889
Bi 13.482966521919144 8.133066025451166 10.274575716113342
Bi 10.697804880659389 7.883066607705363 11.580945214524874
Bi 9.568820896942809 12.765210631283678 11.921866477788203
Bi 11.135927738445865 7.425018269529133 8.63567310056112
Bi 7.2712340023802 10.435281196628557 9.054548782329139
Bi 8.762816775574157 13.086514975215946 9.074315497731734
Bi 8.02923988143859 10.159817076121293 11.989872226629641
