9
Energy = -31.69393239 eV
Bi 10.440038711582725 13.552228605115383 9.583602208057943
Bi 9.878842927567447 14.168962406432971 12.484527490267002
Bi 8.823175413279023 10.736276292801742 9.796048582091258
Bi 11.74270957875296 7.285366545895513 10.465334828710493
Bi 12.40382428695238 12.73119427092968 11.727583644896159
Bi 9.976132771129059 11.11513392732819 12.597743093625342
Bi 8.738643114604047 7.546449891310528 10.476697732584983
Bi 11.388562998288737 9.636201254035736 8.566187788730272
Bi 10.199615592331998 6.891819020839643 7.919307527296056
