9
Energy = -31.46145538 eV
Bi 12.479509957065163 14.336015327175009 13.567405053402274
Bi 13.082895709393567 15.567934934958691 10.893397733178286
Bi 12.88891769154793 11.516201104664361 12.4092577036723
Bi 11.76187627866831 8.012458978333642 10.458064958976292
Bi 11.991227054091675 12.928538472115731 9.86274950200013
Bi 10.169818217197387 12.728983334424965 12.303520072016207
Bi 9.33014925509071 8.839444270746325 12.005052113181636
Bi 9.6270926342985 9.649991115364028 9.119204583413351
Bi 9.08605933361364 6.760154007619581 9.822683084400547
