9
Energy = -29.54191466 eV
Bi 13.65607668001522 11.850797792926612 9.658782192823113
Bi 11.3509772363856 11.008334087909134 7.888179849713687
Bi 11.44686860036862 7.484020619857286 11.115432320445336
Bi 12.571085831802408 12.805575160877563 12.152577398943226
Bi 13.018068171916623 8.785855485755427 9.079252451129056
Bi 9.613098753407582 12.177753256798065 12.226509440757093
Bi 8.936287689991557 9.100347913288607 11.599089437161588
Bi 8.714807418011501 11.253437023228107 9.505914043860246
Bi 6.553158775383409 11.168120977078758 12.273405352998381
