9
Energy = -31.39358127 eV
Bi 6.980843194245116 13.115417897156007 9.217050616810269
Bi 8.14972875547875 10.969121885970521 7.471982494393875
Bi 7.904334802910261 11.393500909176788 11.511459137124362
Bi 7.169362875128717 9.129595601488818 9.647660635222486
Bi 12.40511681209506 8.422197424396272 12.290992929327093
Bi 13.472057906774179 10.627998936682227 10.527579935648841
Bi 10.22915988239077 7.805379301261371 10.140290200219205
Bi 10.3799388404948 10.773541970060258 9.72060796773411
Bi 13.372177040162528 7.8246340049551675 9.537264631460319
