9
Energy = -31.1987038 eV
Bi 7.056336654658017 7.784264433887282 6.982326746794298
Bi 9.834612126350926 6.680336148345264 7.477676816097251
Bi 7.482198965844333 7.769514963522039 11.507646449659541
Bi 10.330769693675782 7.406654688291781 10.416649723909215
Bi 8.448819413717807 9.721400501362144 5.205501070392878
Bi 7.025806287220355 9.904026477671339 9.346811381627264
Bi 8.281836318064164 10.533068668227113 12.339841662833
Bi 11.004188213106561 9.327534737124374 6.540051986578265
Bi 9.987382323032202 10.325149881569052 9.63544415777857
