9
Energy = -31.36993396 eV
Bi 8.606457642159137 9.616993863859252 7.901551948510656
Bi 6.632224501206833 10.64045028699215 9.926989740601844
Bi 8.009942215802841 12.372803389062641 11.738324539660523
Bi 10.972181341733613 11.445422158270722 8.051708162206062
Bi 11.176102993807856 9.290637540755135 11.936180064431241
Bi 11.902630055941744 6.9146378290120225 9.896140276681063
Bi 13.0145027509075 9.64884084433265 9.462468734872932
Bi 10.828549679767356 12.346501234840128 10.915347050590878
Bi 9.023297224904798 7.889600852875302 10.337177753265502
