9
Energy = -31.36165634 eV
Bi 11.829421051634503 11.242715256983368 8.730943469901295
Bi 12.154733044909367 9.962362407368754 11.418391209286563
Bi 9.830889894885296 13.444425293600435 9.183825271904558
Bi 10.943731756755456 7.196639820817465 10.901350508727626
Bi 9.373462653466506 10.259035844330114 12.527586438828209
Bi 10.162299190475208 6.943672000687419 8.026421902715194
Bi 8.302388419633857 12.800866547251132 11.500552770140407
Bi 9.352809590684332 9.860480151024092 7.7112787161259275
Bi 8.215580103515375 8.435089642812423 10.132517672745907
