21
Energy = -42.40500170 eV
Ag 11.316636577459008 12.749299030821824 8.42374316806081
Ag 12.755648742104958 13.734681897280174 10.657707113483097
Ag 11.887137452108906 9.938486637018752 7.890581351157902
Ag 13.565755417345027 11.256506546627426 9.630116530053984
Ag 10.751165189976776 11.168066553664444 10.592185333282515
Ag 15.26895575567413 12.55593468199491 11.369109437231275
Ag 9.912836808187736 8.405682385483553 9.133338463573455
Ag 12.947940836075253 11.584858770121796 12.488480714639493
Ag 8.56334139668515 12.871065911840416 9.317087112456807
Ag 10.158371152009034 14.656505728277168 10.616337889077233
Ag 8.10712797379067 10.25386965979443 10.406440104012791
Ag 11.11159406977533 13.63624149172621 12.982107004222692
Ag 8.653069864072004 12.618412015578777 12.074460116431931
Ag 9.253964330675931 10.719796495978908 7.768386342137048
Ag 12.393127375865616 8.779477896152018 10.42316808370835
Ag 14.734887218884268 9.641485284105665 11.69614906579667
Ag 12.392226411372757 8.928383984844606 13.222971734877634
Ag 9.909712096505318 8.637227500094035 11.880122763665435
Ag 7.871323142609614 10.065452618448568 13.207825373194535
Ag 10.4600863872585 10.996321462782717 13.555732114557733
Ag 9.909689768206421 8.536188089192946 14.639327242811532
