45
Energy = -97.36517657 eV
Ag 13.15052239405041 12.752037704723252 11.202081987664268
Ag 14.319338026021622 13.580291723313223 8.652821008340803
Ag 9.178546153845245 13.226915350344498 15.057354674458542
Ag 13.821062386157896 12.750436584540425 15.078695458928722
Ag 14.842206934608335 8.107495919908313 13.595155243310789
Ag 10.220799940529409 8.011394448465884 10.300771397184018
Ag 15.761096612883602 12.734032922111815 13.045419955082009
Ag 12.331961401101497 15.722456434029807 7.829427721362066
Ag 10.04180013537208 14.14006985051448 12.514920501562884
Ag 7.936794760357617 13.405812171886861 10.720781368686689
Ag 8.49680709904961 10.35202484202707 10.38407749270466
Ag 11.728291629800683 12.874108911251502 8.047502537561105
Ag 10.513147583880464 12.238582780903588 10.593051251308928
Ag 13.064069824580987 6.25963403906808 14.763985913306875
Ag 9.945909409996844 14.635591471669041 6.79849786885225
Ag 13.828446827329218 10.648722897181123 13.040300253234758
Ag 15.620205149214424 14.545745474854376 10.891424833602239
Ag 10.200526816703325 14.81935103956647 9.557751176523649
Ag 11.65982055526126 14.531985626970807 14.756469632407391
Ag 8.949603019550187 12.439400547947114 8.250793043965569
Ag 11.032317501255568 8.120748235992515 15.002723232023408
Ag 13.781365406835974 11.03400151020246 17.31973929727615
Ag 9.530401204005981 10.444324135961931 15.284076482127906
Ag 15.571542346267348 10.490363606919333 15.207859541140527
Ag 8.751933009232006 16.297802733634914 11.462355897545072
Ag 12.256003072941057 7.661053541470246 12.475572985471064
Ag 15.017931188467939 16.24926553297729 8.63983933263641
Ag 11.416951004387757 12.242569455808999 16.418242886040662
Ag 13.800298914134038 14.80453097753729 13.074416841135895
Ag 13.56629865136778 10.869739329523975 8.82310864732744
Ag 7.340554692625229 14.395264059492325 13.270176069771859
Ag 10.735882570524474 10.202767839588716 8.508299901466605
Ag 13.620246000995909 8.609614670040337 16.07447866807534
Ag 12.720979378442513 8.196566377059815 8.974406727184421
Ag 8.300125888613511 11.672139967450175 12.923878873609096
Ag 12.010381869904084 9.99633644358291 11.09084095349504
Ag 13.019304281307067 15.546029436939383 10.467090452464088
Ag 10.979102403256732 17.409407347192133 9.97809782082863
Ag 11.3241653850363 9.615094630482968 17.32130032487046
Ag 11.504003594263539 16.45075072548498 12.620536436995037
Ag 11.31503705742263 11.784718938434926 13.425086854374237
Ag 9.765892510163223 9.257214353187823 12.756019810378655
Ag 16.5860922249425 10.10591676682576 12.56418192910042
Ag 15.75634701475306 11.71629356850313 10.389641895453828
Ag 14.651769342654518 9.017278248523908 10.812627993255319
