36
Energy = -75.24643429 eV
Ag 10.963816466803722 8.386204385651583 9.893418574768171
Ag 10.213694286889108 9.575393039219751 15.27489820976131
Ag 16.683313091563644 15.871941815122842 10.0409650437069
Ag 16.274141077516937 13.34404466642148 14.338108685658543
Ag 7.831225358355173 14.139943351028228 13.04612013718165
Ag 11.024052957150337 11.113786699591428 9.726757993523641
Ag 12.48758210834887 14.882319043506014 11.737891938598352
Ag 7.936003996978388 9.36546077450202 13.654525426305794
Ag 12.623225351985399 9.746495956572558 16.708850836158224
Ag 13.101380360319835 9.820471944226533 11.288069573621591
Ag 14.581676342481288 11.275997412507209 15.131253257227584
Ag 14.906607423918945 11.945984290291744 12.375193348500202
Ag 8.684008124061442 7.7354410785949765 11.355027448533594
Ag 8.94529669784386 12.303265291872101 8.349504516427226
Ag 8.31839925499669 14.793774885735694 9.336327793036652
Ag 13.511240274376323 13.788933810918483 14.103228434718092
Ag 11.81093262213862 12.161340736589805 12.370401005592864
Ag 9.791961627382982 15.50967036339439 11.550133408272526
Ag 13.221069872955567 9.787932115202668 8.549436459719265
Ag 8.383563374353354 10.225271872247289 10.234015623753692
Ag 12.731387315468885 9.580858494059854 13.980657831253795
Ag 11.740274383181637 11.995944749245686 15.287866663409378
Ag 13.44133858959502 12.450259252140363 9.965603508561015
Ag 15.349749007926789 9.31709051953334 12.954438724008044
Ag 14.038540937763173 15.102298587476353 9.472880687819474
Ag 10.402416154413828 9.73997057216605 12.316876254228513
Ag 11.180675274543646 14.050935271612786 9.362007811379161
Ag 9.212781645874538 12.786007445524305 11.106357055946212
Ag 6.152209414083064 9.008761249563431 11.614911194088243
Ag 15.585347208900842 10.424150918211359 10.110612658270492
Ag 9.224399669504539 11.862106617424333 13.902783366618213
Ag 6.876657176972531 11.632218158689687 12.27447282603054
Ag 10.697260062051335 14.274055552287283 13.878687817294725
Ag 15.24579578349651 14.82460546231545 12.141641706608688
Ag 16.14806615186672 13.178275978352483 10.082366744358358
Ag 15.72996712221152 9.090891371672308 7.768774297240876
