34
Energy = -69.60899537 eV
Ag 15.183494816807022 10.128798706651429 15.615533479932683
Ag 12.732279058511038 14.55296427581511 8.418146548969046
Ag 10.16164703057682 7.615598162460543 13.701405680068577
Ag 16.315512941611985 11.362301306668057 10.279354582209878
Ag 10.59464959291839 12.017600542463715 13.05607689443356
Ag 13.217062110358931 11.381926519017531 13.968945330295838
Ag 8.848080472204723 10.23154255587659 8.914169297391188
Ag 14.46662260754106 12.73864637855569 11.742347468633616
Ag 11.826134013387188 13.345763693899155 10.747695338533957
Ag 10.813275290118403 12.452900758754694 8.143005474442417
Ag 6.99681004267563 8.231751011814415 10.08452912307584
Ag 10.823605888914226 7.567350370484276 16.378676213105564
Ag 11.703330848479892 16.447565608206475 11.653289018677743
Ag 9.838278501496562 14.600294904277181 12.34780995691027
Ag 9.202437135051982 12.541102267568432 10.458989045670293
Ag 7.534972399574663 12.99407471330141 12.620595475663368
Ag 15.560389686757993 13.803088572614138 9.134472479226586
Ag 12.86575751074693 17.13226007891918 9.207846118396533
Ag 8.188659110053013 10.704317260184803 14.002408127442985
Ag 15.786221512407018 10.636008571511175 12.997958509303299
Ag 11.798157779068518 9.416271684627224 12.520473255013638
Ag 13.597711956888574 11.84687959214005 8.856694252816213
Ag 14.045828037799454 15.303412853621493 10.92305873278779
Ag 13.956539424658459 10.058047763376788 10.958112992679757
Ag 10.653318025549536 10.106741938067309 15.092222930238002
Ag 11.395607114794013 10.531248383107064 10.041785160522648
Ag 8.298926975015972 8.44627406248925 15.626941015178796
Ag 12.618505928373402 14.211804046988878 13.241915926941912
Ag 7.306841688707879 10.606299901836087 11.326604120539361
Ag 14.782744291426924 14.872139911436483 6.690752888184426
Ag 12.996575868703747 8.660819425533557 14.994682797022486
Ag 7.496011666874389 8.179879698060052 12.888044876684317
Ag 9.582570868223653 8.621130992960438 11.105338072057878
Ag 12.846197079990661 12.845305564091634 6.274059483179325
