22
Energy = -43.83618144 eV
Ag 15.829644409572788 10.832051701894228 10.618592530090803
Ag 11.596667747017818 8.758183132433183 13.377894614531453
Ag 13.767368027065238 12.646066884156577 10.270909700672092
Ag 13.435915181075627 10.382030132816098 11.988217914673147
Ag 13.64166045769718 10.012614782396227 9.182487433637299
Ag 11.614989745145632 11.852905576678944 8.64850700024674
Ag 12.387992880814245 11.099563424973505 14.569952572103894
Ag 10.510004149604661 13.19994348494543 14.733554067946022
Ag 12.211382506950741 12.896819071802552 12.505893807652381
Ag 11.35018318576378 14.15347842525571 10.155684431720408
Ag 9.401566537020328 11.527844098430124 7.089469666711332
Ag 10.827467968911314 9.371165378537324 15.972458887994572
Ag 11.235739573627017 9.188098729660659 7.942849615540482
Ag 9.498460968925723 13.352203633348756 12.17729959744921
Ag 9.082385006560733 10.030620152033904 9.433909745177575
Ag 11.646057869175738 8.679507087538294 10.646244548775556
Ag 10.330697500624694 14.101636568391495 7.493005698818948
Ag 9.659111296956226 10.772739099275705 13.7317559028774
Ag 8.900133481258958 12.868293423458757 9.549726153253719
Ag 9.133649411744802 8.67996867542545 11.905456752042472
Ag 9.57313025723593 7.323275189962582 9.426506198746889
Ag 7.914588033301952 11.197202183715085 11.609068355707699
