10
Energy = -17.72702601 eV
Ag 9.947990680562603 11.519869277065421 6.403160649559705
Ag 9.423061998674612 8.927904372779544 7.170533824264664
Ag 8.539620288838755 11.064956199814949 8.708970565114091
Ag 8.63689501808797 6.458243674232594 7.9460796181282
Ag 11.256813627106219 10.3102537311569 8.761757081053275
Ag 10.561922294591827 7.706122778152235 9.527734504883563
Ag 7.799642167024131 8.413102456093922 9.677817323851619
Ag 9.783535041938553 9.797083617751397 11.096647872105027
Ag 7.142439022843378 10.738253526849617 10.985683440803296
Ag 9.010011771985836 7.166142277757829 11.823547031890703
