50
Energy = -109.53957237 eV
Ag 11.227807766668887 8.727767451939506 9.266294345406415
Ag 9.736211884668652 10.226206602274445 7.327154977212219
Ag 12.542142259167962 10.46057469580345 7.374138996557513
Ag 10.16893032595164 7.855660788675403 11.817007163106394
Ag 7.082292851431008 10.478295916663035 8.110134601225559
Ag 12.925711121558484 7.455220033442323 11.35976426747544
Ag 8.387974684459115 8.68237307570912 9.790760418861845
Ag 8.139005519685785 12.49961324978284 6.521197480180379
Ag 13.963508945589968 9.467309018946096 9.714885559656217
Ag 15.792222968012931 7.707530126652916 11.327713713827913
Ag 10.81099514388924 12.814988105611619 6.913372269458889
Ag 12.14812617563814 12.252663174354437 9.382597192011607
Ag 11.780984973975194 10.238523946313412 11.593411732980556
Ag 15.25881498781623 11.69200119544908 8.710599436112076
Ag 9.516714672741701 11.218048729602494 9.995095777351267
Ag 11.98035597295537 8.2708493427669 13.957875701919237
Ag 7.35906385077695 13.101328105872769 9.138105076349376
Ag 13.572014055348122 13.129436596065373 7.050518912575883
Ag 14.589783539927064 7.119005231059103 13.81011818850065
Ag 8.560134741728614 9.967765913840054 12.390291874077645
Ag 16.456154383636566 10.409029625600892 10.997448992688906
Ag 6.644099599177688 10.988711966997915 10.792790104948164
Ag 14.263470350830188 9.622038786603639 12.701769872693633
Ag 8.99922428892238 15.002098289538338 7.599558259553814
Ag 16.589448710340143 9.361140442227914 14.037433589893972
Ag 14.155423784937296 12.021935127346097 11.22509813714476
Ag 14.437710695936046 14.304434160599282 9.571588730307784
Ag 10.004360507295887 13.968959721999383 9.91906388647149
Ag 14.060772326449502 9.215477077730858 15.617757829533131
Ag 11.96316208066976 15.104753063068056 8.204093566184865
Ag 8.35674499697662 12.923539406102979 12.07138447110693
Ag 10.745930769953892 10.935805417474135 14.09458678622552
Ag 7.765448523443632 15.562520233761049 10.32778394505938
Ag 9.270404869576664 8.701620153020702 14.750848311069257
Ag 8.0267194273165 11.488137499232593 14.60687586469691
Ag 11.382055527215435 12.948791406542439 12.117525362958926
Ag 15.623705249544004 11.455735773030689 15.870264749664543
Ag 10.239314811353003 16.736254950277413 9.672140974510372
Ag 11.419227226694197 9.40172047009967 16.466328735983037
Ag 16.095689840354893 12.072161037799656 13.250013374686999
Ag 13.320020986561616 11.96600042086676 13.945366243290087
Ag 12.428989483730996 15.51360038485728 11.045866177622887
Ag 14.53538231166624 14.380507075531087 12.560173625224335
Ag 9.847894865489266 15.496665983102504 12.304872129263874
Ag 9.795358105379783 13.669264036744831 14.479959493544749
Ag 12.980099606381994 11.681081175314718 16.812935374724365
Ag 10.046492226207459 11.838862554933058 16.663115536664474
Ag 12.19365556660822 15.018714864967006 13.91997194548435
Ag 14.34776113765745 13.944418208333806 15.514562117432234
Ag 11.700270073996538 14.118169242907289 16.54444714308654
