30
Energy = -62.64108549 eV
Ag 8.153340340454678 11.119667940440111 9.237094802657168
Ag 6.909325194825719 12.121006390378733 11.614398565904368
Ag 7.134329320561347 13.73423875634357 9.336443906264684
Ag 8.143043869884364 9.389255852042261 11.588616479953279
Ag 9.702743723674317 10.361148716067765 6.9772191419315135
Ag 8.550387169148754 14.593515455527669 11.57221728160211
Ag 9.678709789816432 11.881036959547451 11.56867205415939
Ag 8.186985358365172 10.986490122013286 13.88774205170597
Ag 8.59084842819476 12.909760875889921 7.131840064019173
Ag 9.559144970177874 13.507003903710531 13.921499137641753
Ag 9.645833899479113 8.62342915676007 13.925206712645275
Ag 9.683174993315372 6.977241707342706 11.615007942616826
Ag 11.093211944864345 11.163907294472049 13.92434358701254
Ag 10.033624947211667 13.963964718334665 9.29527970099994
Ag 11.361572989953133 6.450989603298414 13.91801254534019
Ag 11.1042409187252 6.256157839085195 9.303670636282634
Ag 11.34726779718152 14.08023663783327 11.813792489480754
Ag 12.65667505454312 6.940505437445061 11.537471029787195
Ag 11.127312901359245 9.40771902655125 11.521533986597364
Ag 12.793143203175916 13.443086595969875 9.540746805189263
Ag 9.591938068550224 8.622173609996992 9.261751652289139
Ag 11.163849709655034 11.184413278679314 9.300734848415779
Ag 12.75798160472781 8.941719696315081 13.677661713109257
Ag 11.426060811290643 12.911439434396993 7.028593743618927
Ag 12.902157924680905 11.608155278111868 11.81599832202721
Ag 12.753819429246649 8.527147095856773 9.152521511652111
Ag 14.311303866593542 9.183550873828244 11.3988107989093
Ag 14.140159288590276 10.99884645022231 9.311363734213275
Ag 12.579112395840122 10.373217799430853 7.021641301631433
Ag 11.10377477513039 7.8794527008738635 6.993182728091649
