37
Energy = -79.33766299 eV
Ag 12.306901913902495 9.039312113412615 15.599510199726858
Ag 13.722476953875415 11.175341357540802 16.629267455464735
Ag 11.052988968352881 11.524920239179531 15.614071948462623
Ag 12.483609969493505 8.003672480131826 12.9997566198343
Ag 14.601441607425803 9.716670334945979 14.148370560344718
Ag 10.115710452533477 9.302132435856032 13.94529380630582
Ag 12.707724584455761 13.738850691573534 16.184183554605003
Ag 9.907100710219769 7.208723808061943 12.094667281021893
Ag 14.525514185069884 12.552016859787676 14.369822232610774
Ag 9.007612477979006 11.799544798825453 13.703401499822746
Ag 11.772469224462402 8.275524416738637 10.29244771801002
Ag 12.33091105379096 10.95268109997847 13.057355829777302
Ag 14.273172523885421 9.303680249984058 11.289721846113093
Ag 7.903391227777538 9.232009546495368 12.21386906003923
Ag 10.399269139373281 14.053256769081726 14.573945825323253
Ag 9.980418436284952 10.688615256877371 11.210750949191635
Ag 16.045784706483765 11.263666292633259 12.313218739016104
Ag 9.001150975895388 8.316017230961132 9.71305930174786
Ag 7.278277746970425 11.859700236071287 11.55996743960555
Ag 12.490174194345924 11.2954272847771 10.270361827161711
Ag 13.542668966190638 9.435927145184142 8.467676561584115
Ag 16.74200940419785 13.476424826648927 10.71481472373366
Ag 13.007650613467693 14.816501997087164 13.62983883785556
Ag 11.236179567102065 13.273255140305222 11.867014592704347
Ag 10.775466060285463 10.047121717374973 8.304465376285394
Ag 14.15579566904014 13.187712215807752 11.698436738201298
Ag 8.567685115921503 14.237877442878059 12.281228496291023
Ag 8.103283253942932 10.895273004665281 9.066174298020423
Ag 15.237933895306847 11.41193082668443 9.551650152132837
Ag 7.749099989661276 13.72003057995392 9.576834110203812
Ag 10.314647692445998 12.706444149152146 9.017073556655465
Ag 12.909374657619848 12.116101140296147 7.681386010252695
Ag 14.546086553428719 14.055436170554087 9.01630439214211
Ag 10.70896550077141 16.06076054105205 12.637696186970658
Ag 12.774750593572694 15.463810989255347 10.784800235419208
Ag 12.018267535743906 14.752113145007387 8.181478548337708
Ag 9.99794863445497 15.335430220911533 10.033998244757427
