19
Energy = -76.20836191 eV
Ge 12.135749834117668 9.789195490762385 14.94569582777969
Ge 10.85829518408486 10.174148942842447 12.737797442935662
Ge 13.87080485501162 9.715449394846527 13.116536796972706
Ge 12.82062888502434 12.064817633159553 13.923866809991308
Ge 11.286371625077868 12.356110013298375 11.426477404077506
Ge 15.099741569347763 12.050987661645665 12.471334318093504
Ge 8.04465766917217 10.84341399326911 11.9936267836646
Ge 14.840967356585459 9.926369416837986 10.723370886565004
Ge 12.285779046590882 9.910176508905328 10.578988913984888
Ge 13.164796162915128 13.94859611249394 12.13087609915689
Ge 13.826778229178325 12.33965748062036 10.038783432056265
Ge 11.284145024366122 11.965581233270653 8.7316319171913
Ge 8.930470108743757 12.861717753626806 10.18538410077729
Ge 8.910171889790416 9.491743869888687 9.984207812510212
Ge 8.81386247222165 11.269791776931637 7.726925654420736
Ge 6.793102751390239 11.360342180935202 9.54577267336291
Ge 6.43253584697787 8.971322602123264 10.623109203118355
Ge 10.93648763805825 9.335122599607036 8.426712053047543
Ge 7.130168834215003 9.12744953104958 8.091243946004276
