15
Energy = -60.47487812 eV
Ge 9.677176289696405 8.931226669501624 5.653956576861864
Ge 7.523359651350493 7.523153041438769 6.758077690137416
Ge 10.035411794794381 6.528982926496762 6.764623940513153
Ge 11.74671490787625 8.505171460025574 7.46667508969297
Ge 8.813018933671298 10.4069236516867 7.587458868071362
Ge 8.397606080951373 5.9781908033814535 8.767819230196055
Ge 11.024894956600207 6.638744909211516 9.220525627991943
Ge 9.571992554997616 12.082255881268502 9.521370664662808
Ge 6.807217601943978 11.251093700594923 9.163106225426793
Ge 7.821107607857641 12.08208848587619 11.425148242417885
Ge 10.350599068814324 9.402745071111298 9.442273128097321
Ge 9.778147188024608 10.322322115666775 11.895681224612048
Ge 7.733856128097868 8.627259295811106 9.118895457930103
Ge 7.087397002023327 9.510707464684591 11.563749094684438
Ge 9.155271265734925 7.732905555678044 11.174409971138099
