11
Energy = -38.99785206 eV
Ge 7.371732582721562 8.984900835437601 11.798282762751759
Ge 9.437747019987434 10.944912776788177 12.811927228037348
Ge 9.394542153144794 8.105764979908688 13.860936736358935
Ge 9.152462924220938 11.354697043245276 8.156097936322302
Ge 8.49715353689718 8.24661420418253 9.085855275936838
Ge 11.603444397130584 6.785008945967068 12.375715510068872
Ge 10.316176750478935 14.372910750557399 8.67549582282831
Ge 11.178793440244112 10.709941886383572 10.274242924637111
Ge 12.923946602538695 13.17418662762154 9.427000111396202
Ge 11.363755478040677 7.693162191902382 9.58563308873127
Ge 11.662490278335309 12.558985306287251 6.748203466215542
