17
Energy = -68.38344387 eV
Ge 14.24771608373254 10.305238336923153 7.6076803348936055
Ge 11.811858506636879 11.384032156502514 7.796924884908919
Ge 14.253665760066308 12.384345044466796 9.03969214485096
Ge 13.239548029319627 9.994043805650465 9.902479551123646
Ge 10.100743969441755 11.399525276249353 12.04386809576674
Ge 13.838244009938728 11.889616673539946 11.613045767650412
Ge 8.27327651949675 9.682773184210912 8.635930335036953
Ge 10.406387919245972 8.825286571827968 12.519333178069916
Ge 8.20830144369113 11.821123556595996 10.234801369981778
Ge 11.868010061208329 12.87302238025781 9.946987104911623
Ge 10.498748223636373 10.07721762069531 9.903799213412036
Ge 7.848435268402192 10.598025891652524 12.951076765145137
Ge 6.509971239066767 9.954804724313043 10.781951109440362
Ge 11.743162714595679 13.357305090528023 12.381622562193746
Ge 7.156652922662607 7.55015866958339 9.83223900326028
Ge 7.970555375877239 8.038897258561601 12.327668635051687
Ge 9.759437787952422 7.61904554525019 10.233867532329878
