10
Energy = -40.65258398 eV
Ge 8.877270987487554 11.436085338397412 8.287763497442882
Ge 10.123692679858557 9.85310213005885 9.979284316781241
Ge 11.672241715730678 8.444133923394697 8.56364714039
Ge 7.108375390091136 9.562793783122189 7.537522962389989
Ge 7.465541247608247 10.131414901634587 10.17255859584025
Ge 9.742105579836226 9.235968669866363 7.129183118611062
Ge 9.629684186073368 7.068705769329602 9.123046174501694
Ge 8.741255745777543 8.097964355705475 11.376287114774497
Ge 7.011537089809412 7.5683288724629545 9.383657173809702
Ge 8.133399283392214 7.152490924940413 6.967540146119159
