12
Energy = -47.27878831 eV
Ge 9.789743981452359 12.223336853126247 9.197187858623588
Ge 10.272348729614897 12.97397820773639 11.68453835982306
Ge 9.610198919660544 9.248772347433636 8.542499783441757
Ge 12.39560914112 11.524387119281844 12.650354321792797
Ge 11.159531921637353 7.866722602124192 10.319738700035654
Ge 8.559358816208798 8.890145182305552 11.134420948795308
Ge 12.362678295609104 12.107321739774223 9.945114845273974
Ge 9.542802746364815 6.596668284515472 11.828590063307916
Ge 12.693356792695884 14.005223429132036 11.780318174886148
Ge 11.2030457985595 14.49494015752188 9.681025546430153
Ge 10.704308825759446 10.30982638405954 11.100812195424968
Ge 8.871763813280957 7.001769330706049 9.306798266059825
