14
Energy = -55.82801286 eV
Ge 8.413965155137033 7.628516945815233 12.111493795936624
Ge 12.382908490359199 9.672690786556199 11.877872077255558
Ge 9.485353757522185 7.502443651802634 9.79251398099501
Ge 11.876626463815086 8.474964102096955 9.659988584259063
Ge 9.852385917205392 9.656147125904525 11.571778174779736
Ge 7.443691354810378 7.072890659124972 8.40956129417359
Ge 6.922116520015594 8.770035883177137 10.360681417285353
Ge 7.924364186549863 9.474781533950864 7.823448792771722
Ge 8.81697897248179 11.360582079846921 10.015458609645547
Ge 12.719796424267194 9.890422788559148 7.760514571896277
Ge 12.109089067340818 11.269456140856215 9.922328037912397
Ge 6.4150085318869206 10.99352716674312 9.244443673295995
Ge 10.29317058741369 10.504338656467226 7.771820438680593
Ge 10.451270473605637 12.855103834591075 8.765880079855755
