17
Energy = -67.67964189 eV
Ge 14.200589069913876 13.510849455888653 13.23104460922886
Ge 11.916973752864479 13.459190505222745 14.602902154721013
Ge 13.539295317865102 12.547624886946343 10.891808471674315
Ge 13.667045005252362 11.266251495362717 14.543732238720995
Ge 11.893732249755328 13.723800465068258 9.431414843622289
Ge 14.132808196069787 10.335961768580493 11.949724644926244
Ge 10.673555557310094 11.404031449940918 9.5417487709563
Ge 11.702434210755406 14.079694750025993 12.118708486962921
Ge 11.941171353243854 9.462361796306563 10.61718082444324
Ge 10.222483255684184 7.586822898383185 11.23121694466376
Ge 9.625993115812976 10.04366616848086 12.076960821084137
Ge 11.790034125797025 11.493460152021889 12.798371131232182
Ge 10.763617489278122 8.339917644531432 8.54574200420174
Ge 8.456858619008235 8.739249869185828 9.82320458178802
Ge 8.279871629888214 11.618521241607587 10.360750108882401
Ge 9.11116806990682 10.414629357890469 7.762204430421309
Ge 6.689080944172686 10.234681420525984 8.91899902589214
