18
Energy = -72.57582423 eV
Ge 12.210272658221374 14.89108444740783 14.7573830813595
Ge 12.925922658266671 15.883070955301843 12.223966297867518
Ge 10.371539715781063 15.602739885860807 12.909541534726415
Ge 14.420523269274396 14.098667769850525 13.445157806788496
Ge 13.675902294754627 13.630924119096047 10.711610440145302
Ge 12.847976812415515 11.925586678199979 14.536360114630602
Ge 11.04219959849072 14.377342713375295 10.48076867165688
Ge 14.655822498743536 11.568747306570131 12.524556253946436
Ge 11.65307239851362 13.355223761940282 12.701587999672336
Ge 11.001753760475925 10.668012571729378 12.818758292156929
Ge 10.080303936302526 11.64193305477815 10.384024158500013
Ge 13.06664675859252 9.051036467907206 12.49718859214112
Ge 12.683821720772597 10.903175862464625 10.653268943952162
Ge 8.649799277835047 10.079390818869387 12.027954433230375
Ge 10.56204772422079 8.051021335746977 12.194895070506687
Ge 12.316759580233393 8.254578018791475 10.028117422755988
Ge 11.483704074780187 10.323180768276483 8.47011167638453
Ge 9.689445612461254 8.949681446572255 9.853530856967827
