13
Energy = -50.62167557 eV
Ge 11.81685050507875 12.592006036858752 9.079507523300899
Ge 11.93840693691102 10.067908465369861 10.070674682519849
Ge 9.711991271482168 10.997071218392247 8.245413358365422
Ge 9.11728860089757 13.426467808739604 9.172851031230081
Ge 12.047851654044177 11.968705357636898 11.975194570480271
Ge 11.735682846733074 7.524298309830976 10.109570693348802
Ge 10.98251586519176 14.110423360470465 11.02350324614856
Ge 9.22544250376292 8.844684347886245 9.824227869024659
Ge 12.73062774907437 7.7338928996884055 12.42045370496741
Ge 12.14193121800157 9.966206908318018 13.64508633685568
Ge 9.514163626301453 11.733050831618721 11.299675904956533
Ge 7.613645751076889 11.179959026334648 9.80121936841695
Ge 10.358555893348075 8.768508586001614 12.200807268155147
