17
Energy = -67.13041566 eV
Ge 12.493179362573711 9.639281741051137 13.928774415383746
Ge 11.176948202928186 11.165050544646103 12.23679949096357
Ge 10.192571781826436 8.76490075837957 13.258113923575964
Ge 12.390565938645128 8.56798770560195 11.627249472679884
Ge 9.5202883033212 11.89822328950764 9.070051794164707
Ge 7.580895200721143 12.466505608369477 7.488532102624126
Ge 11.706803036003556 10.541875020282056 9.705907896776981
Ge 7.117364362226356 11.800079383625134 10.1778232762578
Ge 9.154387152445183 10.063979899004288 10.96750905939034
Ge 9.541059588640328 10.759251012969932 6.586319769383947
Ge 10.993109566915457 7.741484465407598 9.386790764753101
Ge 11.510744863309753 9.249712254471236 7.307150945549042
Ge 10.303989385064998 6.715431872244972 11.618042552294655
Ge 7.019799813899191 9.936250513431636 8.433986789608468
Ge 7.26734811823983 9.701664939459667 5.915236669116842
Ge 8.314981704294935 7.889365514324457 10.060064128760306
Ge 8.893832869244175 8.173193498824267 7.414746699312546
