19
Energy = -73.67868881 eV
Ge 10.880936594925807 14.743494558912651 9.34395197225075
Ge 8.78485244120427 13.259636080644967 9.515237513183484
Ge 11.063783507249639 12.002030841785547 9.483794994411246
Ge 13.089018645934164 15.870381600258533 10.058041268365587
Ge 10.010267742177302 13.522743320566711 11.7414300964871
Ge 11.271039852331278 15.891208260787003 12.002055044806632
Ge 11.299277076591927 11.334794242503957 11.990255657872789
Ge 12.817782892170966 13.455797363864326 10.956485752450025
Ge 13.44869440361204 7.16861217779682 12.209512462854956
Ge 14.148297126815931 15.9370615569967 12.776218503608122
Ge 14.971438410571459 5.495474086704628 13.14477219405039
Ge 12.03736643224181 15.213741139444638 14.447932459498805
Ge 13.657927632553154 17.012054363584785 15.177367733933698
Ge 12.466642363087313 8.776925198695809 13.864504399857934
Ge 14.101572450697931 7.096897046603052 14.775115591875974
Ge 14.548781881168626 13.352578752340868 13.26817893228323
Ge 12.577512919068692 12.905796736183861 15.398287258958572
Ge 14.588176679306748 14.655464250797236 15.465921425149475
Ge 13.270098991068599 11.170893745286548 13.573929824865619
