17
Energy = -67.4032994 eV
Ge 16.752416804914432 10.360122661066406 11.63931445137188
Ge 17.766273248179285 12.739569572852044 11.936244292044838
Ge 16.24611094920212 11.971942999220547 13.803828345542899
Ge 14.537122000971772 10.282671364766015 10.253216156548852
Ge 14.241761450262503 10.305555787578234 12.78114101583092
Ge 15.335519540695893 12.632028654741006 11.055806880083257
Ge 14.177059615959571 11.281227661772025 15.115058485817126
Ge 13.739488125693528 13.385701626823435 13.383965925428884
Ge 11.085585313170386 14.38854380584584 12.904876656547046
Ge 11.62876678618028 11.585818763565202 13.85517454545937
Ge 12.287417479375335 12.189368152207832 11.252921398559552
Ge 9.262930511167342 13.131236312448126 14.488106031242847
Ge 10.226393031888724 14.196716595391987 10.373118486362285
Ge 9.684424327930298 12.040670966880326 11.97461427054859
Ge 8.363963746534687 14.70544205346478 12.393038957937444
Ge 7.815358824122621 12.985037777883683 10.394095410344685
Ge 7.264250374759311 12.27334086857947 12.906782142206097
