12
Energy = -46.1717137 eV
Ge 9.562230344141673 12.00848952064225 9.169059638236632
Ge 12.634166585090291 7.506720939230623 9.24152924838418
Ge 7.075377724362424 9.299009640000886 12.007920931043783
Ge 7.533738559612143 11.343840126758478 10.74222343869842
Ge 10.109284534871664 7.0415329698228435 8.658802634336395
Ge 10.93052772469279 7.322596858369845 11.221257872174073
Ge 8.99730967263047 13.137325869268482 11.553282755477568
Ge 10.973183609149533 13.706021566486225 10.246076398485009
Ge 11.429033381916193 8.830962783837862 7.225319227321426
Ge 11.175574572053588 9.663465148131339 9.737789388238953
Ge 8.795533577911245 8.639263326626665 10.375907988003348
Ge 8.940867588990903 9.639456668909544 7.952184617978898
