16
Energy = -63.44164614 eV
Ge 12.13945124778736 10.974143681874612 9.262463006586197
Ge 12.424940009649948 13.338015088791124 10.309515586074406
Ge 11.276497310676273 13.137990260964848 13.01503753683507
Ge 10.32884628706814 11.93620779744664 10.966533137828275
Ge 7.655228436382444 8.2841337774422 10.284646575890669
Ge 9.638383139690374 9.649734478625463 8.38587379648565
Ge 7.110194659235525 10.323117420298827 8.605788299451612
Ge 13.323289080261276 11.71795495440154 12.014783436441395
Ge 10.183896858254077 7.633369501448614 9.91468854559345
Ge 6.014833864493912 9.382154311067682 6.571429342427934
Ge 11.259157580398256 10.514129735600122 13.53909021403128
Ge 13.52696593809932 9.397376401062361 13.075079424782693
Ge 8.546802211239601 9.802043403207312 6.1475882325852815
Ge 7.758822070409045 7.737781021748875 7.672440557278349
Ge 9.41451946453504 9.7034698980798 11.797530848294755
Ge 12.004605145539715 9.136126445091142 11.106479140766401
