10
Energy = -39.92751947 eV
Ge 10.568171522088937 10.704027498758292 7.6228463940332585
Ge 8.751784040851145 11.449254332478219 9.361150663749301
Ge 9.726335080965717 8.663790933822382 9.178406221853635
Ge 11.308860878084575 12.452315443686235 9.539827247912582
Ge 11.912354209840437 10.979327412292967 11.6740981033676
Ge 11.255263511763033 8.331372744344177 11.386508052056202
Ge 12.280067728947017 9.665735673312943 9.336109144298138
Ge 9.615835037183023 12.4432168380777 11.650881878486986
Ge 8.94953206716668 9.771316448265964 11.469681831749249
Ge 10.346283329945683 10.254130081797369 13.494977869329027
