14
Energy = -56.75159448 eV
Ge 8.756658870138596 8.064761157228665 8.104955704896991
Ge 12.67222010692 11.274641171365326 11.451321492150996
Ge 10.351526905956154 10.079171886463495 7.245745731668609
Ge 8.00435745762822 11.269495622951332 10.906953289729342
Ge 7.799044123652057 10.486410302057108 8.273629639139976
Ge 7.548797243843252 8.607714884220572 10.35536597039857
Ge 11.329454117434794 10.495260808689947 13.51953475781229
Ge 9.9757113548042 7.252102307311154 10.386788359692916
Ge 9.903873053239607 9.55659548795334 11.584790006828593
Ge 11.68873576268815 13.386321951784147 10.330341128990337
Ge 10.2531530986366 12.421890996045285 12.218291643835519
Ge 11.365059914287952 7.6254095400632105 8.02831346966958
Ge 10.16203657258053 11.531655022109398 9.394048998631225
Ge 11.754937425009244 9.458009681994518 9.712159073146683
