19
Energy = -75.56768279 eV
Ge 14.350946308745288 11.471661723521985 11.069687872907965
Ge 13.978827156149164 12.002965495215438 8.66358002402313
Ge 13.893466346681624 10.943876948402453 13.439002553222005
Ge 12.814151573560299 9.710749427337419 9.434416330106545
Ge 11.889343600516556 12.860351104677651 9.898528378195106
Ge 12.721971121058353 9.20950223099944 11.916503354622147
Ge 11.708761907474685 11.98072489432197 12.4547138976292
Ge 12.037744632525431 7.022602854104145 10.258546094410834
Ge 11.683513326672932 14.498787211832559 12.160985715320864
Ge 9.91707667957112 10.017210898777043 12.384092598523587
Ge 10.759774196792547 8.610622317106802 8.341447017467006
Ge 9.157282108115238 13.526456674687962 12.646862988122514
Ge 9.52410559071558 15.97130028705323 12.116719604909429
Ge 10.388444123322296 10.742779210583882 9.93789778159155
Ge 8.25978265807644 12.056519335281537 10.512879673617132
Ge 10.88662017550027 7.5912778198751605 12.700137867396819
Ge 7.811051017493634 11.382505882891014 13.045070637742889
Ge 9.519616709305398 7.8536570789356395 10.466400948850085
Ge 9.58820809817882 14.286767333848752 10.121430681511313
