18
Energy = -71.2092375 eV
Ge 14.265938616350615 11.150758630880649 9.085327097716641
Ge 14.258873523763748 10.295458816086626 11.874586646870572
Ge 12.926447257910215 9.13331008818573 9.942744158698275
Ge 15.113892269147115 12.714131938901426 11.037331379356216
Ge 8.861580768316928 7.862722355302718 9.059219050983895
Ge 9.383084037194312 7.227162234937767 11.620358160809154
Ge 7.049987502062564 8.218701357769088 11.081080267420463
Ge 12.658427437599759 12.616364514802013 10.8134656248552
Ge 11.786950955807537 11.68250747643932 8.240957025768797
Ge 10.457728450584694 9.436328762687891 10.608057128107987
Ge 9.318733367929305 10.682813579191638 8.655224960380735
Ge 11.76034199069877 10.658554314587688 12.58982023861787
Ge 9.260428234101344 9.495880867670158 13.039409170034356
Ge 6.821806855421008 9.804922320805458 9.12936757792927
Ge 10.736783364260628 13.00548521933327 12.511204777728825
Ge 8.21970539280552 10.952367504695525 11.132709439881113
Ge 10.180070456063289 13.19488525426009 9.694069814384548
Ge 8.460279046992543 13.477387025891803 11.53172915270881
