10
Energy = -38.8716882 eV
Ge 12.247815551083795 9.0336993645893 11.155267363111612
Ge 12.601652478073087 11.63901242781634 11.686923866477473
Ge 11.796531494950173 8.70018968578285 8.506229706617217
Ge 11.952285782286342 11.108475228505112 9.327543047794197
Ge 9.693900611732612 8.977559513197185 10.471609932569484
Ge 10.319108978923424 10.79690851030926 12.42290974694972
Ge 7.429138146256597 9.463626491179753 9.458989729080272
Ge 9.525450165694812 9.916939984887595 7.892892660253748
Ge 7.748110200637494 10.827265241521133 11.694271465248123
Ge 9.167252855807202 11.753312328785617 9.776968131035904
