16
Energy = -64.55150444 eV
Ge 12.842160060966792 12.11846195017626 10.554219006175831
Ge 11.152727951286307 13.9030699011802 9.31410018244892
Ge 10.839784052477665 13.283020685150943 11.894689986815091
Ge 12.205482467646826 11.875632065733683 7.928067638224471
Ge 12.310711142783108 8.713934396032508 10.963348558800249
Ge 9.493474973285448 12.279369538292054 7.895217863454611
Ge 10.75147114978389 10.653808575871391 11.859265970105161
Ge 8.643234112996687 13.560317161309893 10.11095196828374
Ge 10.906467351120584 10.078449611462679 9.190414397475209
Ge 8.72462847121486 11.02527811759489 10.307663570129517
Ge 8.2466424288508 8.75059887874916 8.942402502145713
Ge 11.162629380031028 6.334087193863766 11.2843587680871
Ge 7.937503213859563 9.254357232148182 12.016494221538952
Ge 10.266437267507138 8.363567124829926 12.9543555790242
Ge 10.632898026374699 7.5363790003297995 8.848187685325339
Ge 8.78554625641878 7.124116893421178 10.855621842500623
