10
Energy = -38.39679647 eV
Ge 11.06923959028241 9.446812170361406 10.480445391586878
Ge 9.105452990223935 9.926555619512058 8.800834552611601
Ge 10.451389601243124 12.249958940245264 9.527558778853424
Ge 12.909932764324514 11.674903346710305 9.904581066001342
Ge 8.64178246589194 8.418490217447806 10.975173820795085
Ge 11.117992866963649 11.539367968678745 12.180774383203909
Ge 12.737709028707885 13.42321215756264 12.128221747968826
Ge 8.645545405852786 11.03023949999078 11.231789838412961
Ge 14.803548719402128 12.409779038192335 11.21828771586122
Ge 9.950339443226534 9.313613917417133 12.985265580823537
