10
Energy = -38.89418524 eV
Ge 9.914905737816055 8.135389384412003 8.543388915401948
Ge 7.7614690062313985 8.020662565827537 10.104581939397413
Ge 10.137464130753322 9.047482766912402 6.206702525436046
Ge 7.897028290720127 9.989694356959086 7.145669472375459
Ge 8.83559308983004 7.295552086946884 12.296386362947546
Ge 8.131487897294898 12.281456529674854 8.25898551240266
Ge 9.93037331859264 6.254613913360281 10.195653268221802
Ge 8.447184864494389 10.509193949571161 10.1380814782375
Ge 10.305570847794886 8.942373141198281 11.013882042290872
Ge 10.238052103246693 11.12912965601976 7.651585510016352
