14
Energy = -52.40926074 eV
Ge 13.989975304075475 11.45003617365467 13.587823265460226
Ge 12.257428259478038 15.566731324051988 9.626527785583413
Ge 10.117632204802801 12.573635032135178 11.395753079089229
Ge 10.910490819051846 14.288970618831218 14.229229130579773
Ge 14.30338945366183 16.26196327924823 14.709843649351976
Ge 13.617113781018391 13.8966356855379 14.125275539088864
Ge 14.393580606987298 12.236764297844891 11.054973232121778
Ge 12.470492643856009 17.046157307391145 7.860175653442454
Ge 11.382276160050269 11.451489158737438 13.725388355788054
Ge 12.322330803954637 15.335890027892084 16.011332596992276
Ge 9.130549198877935 12.524511898179702 13.876721715424871
Ge 12.330280024338272 16.09324239976224 12.983529727389225
Ge 12.175693622750805 10.990850581879691 11.289400548440183
Ge 12.38143569545736 13.840648153275545 11.391458970569403
