13
Energy = -50.78240265 eV
Ge 11.395351268211867 9.594066968591491 6.964457956930776
Ge 12.07871859791613 7.465652399538576 11.079894497342782
Ge 11.497702563454256 11.824991931729516 8.021821221784592
Ge 11.313075730334472 9.915996369995362 10.864735465037954
Ge 10.04823804190508 8.494260976817584 8.910688480837264
Ge 9.099197246230142 10.868353365075528 7.3049787739336045
Ge 10.670236507415762 12.383893563183715 11.077984516500477
Ge 11.392512330821347 8.75444039710757 13.227335785460436
Ge 9.51629822826273 13.109439479325797 8.745159448518542
Ge 8.171592285080868 12.043892126687892 11.995228518388306
Ge 9.454159373416852 7.6393957748771495 11.493595454222913
Ge 9.141837813797663 9.821264347062497 12.842206687576049
Ge 8.72094700850026 10.621942914540647 9.991547639999741
