18
Energy = -71.30076637 eV
Ge 13.147506462792114 10.23098885829674 12.719112252986662
Ge 14.215342214933626 9.856742262243817 10.290476048888058
Ge 11.564473646930546 8.541740893332047 11.14478240824656
Ge 11.75018515131646 12.429155989879487 13.153078431645728
Ge 13.350038525306742 12.400270701458654 10.9629757542732
Ge 10.6763030617947 9.74276470949979 13.437647220215226
Ge 10.753345118531865 13.145648448739971 10.499442020168297
Ge 9.22394714657085 9.539808626106597 10.386154718239132
Ge 9.298873020613128 12.151380397655398 12.621661479784596
Ge 7.898920190438881 9.67942708780185 12.592642400301093
Ge 6.8992386698282555 12.263431638388408 12.968631885964038
Ge 12.62846209710221 8.484595056130486 8.629570747097727
Ge 7.319983164414065 11.43668687714259 10.606150033046216
Ge 11.69519428141362 10.807132640651336 9.668676445893718
Ge 10.865455338652193 7.954151002107683 6.9292243636108575
Ge 8.799222801319855 9.242553451039411 7.890085191311256
Ge 9.111748147260773 11.779050445267805 8.58021817096582
Ge 11.149384891170603 10.506675330499407 7.0849258492206735
