11
Energy = -43.54664217 eV
Ge 8.196724645793664 7.797990868521658 6.6413431870228505
Ge 8.389831684506339 7.749251897932114 9.147509455829825
Ge 10.766952553862684 7.82135413251883 7.667307466517352
Ge 8.982199234797312 9.975048909344148 7.584683545345033
Ge 8.57089186609505 8.407990441740756 11.602884122468618
Ge 7.398874200089358 10.1804733584872 9.724294856357501
Ge 9.612396306092878 11.910694714549814 9.114847991513608
Ge 10.971002330324916 7.777079233349092 10.372849179102028
Ge 11.658883092027354 10.121207439889329 8.748651119365663
Ge 8.405933166217345 11.429203782176886 11.761407207518396
Ge 10.461537669863032 10.235578206815973 11.04287350494383
