16
Energy = -64.18573846 eV
Ge 10.272678345359179 5.0618044151645085 6.924547458860821
Ge 10.658246364324588 6.496465938889646 9.003357373812998
Ge 10.629990195309288 7.53993580564359 6.282234022849581
Ge 8.047072816722773 6.190111941975804 7.341767833524687
Ge 8.180059463363614 7.61062680371999 9.582137952916591
Ge 11.000346844724776 9.2376511068121 8.384776866884064
Ge 10.39182849083598 8.305428229274458 10.85160454683353
Ge 8.496004587019304 8.839602141247871 7.031943408126255
Ge 5.750263579861383 6.2129632641231565 8.634466793332118
Ge 6.049463765177856 7.513786489181032 6.16841253812972
Ge 9.495361524991642 10.770739947610064 10.210458998860759
Ge 7.167646987470472 10.008773731793195 9.205297715291792
Ge 6.399688240686305 10.209942020829676 6.608914959563235
Ge 5.892750777677475 7.967585022989944 10.616510988488638
Ge 9.571200541014896 11.258663124420606 7.661628622780443
Ge 4.903557515708812 8.68858378152184 8.245967182907352
