11
Energy = -43.94237663 eV
Ge 7.190329706543706 6.591463625870967 9.34092923941914
Ge 8.309725430677995 7.811853633273464 7.270142688009812
Ge 9.89478001414647 9.953491770418147 7.072728103768339
Ge 10.967473811654608 7.611270837612001 7.870756853776407
Ge 9.490665675241985 7.355028768781123 10.021492524438472
Ge 7.284842580552452 10.32908595197263 7.589944420160608
Ge 11.158809557323094 9.657271686518971 9.447049937016658
Ge 7.281492723311399 9.034178475466476 9.875780394795422
Ge 9.01390168400788 11.240636487580975 9.290279491023272
Ge 9.186702313789363 9.41197373827443 11.620021317715528
Ge 10.725604709996816 11.480235452016768 11.189371928644261
