15
Energy = -52.58457031 eV
Ge 9.277713560235442 14.735371945096416 7.546393683435521
Ge 9.721889475110762 12.859895112511667 9.85104864619917
Ge 8.30333231426281 6.679479906959482 12.072753818183731
Ge 9.990751040347803 9.067458808177674 11.197939484306616
Ge 11.84580078910186 12.125988791537916 15.489999519331784
Ge 9.718596612829778 10.238721278279096 14.620617651207391
Ge 10.784125261985974 6.217738963376563 10.432543975602883
Ge 13.493103967017598 13.431756162139513 8.007771992024427
Ge 9.520275621330187 13.024263541099238 13.778498842054828
Ge 15.055128670462224 12.88220615179126 10.548063054570344
Ge 12.561059452187074 12.912237911214497 12.527625142076696
Ge 11.023898053683405 7.107855894981368 13.298422735490753
Ge 13.351206790616988 10.40114463352707 11.04182680030303
Ge 11.522333555652994 15.280702344035388 9.458100794418279
Ge 11.714016488584068 10.960976994486215 8.48159115065391
