16
Energy = -63.70484669 eV
Ge 12.579993167816705 7.528264010406664 11.023924293368227
Ge 13.067716760203975 10.427804804125918 10.46649507249978
Ge 13.803385788731926 8.510354234047993 8.961076997433281
Ge 11.395626651134183 8.762212788169334 8.460347425924274
Ge 12.059674613704674 9.517093187032156 12.72756404338116
Ge 11.92110141094352 12.480541771580132 9.208694340990535
Ge 10.52194881792778 6.622639740947072 9.683946382350923
Ge 10.812643274548847 13.489035093360334 11.255475527375948
Ge 8.991562970249863 9.139458203846733 9.25599483868065
Ge 10.072517079309208 11.875773743156097 13.324066893836159
Ge 9.89557405255571 8.147557706629394 11.61415283944221
Ge 9.319993446861876 12.189197770822231 8.841876209467692
Ge 8.93035462367849 14.23764659128121 12.801029756982995
Ge 10.394008322594715 10.711369417350472 10.854399129057814
Ge 8.024469479992055 12.063310773542044 11.510925009096969
Ge 8.477819107907367 14.348330410964241 10.219081506044743
