12
Energy = -46.38299096 eV
Ge 7.479813060964456 11.179712865116935 12.065795657249392
Ge 8.41900543879958 12.729082917553848 10.376204159601542
Ge 10.881421066388631 10.82510433928586 9.841433315301847
Ge 9.786816010687422 10.013883938101015 12.039504932768699
Ge 9.44370832967623 11.458708782222276 7.72308570426253
Ge 10.298845766176848 13.478247851810432 9.040668951027731
Ge 9.565244236608155 8.791838296785036 8.116619159269698
Ge 12.550673285993392 9.078356369443963 8.691156127384069
Ge 8.192863836281653 9.909917007417032 9.883908921228887
Ge 10.995390111792485 7.795887770989078 12.575491198328946
Ge 12.880780950526812 8.883325343902461 11.17187469230165
Ge 11.039566036657105 7.4445875931329315 10.06761442928755
