14
Energy = -50.66421829 eV
Ge 12.607824995834347 7.116199658951714 9.286040860276692
Ge 10.503929817062216 5.819425267997151 11.019405778064305
Ge 9.445228725430226 8.15991765621315 6.411636315629421
Ge 11.587675786390923 9.608008033848213 7.962806041363936
Ge 8.441094631675501 10.86320755535635 5.494376084245259
Ge 7.219340838177939 7.19106001294076 8.167326504922087
Ge 12.55292847358202 7.663031483328092 12.258012798378399
Ge 7.915306312846902 7.332019068616751 11.115588904160623
Ge 5.432316013286961 10.881289174059585 5.765517946721669
Ge 11.272379425732609 10.390337428198514 12.664441779958302
Ge 10.382623425453207 11.504039541107982 9.97389587614696
Ge 5.445876774839294 9.607324614438694 8.508651770377568
Ge 7.184045351163866 12.023441208551425 7.990096320298501
Ge 8.3812033562011 10.222697923516225 11.805679576614397
