11
Energy = -39.31489051 eV
Ge 11.931425370302458 8.299875468383629 10.559851377338397
Ge 10.50584322358755 11.000965400534007 10.359177176064403
Ge 9.974389360935685 8.302312743071491 6.326213516895749
Ge 12.587690766124702 7.755176975039896 7.69022474154843
Ge 9.684524027501293 11.068425914491181 7.459779172497542
Ge 8.26215628915844 9.584827719672495 11.848222211369778
Ge 9.254898257962367 6.871959017340428 10.902545295392898
Ge 6.649257176844981 11.09377926898143 7.4972054314127545
Ge 5.7737614228814484 10.105267301852223 10.212278021529734
Ge 8.285416356833354 6.535866293070285 8.065647299584567
Ge 5.763774387773823 8.206302524163666 7.866700547362984
