16
Energy = -62.49186303 eV
Ge 12.346956737773583 10.79168401193321 14.620532553012188
Ge 10.943770725028363 8.604526919824018 14.342715036503789
Ge 12.613822376372072 12.515043231051127 12.578167133615493
Ge 9.726574612291838 11.139355576390662 14.943928576402394
Ge 10.733415914912555 10.572392566266382 12.489700168840512
Ge 12.377745602603046 14.462047053306517 10.84723075929505
Ge 13.869342339795645 11.943400450424258 10.441683279880493
Ge 9.36718420263089 10.186720634098977 10.2378973483377
Ge 8.280289805884815 8.972497607828892 14.404543735630948
Ge 14.494213933917168 14.212188848136542 9.249982377632504
Ge 10.461168956152138 12.615567357410315 10.668266037764482
Ge 9.41761941720748 8.270490090888877 12.006813776926801
Ge 7.9964852786291285 10.723453767379725 12.481082461885613
Ge 14.61310640161465 11.631528169854906 8.095882048070203
Ge 12.107811435727951 12.676768261188741 8.543730038067563
Ge 13.61494626322497 13.77084944220915 6.881282434966892
