18
Energy = -71.83857842 eV
Ge 12.21561591930787 7.540350977451223 11.079265614966983
Ge 13.933985370004843 7.969867570101569 12.893549778035661
Ge 9.940073694004859 8.996036857910498 11.937825041372102
Ge 10.220024718158353 8.018453673703164 9.467346093578447
Ge 12.210505588440864 9.894343038916402 12.816293113391866
Ge 14.3617017984569 9.418516628016675 10.805705638188265
Ge 12.863391232921664 8.581019704657693 8.69967939945608
Ge 9.39949228460143 13.134958156837346 14.244260697120588
Ge 9.078049040279053 10.675290670378278 10.012622357297753
Ge 10.933526834390252 10.267340164774387 7.9969844652066335
Ge 11.97770821184792 12.590106000822237 13.597841143140705
Ge 12.182798614935342 10.762063775608576 10.322326103847654
Ge 12.541745332932495 13.726889768988555 11.224160563268152
Ge 10.919237492558754 15.119901187308955 13.052542426487118
Ge 10.931701039814799 12.748667449521392 9.14506165406133
Ge 9.9857191108483 12.564831141713228 11.758997827848578
Ge 10.197173785651874 15.078411721923855 10.499495168034526
Ge 8.341179894319126 14.548995054043052 12.29784295531668
