11
Energy = -38.9853776 eV
Ge 10.544919626568623 11.84348357894701 12.297123191855315
Ge 7.231479233042532 10.219051324833348 8.836152121786728
Ge 8.872246993586584 9.495166501636017 13.215822572169989
Ge 8.770105722542283 7.636463774914254 8.840179174177655
Ge 10.559698387553182 8.756134126237837 6.649385327332068
Ge 13.374205626397819 8.751040601992816 7.694942300696441
Ge 10.489183376058737 7.782858438946772 11.268267380693345
Ge 11.66325810081939 11.234798590349083 7.963923070154344
Ge 8.57451169646452 12.593942248114503 10.10783016280603
Ge 6.579159745636079 10.84126335177633 11.689521663006662
Ge 12.53422549840685 9.93209085748772 10.564980705325404
