13
Energy = -51.5286933 eV
Ge 12.860540070240862 8.605262177884715 11.583350352613541
Ge 10.700920226089776 7.97015559052301 8.929837301315073
Ge 10.505787899356038 10.417880549061836 7.329040650650064
Ge 11.32077546973106 10.324663476164629 12.829100974949155
Ge 11.84782549716471 10.159922472344759 9.918227551255985
Ge 10.363652105090846 7.915929420835675 11.502648595740217
Ge 8.782000886249424 9.641003791791388 9.415067024902642
Ge 11.662633535141989 12.445819341015484 8.65125894088049
Ge 10.169651552026409 12.024224207078582 11.19516341574651
Ge 9.462923767191063 8.779750613223017 13.678907466263201
Ge 8.453096885949977 10.293055303472942 11.891293666241207
Ge 8.941225468904278 12.19255940116719 8.24619795718987
Ge 9.900569502291901 14.030990195558942 9.76466205366886
