17
Energy = -61.29566149 eV
Ge 18.207413182584908 9.238272320195032 10.736674194969462
Ge 17.89193596007643 9.21795697169153 13.754135935835718
Ge 16.316702067286375 7.277606857240007 12.077820824080446
Ge 16.551762655317724 11.902313661235317 13.336306571780126
Ge 15.928092352470157 11.357803544807576 10.435961494970265
Ge 14.182233811147182 8.911734037575448 10.68514712529357
Ge 13.804190330518832 11.714112479889492 14.565103928899772
Ge 12.232245506002561 9.796143847061986 12.805349992358666
Ge 10.897958884373441 15.76496071269279 10.662272275117486
Ge 12.44085553562715 12.743078404830849 12.0459589643527
Ge 8.89336115603679 13.845444223733285 9.619239682179177
Ge 10.158199761910915 15.916680276631572 13.549474984030688
Ge 8.26028057742627 11.986241973794174 11.940410083852846
Ge 10.16049017753798 12.93592937939839 14.051168837950316
Ge 6.491208489367182 15.558331238692318 10.458678381203002
Ge 7.176515139976482 16.395175175549372 13.276187182111615
Ge 5.893820815842003 13.706703218060412 12.8083789618392
