18
Energy = -71.0751808 eV
Ge 9.682893002435542 8.690393558276128 11.192884007697032
Ge 9.567769174533288 11.071714333347424 12.186482615370695
Ge 12.025239568965453 9.577350491643601 11.606069522127598
Ge 10.58930312246267 10.43565704038308 9.538393410158028
Ge 10.17388974744927 12.825999291418702 10.357417320264075
Ge 11.618102851018206 11.293164417794143 13.75509346621837
Ge 14.164292323406933 10.766364185907035 12.489488214256443
Ge 10.413818381542715 15.043293992195634 9.444432240107485
Ge 13.132888095705978 11.129074378147639 9.310693063687117
Ge 14.016571019712698 11.48184401437765 15.10741484831926
Ge 12.50928305385997 13.596615410732165 8.842250423772668
Ge 14.284127956239416 12.939979741066182 10.950427750987524
Ge 11.723967561500029 13.257696993495854 15.418393004246761
Ge 13.471118293373946 13.692604208868712 13.369604466127564
Ge 12.096794646027412 14.767798926880516 11.499411114435855
Ge 11.603101454402381 10.426568457285242 16.11492931440361
Ge 14.147905206128014 15.279271233594521 9.940707288541773
Ge 13.085301368485503 12.15787668344632 17.314634361111178
