19
Energy = -75.89560265 eV
Ge 15.40880774960605 11.036204017200154 12.167953573063304
Ge 14.11002468946972 12.648601103138333 10.454458230786583
Ge 12.983197920744923 11.337956692357968 12.775222576749156
Ge 10.94305942920165 9.81037491912961 13.717899772763056
Ge 11.807746816845905 13.628481251529555 9.503518923559593
Ge 13.920021800612732 9.90397514699728 10.403258846658721
Ge 12.31227376004222 13.748790488549535 12.091643349528864
Ge 11.531702694898158 9.516712740254 11.185040546359065
Ge 13.027517527920716 11.43083353717821 8.356803884878332
Ge 9.63038148806584 13.513859013359117 11.138601982264918
Ge 10.392636886923665 7.802771623023231 9.414394119008849
Ge 9.409272948070127 11.175098929322145 12.227270368415395
Ge 9.455014599774863 7.97967605388787 11.97590421396179
Ge 10.576037498629939 11.12797432592377 9.476581003575868
Ge 8.018536253449273 11.728563410109569 9.925502335236022
Ge 7.27250069495326 9.715240528950709 11.849935684164418
Ge 7.8530667452348775 7.9176052715876635 9.811047441548833
Ge 8.875588641795993 9.699013282439246 8.011429720106698
Ge 6.370629112541605 9.987612025259525 9.205029950365684
