12
Energy = -42.82033644 eV
Ge 8.408969471818109 11.590576279064397 10.241019498971973
Ge 10.929420210737533 11.160514301011899 6.135002407512581
Ge 9.188953023378371 13.065394311852119 7.695608565657823
Ge 10.666276153611639 7.660471979779831 11.975002022261558
Ge 11.791286706264843 9.176681620522174 8.281354574048247
Ge 9.068650783716576 8.781384838971398 9.460622021771734
Ge 9.0002989030546 6.477614510667732 14.16995029245998
Ge 13.024032806138871 11.450203910688705 9.899521997515604
Ge 12.187273674764477 13.443490938225937 7.739456331764716
Ge 11.016212050170594 10.1421873453678 13.702213003969243
Ge 8.217638992923401 9.135151329247197 13.271198012815521
Ge 10.886120361859879 12.457902350316681 11.724056950599149
