10
Energy = -39.49538326 eV
Ge 10.901113526558191 7.510579962834805 9.783395655463647
Ge 9.313479026576905 8.606868377791024 11.712360792917432
Ge 8.909608395742554 9.084901541259638 8.996466534562215
Ge 11.169118823303723 9.536662341616253 7.681079881032999
Ge 13.030726018502998 8.895903820347582 9.35263438846026
Ge 11.170021593008174 10.265926580616304 10.417767455655516
Ge 7.209600545886722 11.081049293716898 8.815894132573813
Ge 6.955837969290096 9.195300674148683 10.736240486701682
Ge 9.732711774866239 11.70598892684201 8.509300522965301
Ge 8.740216402954257 11.29038324384602 11.117283665648886
