11
Energy = -43.39454199 eV
Ge 10.622737302880438 12.737795085013596 9.160730423036131
Ge 10.107481439403584 10.948227544348907 7.321738039397205
Ge 8.711925764284885 10.654845678310156 9.654275948822018
Ge 11.72317468112766 12.172020921092994 11.437441798824002
Ge 8.936981273614826 12.522474200932788 11.401966126568817
Ge 9.109529902435659 8.575920508328242 8.21561618188528
Ge 11.582168217364226 10.013807453963844 9.153873832333453
Ge 10.08515604176437 8.088319761340811 10.500049562721617
Ge 9.934879030913075 10.361233333955694 12.330199462620877
Ge 10.495631907165913 8.027904756891528 12.928858059941138
Ge 12.421249891806488 9.587265054491152 11.589320969919736
