14
Energy = -50.37628167 eV
Ge 6.462551187023662 7.7431105832502265 14.296301435075756
Ge 7.811196762845237 10.40777067467059 13.821033750763785
Ge 9.44896353898911 7.882931952273779 13.871903356336688
Ge 7.5926166508557165 8.427982265493881 11.56714329176161
Ge 13.2177482631149 10.265666397868111 8.805906549011592
Ge 9.975329658406006 9.68550206361478 8.41342484091893
Ge 11.313158010733716 9.71416750709096 11.094578204231714
Ge 9.624097572411664 12.47506195124047 7.639896106157902
Ge 10.864837514819206 12.397966868405785 12.298589775635797
Ge 15.38755413316909 11.010431611006418 11.027049394312819
Ge 10.615611942722651 14.16362444317363 9.906188009300319
Ge 12.809497746392433 13.181254261753908 8.096667747103798
Ge 13.869915142263956 12.86436338109866 12.848632328767621
Ge 15.070719791274017 13.849805930352067 10.282350115204396
