16
Energy = -63.82933955 eV
Ge 14.767629024161518 10.240853295887934 7.599936707632854
Ge 12.590150461187726 9.161830549010578 8.180838815330068
Ge 15.642378339056595 11.34757382950418 9.645230192342153
Ge 14.076227026488114 9.295097029399049 10.245943037852824
Ge 10.944428429352572 11.083611079777846 7.668553945667869
Ge 13.038781436901989 11.627163032441882 9.255154264975241
Ge 9.631882417487997 10.94896309800471 9.870018692574948
Ge 11.892779937417567 10.290466582579668 11.511975851847527
Ge 10.068461381264799 11.855719472550394 12.54335328099414
Ge 9.719650837828322 8.899948897650155 11.824138487322566
Ge 8.6605537335288 13.213483090725445 10.864306116548036
Ge 7.01780725856725 11.221718194448913 10.37122709146934
Ge 7.989148056980388 8.824173600194822 9.890369337897411
Ge 9.084150086941868 10.039784365020124 14.05947455147141
Ge 7.367578430786757 11.960960213880604 12.98461735500556
Ge 7.0487344245610775 9.362224850865003 12.414756268213559
