11
Energy = -39.15497692 eV
Ge 9.933240107526407 5.666428630395238 10.768455402019658
Ge 9.32303790589888 10.185951319833999 12.161155825515433
Ge 12.652337721308111 7.080803680282886 10.788998886195525
Ge 7.883398162344853 7.862528447024793 10.984647009412
Ge 12.048630022757454 10.013138795096584 10.987014220186103
Ge 11.814880345055037 8.68348437244966 8.305081794876417
Ge 9.106628493786763 7.275693009108182 8.303701164775967
Ge 8.225113499604806 12.380924132853151 10.130978685303186
Ge 7.046015361863963 10.61934788116989 8.00871962004748
Ge 9.797961422231873 11.823965808128865 7.641995179370891
Ge 7.318550976256437 13.45381606531102 7.029331520030822
