10
Energy = -39.56181175 eV
Ge 9.330215800929345 7.0525871946009 9.692819419602738
Ge 11.278162066870799 7.6486411689366784 8.118823870133472
Ge 6.918652189277639 7.785498869201099 8.929663870367401
Ge 8.763107830917285 7.7562142447437585 7.055545749440379
Ge 10.29611543094826 9.993984639302983 7.671377147803043
Ge 7.685699453887114 10.152509107374474 7.3490864796436774
Ge 10.932960068073708 9.255575148054735 10.287021639675892
Ge 8.571413953601082 8.909917907014599 11.392450158131364
Ge 6.964999271269415 10.205993696019899 9.837591987102
Ge 9.320093478114831 11.272816691178393 9.75901886522723
