18
Energy = -71.9165613 eV
Ge 9.671708147847642 11.788432352699099 8.76255082072405
Ge 8.191769451295846 10.758324333993325 10.583705854458685
Ge 10.044935900644166 10.747437716912984 6.465445859114962
Ge 11.215661614232861 13.824106462776033 9.15202339467332
Ge 9.495500811244149 11.778630358552393 12.564164410938528
Ge 10.60659520446517 9.585863378929675 10.748943283555414
Ge 12.332379033804479 11.635012614051417 9.704560193443925
Ge 9.811907598379037 10.897220037257696 14.857898564046705
Ge 11.098851195728965 13.520540525155262 11.686836435539762
Ge 11.828497862464792 9.704980433735532 8.04086518950832
Ge 12.134201511052 11.988723125455826 14.438291745329407
Ge 13.06776033210438 14.052814950529491 13.167188378304196
Ge 8.360664149692164 8.194829140670807 10.298513978581468
Ge 13.530490286796072 11.824820284065893 11.988491353368282
Ge 11.368896176565336 9.60396161359218 13.239383362348656
Ge 9.159003485020287 8.90601182148858 7.974605230380321
Ge 13.788690044585197 10.093520703234516 13.82356749740695
Ge 11.017881439111227 7.511270027267159 9.211928287984165
