19
Energy = -76.39404382 eV
Ge 7.410996965613249 12.40400125224304 12.42316290922342
Ge 11.018092687350489 13.843101307983606 14.895198009447682
Ge 8.323272566603334 14.559096598279597 13.908696567903247
Ge 8.41593910097685 14.52476151887328 11.165079381753115
Ge 9.943828662855942 12.428647277020254 13.139445969829241
Ge 10.48687409780838 15.432806924795528 12.716465565643155
Ge 9.339092335418544 11.517569770958925 10.763653075723417
Ge 10.86395345647136 13.590409484111445 10.597634503622398
Ge 12.673977974137784 13.552942734119512 12.909312504461694
Ge 13.342588864287128 14.015263091836657 10.480738567572413
Ge 11.369963403088404 9.942858232440063 11.726317016007124
Ge 13.38256559705472 10.864144313550618 13.129147477293523
Ge 11.572050097092813 7.601818234382436 10.692160277184598
Ge 12.13280707500061 9.560127168895583 8.965206545391526
Ge 13.388216461269865 8.206214481569035 12.714866117288746
Ge 13.334102683374493 11.411381228853255 10.53340756999334
Ge 15.33415767344473 9.93481414955467 11.581336124196367
Ge 14.096200248646689 7.9649929837570985 10.091489426667511
Ge 14.787666361704469 10.093101863633786 8.842400799357629
