12
Energy = -43.13216616 eV
Ge 13.889672036041073 12.463800084509085 12.65072349205655
Ge 12.481690315650752 12.521725774462551 9.974263810615573
Ge 9.562752233743463 11.939234373110244 10.534940619422967
Ge 13.988575458819982 10.05516531163694 10.831320854967622
Ge 12.593320157897828 9.871222407108412 13.50211433358578
Ge 9.635713670032795 10.209772665217148 12.979917560933927
Ge 7.162528901197992 10.303512370882993 7.320053707774231
Ge 6.823313979948404 8.741431050854358 9.917159199032882
Ge 9.81910441485671 8.948252067895341 10.245868454728413
Ge 5.815816761798908 8.077979834893316 5.705911616989699
Ge 8.797117577644556 8.072875210997692 6.043480188255427
Ge 7.059348863176031 6.417881775207471 7.9246411113390325
