11
Energy = -43.30566228 eV
Ge 8.732993287587925 11.185241792690988 9.917000293737305
Ge 7.128384470042615 9.592606736947763 11.103698452120451
Ge 9.593587415599261 9.007051266524497 11.351811315239964
Ge 6.38484086629427 7.832183342941077 9.383657843433134
Ge 10.956041102992925 11.35449016354095 11.461564112184922
Ge 10.22272092683991 10.232645555014383 7.41244825919949
Ge 12.238712830935047 10.443159691885802 9.222432442878159
Ge 10.641573645156162 12.482780859503178 8.924754602403445
Ge 8.56722549376094 8.69862329512698 8.751152420849172
Ge 11.087442753970745 7.999190839559034 8.807247684418444
Ge 12.084678982903876 8.751439332410667 11.217589411384212
