10
Energy = -38.70480373 eV
Ge 7.305638562612149 7.5786986257537885 6.584654497883919
Ge 11.505243536156023 9.628952855654592 6.749231574892152
Ge 9.155201868668305 9.402494720674094 6.4642759447296285
Ge 5.860926057266976 8.079198235854006 8.703433735747504
Ge 10.654369730146454 8.593585063931053 8.93250187847835
Ge 6.361419828116587 6.003742452716625 10.088074918899327
Ge 9.886915233494298 11.139968040063094 8.513172237215306
Ge 8.022696434286859 9.531590060776407 8.99081721146971
Ge 8.484387261096815 6.81059315433894 8.733196888615119
Ge 7.548736230672416 8.016711532754249 11.026175854585867
