12
Energy = -47.20094054 eV
Ge 8.116437096752737 9.954587212692944 10.10539225274804
Ge 8.984639152036312 10.340961864975634 12.436418218750527
Ge 8.37857957910503 12.495432764721096 10.811668121247877
Ge 9.120863448202536 12.680050297444616 13.39012107669007
Ge 10.468621956752843 11.495850422035288 9.746488395973227
Ge 10.839273138867188 8.746220687581221 11.272957276758326
Ge 10.280609501818745 9.039779411646066 8.685337437573304
Ge 12.655913362353353 9.88825901669955 9.192128188476643
Ge 12.936607810869251 10.28190182843209 11.969088479043338
Ge 14.724116632228386 10.990517910049935 10.389276951660118
Ge 11.396461582928703 12.262840986167152 12.441752911472456
Ge 12.811031080137044 12.64969076729455 10.264222576574726
