13
Energy = -46.14389336 eV
Ge 6.570841948870078 8.828705491261521 10.433654714237742
Ge 8.083858256396034 6.246995171998307 11.061225621830772
Ge 8.002660711166993 9.594793594213328 7.80599056794127
Ge 10.051063063543797 6.798683833413283 13.074557267711903
Ge 8.154064183565568 10.942442429053255 11.922659081992123
Ge 7.938811331273465 12.271423794299752 9.223437110718093
Ge 10.65254107492355 9.290330293826875 11.513899898690077
Ge 10.721407231258295 8.552306513342117 8.590336206898543
Ge 10.714948240348068 13.359827416903439 8.617251439822805
Ge 13.0639039801843 10.945994614832898 12.327845304221979
Ge 12.233127626822549 10.962614011602447 7.560189387243862
Ge 12.500309783320837 13.626030261029713 11.079721565921512
Ge 14.346331093232918 11.586498820216756 9.7004736897027
