17
Energy = -65.82598633 eV
Ge 9.374412476046395 9.971042889304401 9.423872918430584
Ge 13.641744030739492 8.903293629191937 9.011677533223308
Ge 11.803844712128253 10.676911951612432 8.499067712349829
Ge 8.147497669683977 11.998228132359445 8.587541627858382
Ge 11.575608787407342 8.353471175707442 10.208052357935252
Ge 10.043397151747682 13.734337688036899 8.993696796436593
Ge 9.247071936570132 8.230922022649539 11.235992969110969
Ge 11.558953659647319 12.474415858368602 10.57605219609486
Ge 13.286377691410955 10.4781076641225 11.032032091427737
Ge 8.856362470740736 12.374036793663633 11.114190146732613
Ge 10.433212556671386 10.387621956281354 12.092828899770982
Ge 12.515073941789613 9.808211683903917 13.450400925806875
Ge 12.451901101863697 13.726252254661969 12.583318993078654
Ge 12.935917587309472 12.115079287323356 14.438157571290805
Ge 11.648356969196325 14.551840997727151 14.791634834817554
Ge 13.672057180829801 13.722564247117006 16.15847977942655
Ge 14.551154687299071 14.272429960268456 13.787240508678293
