11
Energy = -43.38094159 eV
Ge 8.136118842048031 12.94627936165968 9.61822150714485
Ge 8.471920648814516 8.191443033968309 11.140323643239538
Ge 8.279457677209304 10.607113083557689 10.30401274692314
Ge 9.401188417549001 11.353709601506123 7.873756365404349
Ge 10.649185422347239 9.79763360083153 11.771064446260771
Ge 8.54860311685045 8.931635138582733 8.276228833671071
Ge 8.912493619331304 6.540490486818211 8.876764911884464
Ge 10.824275987666544 7.7571840792398 9.724336210320333
Ge 11.458534365158439 10.49628238816824 9.136380719948757
Ge 10.444292102722125 12.322360100069778 10.727802216109598
Ge 12.845949379557233 9.00054028509523 10.50792487098423
