12
Energy = -42.01860856 eV
Ge 14.536960000397103 11.4370929004153 8.357383185570558
Ge 12.353041719999476 8.031206785261231 10.054351259155483
Ge 11.247229687690162 12.679670916117088 13.467989684564623
Ge 9.42005523206956 10.302262232579418 13.827840176615547
Ge 8.387282457245217 9.663150067928616 9.12603788204526
Ge 10.236860891229997 11.73358266894336 7.935775491992675
Ge 12.327445438598696 12.873292318912236 9.790169279853021
Ge 8.490358922180501 12.705249588394581 12.27999529726676
Ge 8.8511690344852 13.182012580564432 15.235466479854013
Ge 13.705342850172432 10.521680803487932 11.07950636587002
Ge 9.645864874175743 8.175258133843487 11.418640147645913
Ge 10.891686990471909 8.847967997415676 7.49808055462573
