16
Energy = -63.30379215 eV
Ge 8.573875346100019 13.481897948025098 10.308302770633976
Ge 10.807789927488676 12.551143220325155 8.573916047341626
Ge 10.710473999606348 14.69680098033709 10.057773576466811
Ge 6.8133248348841855 11.617684534797165 10.624038947953974
Ge 8.735510869065907 10.934394580092953 9.037512204106779
Ge 9.740789973787413 8.731922794261292 8.29189557678285
Ge 12.210082254516799 10.700611728034405 9.864637490518417
Ge 8.580827269238325 8.604787455455778 10.577363422312294
Ge 8.857790887269076 10.977421475785937 12.059620940622837
Ge 11.323421427900046 8.361679616474522 10.398192043538254
Ge 10.90333277103435 12.444236534185627 11.356169823880037
Ge 9.959001210813849 8.699872495174626 12.758601314952367
Ge 13.22536311382906 11.846170162495065 12.488548156230722
Ge 12.509367175188771 9.41321795718216 12.65334914422457
Ge 14.478340598976407 10.227415751020557 10.825446237876367
Ge 13.841565128236939 7.737288954998045 11.242567721969332
