19
Energy = -75.58087706 eV
Ge 12.825056937893352 10.148903475494025 6.6908224148899365
Ge 10.762755216802093 11.535885438941962 7.189262790976835
Ge 13.266041898622973 12.35311306162196 8.060811957279657
Ge 11.25614133600982 13.781479167750124 8.876731562098904
Ge 11.9474406705857 9.537388795235222 9.00617356240692
Ge 8.890575699015669 12.892857167786387 8.147603316763899
Ge 9.660949850668313 10.893667839433578 9.584415697668193
Ge 10.213473367908348 7.935860094051141 10.188065104154846
Ge 7.764267279595934 9.3318143634206 10.400806366475875
Ge 13.243784055298205 10.017181618056059 11.187735698535517
Ge 13.185726282985215 12.527033621040168 10.590555247562628
Ge 10.886757190130004 11.523858608362618 11.627526448932096
Ge 6.8717626877688 10.131988169705906 12.643117089470866
Ge 11.296390851275241 8.73479402816309 12.321950241895738
Ge 11.394619887343493 14.113203036999321 11.456783981587996
Ge 7.977567200601875 6.777107218177607 10.463411680471859
Ge 9.288313676336768 10.547434099824438 13.433347182088843
Ge 8.280388062961954 7.972573114648157 12.779676477589538
Ge 10.17932451776206 8.435193750853458 14.542539848715958
