13
Energy = -50.33772594 eV
Ge 13.106630069306288 9.162828255886595 12.219275962480966
Ge 11.776930482539308 12.300897065409343 9.502653973606892
Ge 10.969642119949258 10.535786270814178 11.355809678100387
Ge 11.725256231011299 7.628911801849995 10.974878225805602
Ge 13.182060521850424 9.669548325366085 9.603703193097768
Ge 9.471274771293682 6.643888551444852 10.881594477195877
Ge 10.868691199420288 9.782000927778599 8.634496582179896
Ge 8.985933001468823 8.9438149554606 10.125966036915528
Ge 9.964678636065692 11.854103074157972 7.505879292233848
Ge 9.328819013755009 12.968307979502871 10.100429301181684
Ge 6.518019952088843 9.742419484697532 10.25761046195374
Ge 8.236660078757483 11.112993469151032 11.676319504598373
Ge 7.711880662604954 11.494744273384276 8.927826697068854
