19
Energy = -77.09743654 eV
Ge 11.823874740909186 9.948631344618097 8.965723572288319
Ge 11.20118410669955 9.500654666308616 6.419614840140907
Ge 10.007161544004823 11.623470360858121 9.787156115737767
Ge 11.47453113426084 6.836422010413371 6.570660280320453
Ge 13.551975201714265 8.655597760457622 7.345500805963733
Ge 10.433641319207235 11.985996605966667 12.400117666650493
Ge 13.639792881617293 8.649978990631773 10.186228771208484
Ge 7.899507703837633 10.332714105836041 8.944489087116356
Ge 9.769585989417356 8.281600678855636 8.235635374750313
Ge 12.775157943562029 6.56458576180075 8.809802525048237
Ge 10.239862590916673 5.913636733001809 9.002024012543167
Ge 6.7693562138690595 10.131540910397188 11.197600153733523
Ge 7.008593952076038 12.672423727400233 10.008419535927313
Ge 9.305966696180125 13.962126356642871 10.39803091810511
Ge 11.131529762618243 7.785659442449696 10.714670079361083
Ge 9.375032202182835 9.703934347907463 11.38378686649914
Ge 5.894516222715638 12.160453978707764 12.439285375993236
Ge 8.176479133501779 13.34698428861554 12.60799848870058
Ge 8.253229645950777 10.790822660660583 13.504663692186815
