19
Energy = -77.17216626 eV
Ge 14.436854079376168 14.794832837709158 9.165040303704167
Ge 13.434452682821085 15.568316459654 11.559277932192241
Ge 15.764312555979807 14.277345105824672 11.34324464707981
Ge 13.331630312685164 12.988830488069986 7.67544154045573
Ge 11.715190135225768 14.63833876843598 9.064386904070753
Ge 11.27912817623947 14.008045490350835 11.548423772904947
Ge 13.709135056963236 12.872095432206685 12.02638510015542
Ge 15.05932024926404 12.209852944950798 9.703098551847559
Ge 12.783480043257281 10.890064179979184 13.667663587414696
Ge 12.304573138558997 12.111210463872434 9.862708662329426
Ge 9.145504278484141 12.04376386599499 12.457015603795284
Ge 10.436292166899511 11.130994999336734 14.57307472073977
Ge 11.622962723011657 8.538247732218089 13.863969671714361
Ge 11.17924835882176 10.487318036395981 11.615996730509648
Ge 9.767970191398167 8.916220723299174 15.659375552060235
Ge 8.684707893818164 9.631122884104352 11.360886306015466
Ge 10.837422580036336 7.9182887617347495 11.405351337928842
Ge 9.03312121776977 7.773522576752758 13.308775755133397
Ge 7.967699926188226 10.129668220964994 13.976845518919049
