18
Energy = -71.9276812 eV
Ge 7.807683548483668 7.905546064394821 10.637163787136581
Ge 8.594288613526917 9.949728030204364 9.337552560915688
Ge 9.861064292374186 8.762646248119395 11.834030339871788
Ge 11.419040115225087 9.64730115329634 9.707323895218805
Ge 7.363971589650332 10.264179595304627 11.659187842388825
Ge 10.298072238230406 10.717343105372692 7.659921341068859
Ge 9.635530677609383 11.320066949101278 11.938182416759615
Ge 12.66901495015683 11.563702682994672 11.055183612293403
Ge 10.258019903790329 12.334886640376606 9.638468846758483
Ge 10.336362492584513 12.638942520007614 14.107974139954834
Ge 14.488820934798444 10.26094096593336 12.304146707149421
Ge 12.996832912044274 13.983101998774956 10.149388302768562
Ge 12.62961239633874 11.320393745371673 13.823600012208463
Ge 11.8578133757003 13.846357741083317 12.440447057484878
Ge 15.189573723458732 12.558883424053148 10.907324597717189
Ge 13.192349117253379 13.825198224613587 14.693960076558772
Ge 15.18286348357483 12.432620701168345 13.689813366139017
Ge 14.413193313195288 14.745441982850172 12.433045418494697
