15
Energy = -59.85307907 eV
Ge 8.844737278223928 8.061294395018862 6.519858254454131
Ge 7.354632739273743 10.016500679299602 6.128189655490987
Ge 7.834028456747754 9.893137978049994 8.639546168911064
Ge 10.032709700288395 6.26923027425437 7.88877146063413
Ge 9.880214496299649 10.71780982323506 6.561673810019661
Ge 11.388709811948011 8.575726814910707 6.906529571564313
Ge 10.382964000339417 10.266053961316965 9.122494737197083
Ge 6.624712756070014 10.74670481373778 10.727682291309439
Ge 11.787680791958563 7.763054329575247 9.31523462124659
Ge 8.991688695160851 7.779888529237085 9.676718803272328
Ge 11.367700673292923 11.54634426255832 11.135159749141513
Ge 8.958244459456738 11.262405835021731 11.644484429608871
Ge 6.541634904873623 8.088242152370183 10.652758423375149
Ge 8.233328841986694 8.932299881771453 12.367062338867333
Ge 10.723077450066754 9.02737132562939 11.659900740894383
