13
Energy = -50.61941233 eV
Ge 12.495859223190486 7.613589196813762 9.799071713157733
Ge 9.90313833213588 8.144353653705545 9.942350330887688
Ge 12.358671675319592 8.741808920527182 12.047365244490491
Ge 11.788449975304909 10.086830323263213 9.526432140838935
Ge 9.614466889352892 9.677325838803416 7.881937578214741
Ge 10.903122982280474 9.729444130478484 13.864149197492509
Ge 10.920292804509115 12.08633983020606 7.8026532874513315
Ge 10.50894535438309 12.258780825186994 13.349690547594456
Ge 9.841243044575265 10.218471083641985 11.577598785379527
Ge 12.388916137969785 11.340567797935558 11.871867470636234
Ge 8.464980341968369 11.773845184283593 8.847594361795927
Ge 8.453254156842956 12.365221177831378 11.460759788336219
Ge 9.980570533721192 13.583592302292542 9.643291543997899
