18
Energy = -72.23062069 eV
Ge 13.672583172220444 11.120769761701156 11.648299029635274
Ge 11.015484136148682 13.138526769076002 8.496123071454276
Ge 10.893619874245125 7.818014125416195 10.170906195480525
Ge 11.418935287129367 12.28071025132296 10.959211964117424
Ge 13.006283200100333 9.78418095608121 9.408184609897441
Ge 10.08385952864795 14.671067076793006 10.522900036564762
Ge 12.896477889959362 8.71526526377226 11.936427561933128
Ge 11.264388984575168 10.20154464696375 13.462285027873863
Ge 8.982912445132007 11.59686762118883 7.5145745326220785
Ge 10.381058372707894 10.484035027630004 9.398682460002092
Ge 8.320990655951801 13.694721037215688 8.885991497160937
Ge 12.604186219965868 6.223309553315334 12.132484266470327
Ge 9.266452245233625 10.841575961371458 11.802426539299995
Ge 10.521060713832219 7.7729948479561415 12.740611883964648
Ge 9.932951522721922 13.284049349552795 12.881484332414363
Ge 7.785448904822291 13.125263683373365 11.434119476476976
Ge 13.295180102906464 7.100783796651117 9.663826216320928
Ge 7.554522590787279 11.030921465411431 9.795979346624222
