12
Energy = -46.63237561 eV
Ge 10.26755479952124 6.80084896056516 12.396325884047958
Ge 11.004713602601022 11.05358843873116 12.550226452067736
Ge 10.63656544859251 9.215972228663619 14.228057325729385
Ge 8.991743367025915 8.968282553390612 12.19762982898496
Ge 11.838729016684777 8.600505807737166 11.93311559537991
Ge 12.478785364853126 10.76100941323194 10.296905969789261
Ge 11.055978089974072 9.94090109695292 8.289957997817156
Ge 9.611001108427017 10.622645227884856 10.27967374961851
Ge 8.72741221921432 11.715813422349015 7.831278107196095
Ge 8.678102759825101 12.980525430121004 10.033669594729849
Ge 10.818860670538696 11.664101679818447 6.416050223781829
Ge 11.068932201331641 12.726982283664153 8.774270874928108
