17
Energy = -67.60796389 eV
Ge 10.120889457343486 12.835852071423115 15.158554771461322
Ge 12.692354451764647 12.230408096610635 14.93756849168742
Ge 10.4877940609808 10.260267249218133 14.653947966335686
Ge 10.709996510389391 13.320080406625257 12.742515062265134
Ge 12.924265413909232 9.871190213006848 13.590774604179469
Ge 14.891597032982093 10.205249367195856 11.796283186534408
Ge 12.459151157122225 8.575988472377404 11.22358508684234
Ge 10.885971435798416 10.578369799376576 11.854198386384818
Ge 13.073437006242473 12.351089448324107 12.331927904883065
Ge 8.730625444302508 11.466561873264885 12.929159975775109
Ge 14.58168272949279 12.43658024192765 10.24879157511502
Ge 12.179392533449912 11.302306523363264 9.730251171067057
Ge 14.02199730564883 9.618204534532223 9.36431896070695
Ge 10.665566124598335 14.794137467064983 10.669473954602415
Ge 8.582237312434266 13.143980772838498 10.70963120319011
Ge 12.680710063400795 14.1598561562795 9.176229329219316
Ge 10.375399974960127 12.872082625844726 8.873983401812676
