19
Energy = -76.30475608 eV
Ge 13.683548416281985 11.238778955826797 7.941880480265705
Ge 13.686213270180195 8.736585734096101 8.817474312301059
Ge 11.317489090327626 11.695407927907523 6.886056415570547
Ge 12.445866225108709 9.337204741988614 6.516098328369845
Ge 13.213889294289869 10.631029199084796 10.780120802199015
Ge 13.764253388669717 13.286543704030978 11.076092690870842
Ge 11.602412915260578 14.555410714237386 11.963366908110164
Ge 11.262354252846913 9.777450381941714 8.763378705836978
Ge 11.698041701650974 12.581491533218575 9.54155456670577
Ge 10.132934202669833 10.67165419228764 10.941594597137605
Ge 9.466636811169748 13.266104185105858 10.744508445508902
Ge 12.991851302964498 12.601406991122078 13.46766200911686
Ge 11.693532141501972 10.407994111940852 13.05079512754862
Ge 10.127906950526448 12.607635279940595 13.149317699839834
Ge 11.481842827754763 14.377049942805522 14.674895173025716
Ge 11.49702322852278 9.247502552021377 15.301323570313563
Ge 9.327551299679465 13.049425839248537 15.737661047468944
Ge 11.53395987275169 11.721848430569677 16.091382934961853
Ge 9.344816727813217 10.566528787420745 14.86546938529811
