17
Energy = -67.30167005 eV
Ge 9.419461588022974 11.895232693365905 6.309790288756233
Ge 9.759312890129962 8.841940519241117 7.686914769405973
Ge 7.727095843866286 10.533861693070095 7.91827614949279
Ge 10.962065643958452 13.496112631225316 8.110857031587251
Ge 8.315292698935696 13.261580126823562 8.23393645368134
Ge 10.341936483776713 7.438683418355627 10.169290883424624
Ge 11.021364457842864 10.992828524274872 8.20870405060628
Ge 10.012404081636518 12.59885083966423 10.403853533457353
Ge 9.198125977970163 9.75084760637849 10.215775571274111
Ge 7.5477612385645525 11.707787816024231 10.397533389839356
Ge 11.358620260023503 10.987870239714061 12.078691760612191
Ge 11.49634933544127 7.671339186297332 12.56715966576578
Ge 10.818509238282207 9.557800453202796 14.18848527038557
Ge 12.541390090774886 11.807901467788255 14.147655818339828
Ge 12.046484856442598 9.32873852774991 9.932599576518632
Ge 13.376904173553438 9.467221352462008 12.93403904705283
Ge 13.045423340954576 9.647219846985982 15.453574364809025
