10
Energy = -35.80900438 eV
Ge 6.521745139414057 5.977335838578548 6.879172978671496
Ge 5.822684824437172 8.708529132571261 5.913898089907319
Ge 5.637110637932115 8.048323025512808 8.920712116666708
Ge 8.71093870817876 7.792207852342325 5.7253323753094945
Ge 11.934540092346218 9.074534492143682 11.896968501721203
Ge 11.32413616146148 11.815145587904658 10.88965799429771
Ge 9.074715245406496 10.048686926342084 12.068125762486329
Ge 9.288246117232646 9.869007112036726 7.88402441844427
Ge 12.16204643117304 9.701589355463055 8.894080986240688
Ge 8.513121971675128 7.928423528697103 9.941569535560932
