15
Energy = -59.27123781 eV
Ge 9.332846303070212 7.146077257138895 6.34262785652052
Ge 10.794043614386055 9.139914729519129 7.372069400413301
Ge 10.04387944121957 11.643160819140622 6.7115135260477725
Ge 8.667077217597294 8.162790914976759 8.672032082022236
Ge 7.751604315176626 11.808439809364122 7.948423558530322
Ge 6.730187282699585 9.719486865210412 9.005345900575074
Ge 10.428102313987987 11.379466019008499 9.142917998110505
Ge 8.799552722918785 5.55147902432348 8.342079801308818
Ge 11.071865779262998 8.744529187766647 10.102862920291644
Ge 6.263592551135045 9.966898890882597 11.5031765206432
Ge 9.746811551693257 6.373456663371377 10.571876637285953
Ge 10.16007019828028 11.006611610835376 11.65815549942179
Ge 11.335742489901074 6.565545650537591 8.220956477617667
Ge 7.914659921102836 11.66107390923371 10.582515033355461
Ge 8.618742309364384 8.789846660487374 11.482224799652789
