16
Energy = -64.54552014 eV
Ge 10.233050732246395 11.769919164580672 14.115157229978529
Ge 7.984971992941415 10.861173510898395 13.021865320054893
Ge 10.174688900270592 9.145821705975706 13.670578722783707
Ge 9.0279210030738 13.082997832550152 12.108458721132692
Ge 8.82003998966078 10.837791400957029 10.542649978855302
Ge 12.388238423297423 10.486353559866354 12.939867141576578
Ge 8.374868692999973 8.876183751898909 8.914010046585638
Ge 11.802704743271416 13.0763088909501 12.39504380860911
Ge 9.206266723973464 11.81804182679666 8.125746926599774
Ge 11.291482079838378 11.610836911022432 10.370357849652274
Ge 10.61358751710231 9.084793722375117 11.125425851986448
Ge 10.00607995886209 9.616077836635721 7.074514821537142
Ge 12.80878507275225 9.528016724771861 9.68933376289256
Ge 11.855800752600468 11.538145959652566 7.851417098320181
Ge 10.759176830706945 7.6710014010819325 8.968744192731117
Ge 12.441808819467793 8.914238523206707 7.126740265448031
