13
Energy = -46.0100432 eV
Ge 7.410860129305886 9.143556046961017 8.209266253046932
Ge 7.745251861803661 8.96986651472832 11.188741506664535
Ge 7.937295044342888 13.631018838025808 10.092270317041676
Ge 9.421150912031168 7.230368876914606 9.39903754856137
Ge 9.420022240421513 10.977963311522002 9.619089829903182
Ge 8.952959438445934 13.714229856473617 12.935224905624278
Ge 10.15488127537519 15.55886889077105 10.913405764918785
Ge 12.229580912861035 8.824953893753026 9.92784430951606
Ge 12.658312170621997 8.646279770495465 12.917043559181444
Ge 14.943869797809377 7.811480066568056 11.165081360595844
Ge 11.912951843120972 13.409317467183111 12.199010962108588
Ge 12.921273355054387 11.875107924974989 9.817216108950287
Ge 14.748927048039896 10.67237030844779 12.08196123047249
