13
Energy = -50.66293453 eV
Ge 11.167312008812662 12.106879503237083 13.011388269680637
Ge 9.431597375235858 10.21936657760621 12.416513234941013
Ge 8.696870688587875 12.590107815581662 13.229721694440602
Ge 12.116015612763016 9.796291884673536 12.063936092434398
Ge 11.425473356694479 11.184376852747814 10.110983374676367
Ge 10.621476374679041 8.29467679500203 10.160784415194312
Ge 9.483221262579047 12.734203033250788 10.786329841991227
Ge 8.109387105846357 10.553641912197756 10.051345614772053
Ge 11.86329739003683 8.49959572330385 7.888271153487607
Ge 9.721825394094031 7.141479849898009 7.399781716653595
Ge 11.689644308010367 11.060556765046215 7.559827850427646
Ge 8.24581894221735 7.889758119819444 9.441214532766963
Ge 9.470815447924537 9.727373589519003 7.8623043302178575
