11
Energy = -42.37391346 eV
Ge 12.367232568743423 8.789425520754317 8.693155121352149
Ge 9.545095189438046 11.66494771451119 13.507707511709421
Ge 9.327995758934923 13.760951595220334 11.87122433001483
Ge 11.390185460019037 12.32284480865886 11.396271541222164
Ge 10.515856878878473 9.95016268367618 12.001522228641738
Ge 9.60182376579543 8.198569804019796 8.805629830745136
Ge 8.384816427020374 10.572255435541104 8.574948799526979
Ge 11.06659200899261 7.597528983657435 6.896247704124623
Ge 10.812598754373065 10.667448744735468 9.285753778061553
Ge 11.206248958170775 7.7637541527785165 10.795233083594743
Ge 8.631481284624737 11.560036035658381 10.976835197141494
