12
Energy = -46.97728005 eV
Ge 9.237613709070695 9.758465773828998 11.596036133818778
Ge 8.79078535241541 12.177220212004608 10.802758037493971
Ge 11.369462858795504 8.464828046138345 10.586906468625026
Ge 9.777105826420454 11.493999867380323 13.406330010052859
Ge 9.716907093315465 13.969322930203214 12.394826489586922
Ge 11.327572366389727 13.598768582038232 10.189848381472455
Ge 11.807276579619067 6.980733744553174 8.762851733254877
Ge 11.022241804563196 11.010099448585171 9.845259023104438
Ge 12.15367213504998 13.012295476616044 12.717086212865008
Ge 13.318419354004174 11.831154911473293 10.760507084742335
Ge 12.035746011248152 10.195813205808648 12.552204738966816
Ge 11.182802708114162 9.226719371404704 7.991800570785043
