21
Energy = -83.47959062 eV
Ge 16.157107263621665 12.670640999287318 11.32338311339324
Ge 17.28890855168039 11.428144782970481 9.481218532408837
Ge 13.53664809396619 13.711113139358103 10.875368628519338
Ge 14.704598328362048 12.350207432995234 8.940437398182814
Ge 15.162549787713168 9.762354778255123 9.682647307689427
Ge 15.289156392607374 13.785486959635486 13.382404447086772
Ge 16.869844157263035 9.973376846700416 11.758202482665498
Ge 12.860752645033603 14.775840427391223 13.3148378180195
Ge 11.64214358098179 14.362734730745464 15.611175910038225
Ge 15.689517474509536 11.155001815235819 13.79207273481207
Ge 11.192606401790588 12.25563520096958 14.288120256113038
Ge 14.187621498564484 9.386530007480589 12.16189402626135
Ge 12.811502747333893 11.029225020948795 10.383729220934695
Ge 8.592408143119611 11.590296567519513 13.9783862131587
Ge 13.291093982990061 11.896678985547833 12.865078800504142
Ge 9.654531016495394 14.56635608204388 13.52721376223742
Ge 9.371550330197419 15.614912398122199 15.77138352673116
Ge 10.028862206487858 12.59293943455178 11.752638362723948
Ge 7.713056922469902 11.308847710928841 11.599834954723796
Ge 7.641311715747188 13.725267134616018 15.188882610319723
Ge 7.308151255330525 13.583750877870754 12.567191415371719
