24
Energy = -94.50873018 eV
Ge 14.866337557623705 14.935774889147739 8.147957283306702
Ge 13.079987304714116 14.653862121199683 10.224546825760385
Ge 15.74081834419805 14.964672026370112 10.593509738451697
Ge 12.823574723522892 13.351966476424359 7.995193748509689
Ge 8.26770333212439 17.925545813638468 14.094230314301964
Ge 10.201099897362775 16.830045796009767 13.09191238892974
Ge 13.270804983642625 10.92679933537198 8.922561689546056
Ge 15.041928977900023 12.67570057448987 9.581300281122855
Ge 10.521244218914712 14.455554899744284 13.786939130761859
Ge 14.096559511091632 13.170461586206484 12.19980976648247
Ge 8.577660500034114 15.625567389137037 14.856561176587887
Ge 14.956032850811074 12.68863662906709 15.495671432011376
Ge 11.688548642141095 12.319142267766285 12.8363486664557
Ge 14.759402138791584 14.812451682980607 14.049070167922293
Ge 12.631506661998772 14.085878994942993 15.310274962240518
Ge 12.392936120594229 11.245536077984877 15.094311032767044
Ge 14.55641850923138 10.843016657655655 13.612488840573814
Ge 12.994790439592075 12.473991782289037 17.263268524986017
Ge 10.653537592763456 10.468236095327349 11.390871754243259
Ge 13.243384805265585 10.07524045552144 11.293659225944195
Ge 10.363082049669863 9.890296274468762 14.077897259949623
Ge 14.52452370975205 8.394540788937066 12.754536939577097
Ge 11.704704224403873 8.18408129544495 12.474977396028638
Ge 12.854121699267802 8.693675363552996 14.826856364806384
