22
Energy = -87.10082023 eV
Ge 12.302887990708339 11.20119196076945 14.065870820640507
Ge 12.740542278658483 7.746816245498914 7.969408077105516
Ge 11.445532052527302 10.025116494207122 7.2873462336270105
Ge 10.07673100526295 7.427486706845481 11.141792693849606
Ge 14.072338166436488 9.877202402562457 8.47740540455847
Ge 10.245079926216455 9.752076393395106 15.054831116755482
Ge 9.919537281875785 12.355281782911748 14.319373841872528
Ge 12.244658126956132 8.596548697825762 10.334107024506391
Ge 14.53109125200505 12.050639723275093 9.695882208548959
Ge 13.029842973137278 10.781188363131196 11.46770671838459
Ge 10.004434065149523 8.007165899540546 8.708475089269974
Ge 8.038726918106493 10.299749776820489 13.927668602393954
Ge 12.931378249180916 12.213780385658412 7.568774114487777
Ge 11.561597455300362 11.715913631185146 9.629504538253542
Ge 10.438659933919782 10.084361989799854 12.477499373188149
Ge 8.19976718303541 9.24919092245222 11.360998025625367
Ge 8.809746060649301 11.768640148977049 8.684261358444878
Ge 8.56263538341182 9.69821704368264 7.311856179730256
Ge 6.806581473381507 10.163227595753412 9.40298517615605
Ge 8.765769387650872 12.123667116095 11.992365999594677
Ge 9.7570233907252 13.611960243014277 10.098741687923269
Ge 6.8722673869792725 12.608178148015275 10.381711306887164
