27
Energy = -107.57987895 eV
Ge 11.845839385340357 12.126577158192736 13.567763816390682
Ge 7.423029342110074 13.285949099303688 9.004631950694938
Ge 9.504151793978185 7.440618391267696 9.615748185805213
Ge 12.990666705646602 11.476202017839654 11.102592244288555
Ge 9.751853902452824 9.241282563228474 12.483690736380645
Ge 8.844869715110692 13.013683840463674 11.078335191634421
Ge 8.47459477295093 11.768996727977777 13.344856901876062
Ge 12.086725463119384 8.525753919033345 11.553389568521277
Ge 12.78652766275223 14.01407447330821 12.062763146081885
Ge 10.504629768318866 11.032521429686037 10.334511387013338
Ge 12.593687998997025 13.658152612466518 9.328972781147192
Ge 10.64434602814199 14.821365233331631 10.946122762108029
Ge 10.700363117247324 6.369056003955159 11.948904369218537
Ge 13.739423225686751 9.909405669349226 13.029722064082096
Ge 9.90898258576919 13.74040100254219 8.266976768496233
Ge 10.135008711211311 10.280540459869744 14.726218922017868
Ge 7.8149669163244795 10.835834638126647 9.617844215725595
Ge 11.243631805709377 11.750420791524373 7.409213090838501
Ge 11.885040323397448 6.231258565388149 9.609977761778367
Ge 8.076077996472659 7.312098870542252 11.755272469755543
Ge 7.2292806977231 9.855693120879764 11.91709089698033
Ge 12.698881079526709 10.584396795157492 15.291438876023557
Ge 12.397058456856072 8.923741503350609 8.985408117241933
Ge 9.664025752814565 9.81956366662621 8.107608867730704
Ge 13.670392718801454 11.263874477925157 8.624674735149872
Ge 10.844599118547253 7.440914774712021 7.42230370513897
Ge 11.338936868844723 15.82244241708316 8.670559880880882
