28
Energy = -110.20842979 eV
Ge 13.702133567163036 11.603327054422785 7.016322730097035
Ge 10.246103977131785 15.17606845141626 9.568228405986469
Ge 8.166448345928755 13.602043473013556 10.397127258867675
Ge 15.799193930285035 11.065155895544343 8.542391126734191
Ge 13.640654964912413 12.500954460708623 9.364805072258852
Ge 8.831789965380944 15.690381346844028 11.860860695946112
Ge 12.421958785760738 14.311960192566424 10.809809290072584
Ge 8.493201476339523 12.86135880226268 12.939100125058339
Ge 13.542692140909931 9.54469339924613 8.570866377717138
Ge 15.624260740345033 9.091640673593073 10.122074578124883
Ge 12.196784273226582 10.459106691523326 10.741287343411717
Ge 14.716482364880733 11.22119247557214 11.31353506502011
Ge 14.666808650966725 13.09899876743126 13.115686784645186
Ge 10.48175164912484 12.522048737257201 10.836705778218327
Ge 9.411390189534698 7.777103885506005 12.492593133232715
Ge 11.305248238833302 16.393661920893386 11.89720299608939
Ge 11.521027061999096 9.264455377303094 12.967965344277616
Ge 10.74905953356581 14.025946301525424 13.286025224680847
Ge 9.153972399566008 10.329205104609835 12.588350614189473
Ge 14.004774237581048 15.563051865580837 12.62427322936571
Ge 12.454305663536143 11.982638943086014 13.524503830670287
Ge 7.225722873359202 8.842556772228484 12.227555705985115
Ge 14.880199498472154 11.009310057070559 15.028766392200238
Ge 12.744948598779812 14.754805772561237 14.808988474690755
Ge 12.412980523733877 10.159915206143207 15.41036923763657
Ge 15.299617382925836 13.710897650888128 15.664728074153132
Ge 15.056839672556396 11.89404300861995 17.455219207647723
Ge 12.840595339247104 12.585777684143785 16.423583676328576
