29
Energy = -115.24374722 eV
Ge 13.281310548256672 12.92124387098926 18.119638662610665
Ge 15.39855824036745 14.249201858880577 18.109974337403397
Ge 14.064850428195461 14.657907591404003 15.986515074651404
Ge 13.401913205809757 10.529971243244566 17.315811914461662
Ge 11.33896817301269 15.797393001437975 9.768550101774904
Ge 12.065394490371519 14.229415276335 14.44937331523463
Ge 15.440964163921658 12.08089946445458 16.714025237835582
Ge 12.596618465604243 11.900033323810725 15.323273074088538
Ge 13.630247296058158 14.546413365679104 12.162775360509562
Ge 9.633936456580964 14.935404536441458 11.463837150052628
Ge 14.787570330865307 13.158102603037142 13.987569701194152
Ge 9.030880883617812 15.962423929262759 8.499914877433824
Ge 12.251552477090131 13.703298528174738 8.40216033139926
Ge 14.39288400892756 13.35180479332171 9.94022833230255
Ge 7.24954986425118 15.128698292642815 10.231005390316296
Ge 14.72515355131608 10.947290351639419 10.84403469004339
Ge 16.541979995985958 11.207529478884569 12.680748293080345
Ge 7.647390879965424 14.609371888744736 12.924077443953372
Ge 9.682328463640314 13.53523704822533 8.976759726302987
Ge 11.871722006851607 12.857845488091387 11.08744128184645
Ge 14.023994461661514 10.651190437579228 13.451406769188509
Ge 16.04655817847223 8.971632015983186 13.926755484407236
Ge 16.180155188125596 8.627284536805838 11.276146922784818
Ge 12.683220496134663 11.005376393413782 9.15515839295523
Ge 8.378537156501867 12.539180213146434 11.140480297035127
Ge 5.922026620758952 13.377009345589904 11.262622494762393
Ge 13.665188786977485 8.554412698124478 10.221194031738902
Ge 12.069129202601268 10.087584844486075 11.794907777843967
Ge 13.935802276447909 7.871549025118344 12.7559254467517
