26
Energy = -103.80641492 eV
Ge 8.706073479757825 7.9875043279962785 10.926944089381042
Ge 14.431735136306552 14.30916058357334 9.506513893606646
Ge 15.31046315684749 12.168129470032492 8.13877230275652
Ge 8.755419867432773 7.636533593463695 13.537479253742372
Ge 13.847210778087646 10.680166026989673 16.070938103954063
Ge 15.41787957908296 10.335847141907333 12.292175296451983
Ge 6.881399304925785 9.210763487916326 12.667287652592819
Ge 13.801071331359777 13.959340863341282 7.041890054107283
Ge 10.670884713751589 10.007310914294068 10.660384207799499
Ge 14.265918326790604 11.91784721459346 10.578590374201505
Ge 13.333551707938245 9.868050368606484 13.625989927371458
Ge 11.178894848011673 8.245104108402632 12.473197921285088
Ge 8.016294090536874 10.558434293181145 10.751942619315145
Ge 12.177867472903303 11.899540517720556 12.19423711039181
Ge 11.733763051715714 14.57028862873682 9.42744435597493
Ge 12.605821598497846 12.187634825401664 8.609393686623418
Ge 15.149160174087244 11.934886660663894 14.242835831490495
Ge 9.747213110463477 11.939806967606165 9.175476606664535
Ge 13.581506917346122 13.879053232768578 13.325571742731295
Ge 12.11050490481745 12.106171476379524 14.881060867180878
Ge 10.010088754575264 13.192378821080466 11.45574677710284
Ge 9.337665171069498 10.173024494242114 13.097264107066577
Ge 9.67509915606715 12.663501349333577 14.008711564805122
Ge 11.303404440682446 15.26579819862118 12.105407450530622
Ge 13.846444072254018 15.718951116483995 11.558137358901803
Ge 11.497874931448203 14.75033835848899 14.659793585598623
