22
Energy = -87.09831481 eV
Ge 6.542937505747477 10.59520225628307 10.494496510964124
Ge 9.013814204652002 9.40964747070887 10.525608112412936
Ge 7.99655516327742 10.248351959424486 12.759459993805534
Ge 7.749418737420932 9.475619708169452 8.3735911269406
Ge 8.048138155027615 12.676869068473883 11.749685263068187
Ge 6.690658251768519 13.666468202090563 9.77974505659548
Ge 11.44782416388418 7.911339755920237 10.862913031402428
Ge 8.231785149438823 11.929770992464148 8.6876853157465
Ge 11.969190163204564 10.382392395443132 10.104933128275324
Ge 12.457744645576843 9.297142142888417 12.791092766417968
Ge 14.067401579335794 7.959704613220921 10.769003150239229
Ge 10.373867460144837 12.556667608492749 9.922930232917517
Ge 8.844172998143378 15.149526680792762 10.231067199324862
Ge 14.248097489999209 10.60198810432066 11.220553074276623
Ge 10.554232580638795 11.162888090071554 12.350751310973953
Ge 11.419844490832109 14.8876449278058 10.026777520693605
Ge 15.959803171979816 6.839259505367613 12.068698179343407
Ge 15.260680955047379 8.986582756778567 13.386872768536382
Ge 16.616122638389285 9.116892858799503 11.067528777597136
Ge 16.315329402296946 11.244786846080263 12.489870615029588
Ge 9.858229969347295 16.269462581877047 12.166613900645567
Ge 10.538709139848411 13.88006764440489 12.393368465759275
