23
Energy = -91.17831328 eV
Ge 15.052295617269246 10.733927265620958 10.141786232938713
Ge 12.392417438257851 13.924045889742468 8.976771020553253
Ge 15.101837358419145 8.152114262232747 10.570630833595585
Ge 13.842925557577205 9.52588203924135 12.332553704558189
Ge 10.145715448191135 13.359030130896011 8.122605885129976
Ge 13.782724566330776 12.065036240002755 12.023701289055232
Ge 12.851038165206024 11.453611081270484 9.294044560774493
Ge 12.60379528269569 7.7038962920391425 10.532677915917228
Ge 11.278397879523618 11.69849048390594 13.840334621001213
Ge 9.992752432221362 13.916026524670494 13.657914918275084
Ge 10.861173792023777 9.95778183401471 8.832680915309465
Ge 8.691567904982936 11.550452772698971 13.702542586174758
Ge 11.28322183381626 13.313682261014934 11.30048508963707
Ge 7.759844513155455 13.376277848073443 8.147995720394738
Ge 10.530169250935273 10.753092100384587 11.345916856221718
Ge 8.747872822967505 12.887855249884144 10.634326963241852
Ge 8.4682266674567 10.900522930941369 8.684567659066271
Ge 10.63971147625137 7.404404824469258 8.839061116195865
Ge 7.5858170827708165 13.713522734428855 12.782629413172748
Ge 11.459368575444781 8.761162629578548 12.890887680006841
Ge 7.597632930609059 10.58108694178987 11.407736507371968
Ge 10.74584546543161 6.488002433271955 11.764949422353828
Ge 9.289985031837722 8.430352329598403 10.832505717970852
