25
Energy = -98.89550335 eV
Ge 12.757585646925415 12.085928833925868 6.930893166233604
Ge 11.530534833665333 12.055398339381151 9.178956232798651
Ge 11.39433641702258 9.86099047394459 7.540291006118496
Ge 9.020388960169896 10.544110120252066 8.93792168281669
Ge 14.34996447833891 10.065298645458135 7.895136159919977
Ge 9.053696535526969 13.227816075837774 9.063629296579947
Ge 14.498006679058806 12.488775667378649 9.094168976686731
Ge 10.810761994030731 14.383064865451473 10.67771189084674
Ge 9.190094214144763 9.01206405258673 11.01986151199959
Ge 12.58671109363681 9.455754291435994 9.783042389657833
Ge 6.959763390561399 12.195591360772179 10.345510424761954
Ge 11.53799741122749 7.914038625916513 11.481229457356818
Ge 15.173291398538883 10.080489630855835 10.406986936640985
Ge 6.600945567192649 9.622677074411374 9.509058006810063
Ge 8.02747073765302 9.114618339567917 13.495975449165389
Ge 8.646826954636094 13.628733530687477 11.844141372936999
Ge 6.707763970115489 7.931480238280372 11.431495947710765
Ge 12.687721315718097 12.645506748956 11.502389156491638
Ge 9.036552092229698 11.22202681707438 12.504398029404031
Ge 12.453988043682765 8.662420970992299 13.867860727182155
Ge 6.005053211325957 10.389887328414728 12.146987857591295
Ge 14.191071538204566 10.454008168796237 12.876768235610426
Ge 11.49597048188726 10.49251206616433 12.29744511239245
Ge 15.239679146773968 12.591536633308815 11.645233928135271
Ge 10.252136962634246 10.083584175051284 14.731220119053102
