20
Energy = -79.54524323 eV
Ge 5.704039111942675 10.513287841366653 6.730503807305796
Ge 7.481247367743144 8.6834032966377 7.038775342476263
Ge 11.772147919487566 11.374775806638715 8.14845566617989
Ge 8.09389709696693 11.529427669666939 7.066589252960895
Ge 5.471456270032671 9.150453812334566 9.081919139342174
Ge 13.078569210660074 9.684629490610797 9.917828840997107
Ge 9.713573649841901 9.679596061548407 8.077643304291499
Ge 13.604977100552762 9.431754010974856 7.548982379897025
Ge 5.749867018028249 11.882974041671387 9.000150235764456
Ge 11.667371930962195 7.8963490396232485 8.213259578775487
Ge 11.755669360229923 7.431938129998646 10.985434951663683
Ge 10.993167816817737 5.713853390504557 9.437389625329994
Ge 6.515609693833484 10.37314286891382 11.19811400529379
Ge 8.29212152349949 11.498446823176021 9.745203074636647
Ge 8.011224623361752 8.649546895417988 9.79802069462247
Ge 10.712009100767359 11.546899031875636 10.41519758855592
Ge 12.76694015022316 9.252909631948965 12.427847339689604
Ge 9.096190754011783 6.672211823847894 11.124452467593766
Ge 9.674658292953772 8.962780190174545 12.052923694226788
Ge 10.772943271241102 10.99930140622594 12.918990273555476
