25
Energy = -99.63822347 eV
Ge 11.070462563924233 8.895330746599546 6.313851077947228
Ge 10.879255674243291 11.40090261292356 6.620032810582573
Ge 12.698124589713098 9.83794899472849 8.066572065208762
Ge 9.37753124882456 7.616895603843576 7.8728415634531
Ge 6.883664935688273 8.170213950268307 8.393573404477397
Ge 13.014631166172197 12.41892202974719 7.661866330836075
Ge 8.456110742744732 14.013721904133305 9.491092608573542
Ge 8.62696754695972 12.329800077708272 7.439848486648577
Ge 8.435117931910941 10.07540748357629 8.62237513548249
Ge 10.927877358996422 12.995728539836449 9.040536537787604
Ge 10.605127949673232 8.812520614917547 9.675864808509713
Ge 6.934362345073473 9.446989518223056 10.886922347636794
Ge 13.182324414331934 8.793864254296498 10.534488217465416
Ge 8.092616225289067 11.835625351400365 10.850907446632846
Ge 12.913859151442042 10.728655219262956 12.384981413975067
Ge 10.68538006130757 11.333158114539115 11.029161459998699
Ge 10.58663544523489 14.692573136398567 10.984787000770607
Ge 9.207388534242149 8.775358521811082 11.948677904581459
Ge 11.027808680491908 6.817118148816504 11.44381867113562
Ge 12.912636399163128 7.797189475818018 13.002665620163329
Ge 11.71063563917998 13.292346284044301 12.782561092485151
Ge 9.189856439439197 12.724475430020629 13.014442432526492
Ge 10.2734381877985 10.42244612441049 13.644782182994518
Ge 12.338891441023842 9.658028175957789 14.790228697443865
Ge 10.438789922264988 7.584274281850435 13.972615277815716
