20
Energy = -80.82815996 eV
Ge 9.52915560538362 11.276952195726105 6.356826533605673
Ge 11.281282168279827 9.201383191190867 11.918336617770724
Ge 11.939174924300625 9.808478293272893 6.415061974332757
Ge 8.633858261070216 12.680244299136497 11.412515540660397
Ge 9.583380777392968 8.627255890989737 6.630601730810827
Ge 13.513471330472564 10.66682779976608 10.960032631097446
Ge 11.450368378314584 8.755407484693825 8.733592683030725
Ge 7.892275351250655 10.82146760772168 13.23882505097587
Ge 11.333163494803141 11.518622451154407 8.240994302804475
Ge 9.768160030329712 10.488879120363647 10.050451242969894
Ge 7.706569120701287 10.112127122293394 7.888194651517879
Ge 13.113697814320675 8.130322485101626 10.584582851542324
Ge 7.232923209560911 10.35822728871258 10.609876970290545
Ge 8.778245352016915 8.480292404044008 12.091152405744753
Ge 11.242960596168658 12.234184786194222 11.468756901268607
Ge 12.91477506676707 12.864217973119441 9.70140942043035
Ge 8.76104739513419 7.970089866922786 9.079988490572473
Ge 12.373619041929805 10.964678467519692 13.611525494735313
Ge 9.953075418072183 12.422122335058184 13.79678800777886
Ge 10.069614361008126 9.68903663429642 14.281304195338036
