26
Energy = -102.59193883 eV
Ge 11.297702925542882 10.267724198669539 6.894169483236419
Ge 15.447990134875385 9.826842553216684 8.486554966924492
Ge 11.605752097522894 11.70843447892654 9.030113894201955
Ge 11.132727815860212 7.559291004430996 7.309853572321939
Ge 13.34102377167209 8.751683309897212 7.496710682744126
Ge 13.977201908884291 8.952087478356487 10.387652112641467
Ge 14.096542419698778 11.63938611842678 9.769062592818395
Ge 11.37390246056968 9.08862841007536 9.461849652586794
Ge 9.107864216557166 9.25406493258458 8.050419154133854
Ge 10.633832599120321 13.915437421881066 12.141367050984158
Ge 14.854610691538129 12.480999995359445 12.05866560649316
Ge 12.721338176412946 10.612965269048678 12.005408860247027
Ge 9.988905603838749 15.359945680956775 10.16532915992381
Ge 8.104845091413893 13.683196440671031 10.738686120677885
Ge 9.743534336188649 13.430280917200644 8.457004207104205
Ge 9.983106025163156 11.43629008789825 12.053315995841649
Ge 14.336889285448159 11.155025060871287 14.161414739146787
Ge 8.898508895413979 11.319156008451701 9.76455765718788
Ge 13.902841314461375 13.998470692797893 13.888574668586038
Ge 14.156704716244116 12.67655701972482 16.108839391697725
Ge 8.518479616442345 13.508664269850872 13.567161106554586
Ge 8.284408698198252 10.923142949199146 13.955120791444168
Ge 11.110359744294822 10.412559516114063 14.500430418727039
Ge 11.810174114916 12.85190056444951 14.729430804766656
Ge 9.247569410029836 9.963148538245909 16.18392706577351
Ge 9.527831756446899 12.461184790571984 15.91356697807344
