21
Energy = -83.99013892 eV
Ge 16.000301271250354 13.148990431474026 13.02471125892508
Ge 15.072157792096014 13.388856022079528 10.610048150536239
Ge 15.777398244058732 10.933550105883702 11.74424383129187
Ge 11.407383611826997 11.138322664860361 15.811295849969927
Ge 13.545245075583294 12.505654380315812 12.936550683311925
Ge 15.351332644593885 11.114759323792242 9.128153764079865
Ge 13.661814623028507 13.035827009949282 8.511994850106088
Ge 11.145089750659952 9.260232969105417 13.978096035072372
Ge 9.193089827102405 11.11147526758369 14.60606412481931
Ge 14.48852075860293 8.984665760457428 10.632173370373746
Ge 12.279306122791729 12.78962789455251 10.695123715273185
Ge 11.247839086917054 13.022436110215692 14.07750550870733
Ge 10.579281502181711 14.890348446183124 11.062595899480423
Ge 12.566089098121267 10.490518684316445 9.312236075900465
Ge 12.823800764325494 10.204062850863782 12.088407267662584
Ge 8.619444166195906 14.506951509319876 12.894538688087298
Ge 8.71406272314259 9.205889024633759 13.019412284160857
Ge 10.351569162759109 9.850561976945508 11.106167749688868
Ge 10.782545607268782 15.529704774675185 13.647853370204867
Ge 9.724929451210718 12.132021813093388 12.061731822169008
Ge 8.272865141030014 13.760473547313628 10.553024175131421
