25
Energy = -99.68014224 eV
Ge 11.121654134203434 8.001259824645384 6.209945494763458
Ge 11.113374220061532 9.480707426599126 8.373482782648308
Ge 13.389060706768658 9.135742472439151 7.147656735162768
Ge 7.4249539973915155 8.798079305684308 7.569809821052568
Ge 7.263000788299679 11.152810261986724 6.389463036500073
Ge 9.042159909875364 10.913155321961616 8.336525964901025
Ge 10.031256494601507 6.8510569651411135 8.328479520851996
Ge 5.4088249610508035 10.416776048864598 8.370239368105999
Ge 9.386531271293778 13.25560361801983 9.401411784125907
Ge 13.396786113340813 8.247902602374456 9.5822175296719
Ge 6.577583905937147 12.68157667942183 8.337829904242104
Ge 12.686183182113624 6.43936095963885 7.623943789280367
Ge 11.918801690820377 6.204528118579212 10.230539652768988
Ge 7.461880101228428 9.759098093437698 10.055964377156386
Ge 11.795560347113366 10.741226557475049 10.870854416546571
Ge 7.161238744937763 14.483063144563236 9.943485362622415
Ge 14.209679467670432 9.913978688514435 11.41593430531287
Ge 7.355842299813139 12.10544915823723 11.081956681187236
Ge 8.21251840767403 8.214435049536457 11.97961597569681
Ge 10.239391321940461 12.601305143952274 11.784850570657458
Ge 10.49177700751065 8.350340945551242 10.811680437289152
Ge 12.228491121700126 8.858394801117717 12.732553148337123
Ge 8.550882373880501 10.875733771005281 13.209689619491941
Ge 9.910374252071291 8.880068756504647 14.049502490221013
Ge 11.216083937783369 11.232237043830311 13.756257990487178
