26
Energy = -104.52006497 eV
Ge 13.163136646822114 12.714234342863502 13.545620373725438
Ge 11.596739861232525 7.834871018007476 13.35772178863736
Ge 13.555949995664486 6.601934183705635 11.830753848746312
Ge 11.224436959254136 6.6284109410749865 10.699076937580614
Ge 13.784567472977624 15.402458376828575 14.731249481389963
Ge 15.144813082470133 14.77449967502103 12.670979951587569
Ge 9.676024571153313 8.546555976482942 11.73773086324006
Ge 11.215331935497492 14.437103795771904 13.99094124308462
Ge 15.640387582084205 12.410379474916201 13.658849777111405
Ge 13.673346943076565 9.187204756746912 12.080793694330819
Ge 11.443472937276088 10.456496766621603 12.797951803945951
Ge 12.200811039298511 16.63833683700444 13.09995549158505
Ge 10.744980657703788 8.600333534773346 9.084421490925227
Ge 16.114604254205318 10.000932087201914 12.730329328990727
Ge 13.317679830631606 8.010370629155181 9.51861061714267
Ge 9.881108774103222 10.873563848377689 10.578942258873637
Ge 10.807264860592419 14.825352287061664 11.370422121368538
Ge 9.252165815956126 13.144721896811989 12.736883875744107
Ge 12.436088895960673 10.456406991286684 10.147531148069296
Ge 15.252496194657065 11.424849432060217 10.941331358752327
Ge 10.155531008407147 17.532180139069162 12.015692391773463
Ge 13.376829701679737 13.771710600890298 11.17851453395626
Ge 13.91373884826555 12.354731345033876 9.106741052309184
Ge 9.798830732147898 16.811742893294568 14.729769702125889
Ge 8.794304053739099 14.408642181197864 15.026560209168588
Ge 8.343765388959264 15.716667646191407 12.654587744660816
