25
Energy = -100.88373485 eV
Ge 10.144564755334171 9.898412572169077 6.70018357079174
Ge 12.455918230170484 10.332891997627648 5.556387894967129
Ge 12.509900663183016 8.782152603820084 7.6833179534490235
Ge 10.827585392653953 12.440787670383502 6.554868880400128
Ge 13.013624675318619 11.536034794435945 7.791195692988306
Ge 9.426190200823466 10.694677498885316 9.851563597075094
Ge 10.085409651986401 8.433202850020662 8.824252238637225
Ge 10.879308598654442 12.676464553201718 9.109320394934326
Ge 12.97179555763725 13.35588119146872 10.627346786073327
Ge 11.978126776380043 10.23108356713119 9.848199126463259
Ge 14.90575888371782 12.89997815881531 9.048700201859624
Ge 13.029426602412514 9.312901625306042 12.068026285433346
Ge 10.617366546742643 13.142558235523241 13.652944013908908
Ge 15.498638268506065 9.941923776004309 12.835321219982022
Ge 9.324567400359857 11.129070876019851 12.406986130149647
Ge 14.733065357118036 11.202595641647765 10.882359844650882
Ge 12.9139599934104 14.109285059242797 12.994553030963587
Ge 7.241720472684257 11.463031655833367 14.073996979723196
Ge 11.504568671409066 10.606646983475194 13.802096976359723
Ge 8.229033980437485 13.516934932987299 12.742531124834665
Ge 13.934208565560454 11.813657099419032 13.524684848868397
Ge 9.33462098316519 9.494794632715866 14.713172812469525
Ge 8.588277044411168 13.514324389684328 15.395461455834138
Ge 10.794170050063501 11.660469600957557 16.047429618709756
Ge 8.319890416632198 11.071935771997456 16.52679705924571
