26
Energy = -103.98873752 eV
Ge 10.95002300858183 9.104859758027462 11.591809456755007
Ge 13.446495103191577 9.638222896848863 11.854812584707911
Ge 15.159656600250418 11.254278812753642 10.347781743704333
Ge 10.469100004387982 9.279061574047965 14.22036927106084
Ge 9.213212862218276 9.796704797345699 9.785823010042833
Ge 13.140457701813437 11.247249256423876 13.811163672793091
Ge 8.036326378321565 8.570113177851612 13.708142244774931
Ge 9.161139583882267 10.952056255208863 12.495079874890406
Ge 13.915064775975484 13.813559954112419 14.288914652784953
Ge 10.411594852949767 14.47447742067096 10.35155325919146
Ge 7.169534719640326 9.801875124462505 11.387248116567617
Ge 10.436518995337188 12.199516742906578 9.070173170925367
Ge 10.483828176752352 12.57275901111307 14.07663380014348
Ge 12.531992048319509 16.262773567731188 9.960462307854955
Ge 10.986055394966272 16.192906390241088 12.040920751323673
Ge 12.159830212318637 14.249130245763372 8.240821777778239
Ge 12.30268156405707 11.83042754264799 10.730092244198172
Ge 12.082456228190924 13.80771165320806 12.461520295330908
Ge 11.585646726014755 11.008594359264343 15.776592197373343
Ge 10.400307217005524 6.958585881365233 13.188490544279071
Ge 15.713956480389227 12.004268792548999 12.892073340644417
Ge 14.322464588263431 15.385998964103923 11.806016672223079
Ge 8.708231460351922 7.433734984836863 11.321011995050526
Ge 16.423582174068013 13.659921545042353 10.779447678673508
Ge 14.00863492394664 13.589172391662107 9.857884495886625
Ge 16.283915793547216 14.566475769781361 13.336460657151063
