25
Energy = -100.48327043 eV
Ge 13.262034461763543 10.689764602516766 12.994976359834089
Ge 12.624847183034522 12.432712839522813 6.541262728704524
Ge 9.930130403123883 10.091169118696124 10.672219125085274
Ge 9.177181398179767 11.867722218775583 8.915700760832943
Ge 10.711738967930648 10.866781293042969 14.195881368689209
Ge 11.613699886075654 13.464372444292046 8.67908519181742
Ge 8.91262138839453 8.03527751301736 8.891093164454418
Ge 9.30081074157602 14.313329090702137 9.358011891128626
Ge 7.429012186866796 10.03344874518288 11.954176428940569
Ge 11.901201374469858 8.585710972626487 12.999708045986443
Ge 13.149252001106063 13.988288559722935 10.672219125085274
Ge 7.429012186866796 10.03344874518288 9.390261821230123
Ge 10.126796416637239 8.345903427054651 6.629051680102576
Ge 12.624847183034522 12.432712839522813 14.803175521466173
Ge 10.126796416637239 8.345903427054651 14.715386570068123
Ge 9.30081074157602 14.313329090702137 11.986426359041769
Ge 9.194456842666968 6.170541959053183 10.672219125085274
Ge 13.262034461763543 10.689764602516766 8.349461890336604
Ge 13.166165497613894 11.603555809375669 10.672219125085274
Ge 11.613699886075654 13.464372444292046 12.66535305835328
Ge 11.901201374469858 8.585710972626487 8.344730204184259
Ge 9.177181398179767 11.867722218775583 12.42873748933775
Ge 8.91262138839453 8.03527751301736 12.45334508571613
Ge 10.711738967930648 10.866781293042969 7.148556881481338
Ge 11.245551135834779 7.681979097606111 10.672219125085274
