21
Energy = -83.37518285 eV
Ge 10.766001113525794 10.34890672025043 15.556909975042142
Ge 13.01602317523299 11.331571819927701 16.54710292393432
Ge 12.013995028571133 12.69655973821752 14.6223937805362
Ge 13.369206967851643 10.213713732211742 14.312495649456125
Ge 11.253523824053868 9.65044030294378 11.386805825713154
Ge 11.484031964058307 8.46784032017188 13.685485689130513
Ge 9.402915799955444 12.332266624680512 9.267285495926265
Ge 8.959648381160722 10.113970408338366 10.400456929333824
Ge 9.257356334328765 9.867826778033077 13.300578338501557
Ge 9.430283897959795 12.375639285728335 14.484884829447573
Ge 11.842045405825596 13.09031306956888 8.780244329378093
Ge 11.420550304652965 14.401843159698961 11.471368236747999
Ge 16.441321458419626 11.942178862158922 10.369641208072775
Ge 9.881977950964203 12.218751426407152 11.865331559601435
Ge 12.590392712488972 11.698450770817477 12.239972886259801
Ge 11.157929733098758 15.583863791753316 9.282766477559372
Ge 13.588438849141918 14.372644550068632 12.96013375474385
Ge 14.022302461956794 12.216223984315059 10.022560602750206
Ge 15.191676683135102 12.127862187204775 12.728775180915038
Ge 13.571190947156328 14.938401095691994 9.750134321140408
Ge 15.692304436113064 14.341504134411345 11.002509940262557
