26
Energy = -104.11464192 eV
Ge 9.639760078079194 10.140045794486923 10.365761905283533
Ge 12.434273987462387 13.119580678534186 7.9827711359132545
Ge 12.42761506517834 13.344476045150879 10.621292290867654
Ge 11.761515282159397 8.483678424939061 14.376816610574323
Ge 9.248689979238438 11.927268745099123 14.258660334295794
Ge 10.472379874127045 14.597832098215006 13.824150194256756
Ge 11.30235254767488 13.326246785951582 16.038464273828733
Ge 15.877345382207665 10.837458430481384 9.62516567637903
Ge 11.89755474279504 10.267360265178285 9.151497784687908
Ge 15.044287583790855 12.599993183869996 11.57066196145032
Ge 8.386907124514607 13.685990420109697 12.647010426527851
Ge 9.703093756502723 11.75787695037744 8.31995882826157
Ge 13.909691069204301 10.976124663948571 7.759063528394009
Ge 13.735794120238333 10.057784341744883 14.122488086475768
Ge 11.18423998748326 10.397408662720318 15.880407596195957
Ge 15.514506500016582 9.973672675235663 12.145110860287781
Ge 13.205504527916345 10.70993602151577 11.343031469054655
Ge 9.297310332216238 11.751245653163805 16.766642480234623
Ge 14.708025213202067 14.017539082154647 13.828081482867011
Ge 10.85582155469192 10.353870436434779 12.85919444673231
Ge 14.998364697317692 13.249725595533157 9.034253820217778
Ge 9.971144680818895 12.767393030447037 10.826985951158308
Ge 13.743046829461884 12.22326657882549 15.67127039252155
Ge 10.134863274613743 14.232273404707852 8.562684331532996
Ge 12.303269139119786 12.625110724645976 13.537913267118578
Ge 12.6753408958398 15.070785959080808 12.535110848352573
