23
Energy = -91.06952853 eV
Ge 17.468047850199376 12.700971270205889 11.547291554484318
Ge 15.904657008409762 11.140447380776179 12.582347096469903
Ge 15.719004898455399 11.807463337322899 9.815054647030935
Ge 15.10591097671829 13.787409127778139 11.730092892779657
Ge 12.810332461980105 10.379934695007485 8.542632519025755
Ge 13.579947663384065 12.585423804954866 13.51039965236051
Ge 12.256033766180215 12.855670832864947 8.259102488568175
Ge 14.386091854696476 9.54286387382959 10.54158114468366
Ge 10.240475772019161 11.064145933454105 8.609146657572445
Ge 13.153290038284434 12.005936812480854 10.776045215744412
Ge 10.790535902652628 13.329684408817362 10.619930991890215
Ge 11.609340725280404 14.37500525300756 13.174551152840943
Ge 9.828374995256777 13.535403187885233 8.204546523612064
Ge 13.173190927697139 10.190461133488355 12.78339239161743
Ge 10.512529854028063 9.904208446233744 13.619034207152339
Ge 12.253699393946565 15.744276133321607 15.24131041364601
Ge 10.036364965059061 14.555182610001923 15.472203219499187
Ge 9.80762740574819 11.01524486063423 11.274077747893429
Ge 10.338690632990106 12.41591772767671 14.29267128054327
Ge 12.50541851169079 13.235603278466256 15.820049528027297
Ge 8.05760636392888 11.551154037692609 13.204109448855474
Ge 8.159254803628148 9.312488889747419 14.537345633032619
Ge 8.429056795505579 9.105245579447265 12.030333512989387
