27
Energy = -107.51837929 eV
Ge 14.38241784021113 9.614081598100094 13.366035558069008
Ge 13.899818414022858 13.609516710077529 7.094523947619369
Ge 14.82324070092931 14.960906195720357 9.300361858439778
Ge 15.825926378781924 8.210826114829574 11.835654720831089
Ge 12.010588587382754 11.836033337385087 8.248629114773928
Ge 12.913316890345863 16.03032761389057 7.8509769842414645
Ge 11.290659148026347 11.932711693982503 13.48769979463374
Ge 13.0498563635406 10.913130390388428 11.432379583098784
Ge 10.266773854287022 13.222209704827964 15.766496452171525
Ge 13.471677711989617 8.381255242523201 10.879907660705427
Ge 13.948561912518823 6.866588039634259 13.10635147915983
Ge 14.299536918142502 12.368056492029934 9.511544985300697
Ge 11.231997656304564 14.097712350555263 7.111477526473893
Ge 10.439515421202298 11.581163766469555 10.638461185884704
Ge 8.950591616175448 13.62320763493687 13.618892409335094
Ge 12.067602910909097 8.48688081956721 13.113337341273239
Ge 12.288781941881666 14.142682487614428 9.55114298032296
Ge 11.638751516602184 14.456950619905959 14.049094757130105
Ge 7.892859760891651 11.162170811398543 10.309480735249867
Ge 8.866406650091248 10.854689985316162 12.994986309078499
Ge 10.672432399742721 14.18352208151511 11.778297506302506
Ge 9.504733649699146 8.414305763819508 13.448344854944494
Ge 10.044915737948932 8.939997592987794 10.800678637149092
Ge 8.012396969657715 8.873590696146556 9.041391576744857
Ge 6.411668953648746 11.103608206726735 12.41728819482138
Ge 8.571714480151726 6.9341892017258395 11.545861187681338
Ge 6.831669466142116 8.78557619956064 11.268904355401677
