24
Energy = -95.52267796 eV
Ge 11.433529100170585 14.385896983219448 17.172015405595168
Ge 13.48290935735122 14.502932469730325 12.910408605989923
Ge 15.580055999700345 16.11930078485132 13.38971244895112
Ge 16.375125421391022 13.211972485376316 16.71798313176229
Ge 14.146064749006891 12.339872535249729 8.72500205581912
Ge 14.24122195733524 12.61416405278452 11.329175411818262
Ge 12.438617044881111 16.800826512979143 13.308513256482414
Ge 13.558552285730281 10.101261790370842 10.142946824094055
Ge 11.772420830147233 12.015963882395004 10.364696536710047
Ge 16.37404823685196 11.477820923989906 12.158112870975042
Ge 12.56653798292123 12.70091999286612 14.405622827560162
Ge 13.265899393732688 16.209653839848716 15.6708070505545
Ge 11.762560776428717 12.953762107938012 8.01997738194688
Ge 15.078379135549355 9.130257166001105 11.961539570156916
Ge 14.021484009655822 10.716063534270681 13.62772804358063
Ge 10.578599133235913 15.597980297651699 14.744090335016093
Ge 13.857459917589798 13.589362250348962 16.38804199425472
Ge 16.085873284910566 13.805737358955298 14.092821838021418
Ge 12.264415659529346 10.419322385138567 8.099993062719328
Ge 11.255462834405877 16.989878554245585 17.1377574003822
Ge 15.790004694757666 15.758828017281346 16.043297743049973
Ge 9.05739452744899 15.826738695870263 16.86012593274297
Ge 16.202263804570606 11.259611881987267 14.805955174706648
Ge 10.125058700762414 13.156377994222167 15.346952740201438
