26
Energy = -102.8452903 eV
Ge 13.649627462230855 7.542378360228634 15.606455673634365
Ge 11.701353824304931 8.827501759561342 16.681642750129814
Ge 14.007781682340873 10.103632937792115 16.01459218813244
Ge 15.581126090088484 13.951807077110418 12.178576914730343
Ge 11.862645309917841 8.275960399095679 13.98162292098428
Ge 18.805290034881903 14.758054485764674 9.581442961393925
Ge 9.76460220476356 9.413439683461213 15.032998245928484
Ge 17.93701059188206 13.392150848748932 11.417853155970482
Ge 13.351969996613782 11.757731906756737 14.088804759418375
Ge 12.071808159161971 10.352513798318576 12.379458384256651
Ge 14.355235274877119 14.194776562766394 14.4461405758259
Ge 11.791731996074816 11.475257083239333 16.59285051321447
Ge 16.773579677541857 15.657764546653125 10.568736618409277
Ge 13.956506100524376 14.089196748771275 9.895175097493567
Ge 10.837409460477895 10.523541688045626 10.097149120667419
Ge 10.64961594275806 11.761095387723103 14.208288276785543
Ge 12.726144105089311 14.230650443578092 12.371722912041248
Ge 9.193095478764672 10.413948166162942 12.252879352803834
Ge 8.556049586013033 12.970778803497469 13.266049283229888
Ge 13.515564682489908 16.569046833572457 13.604263960689353
Ge 10.199040429411962 14.430328618900555 12.027882648200555
Ge 8.98447544573725 12.543630456200368 10.523848356759373
Ge 11.644504649792523 12.933789036087742 10.224959291449222
Ge 15.251322336321337 17.333280708372076 11.77715004471057
Ge 13.155960151499523 16.40076748015004 10.657709032202812
Ge 11.22947755839333 16.8225636463584 12.244816873074615
