29
Energy = -114.85013364 eV
Ge 15.13716973050387 14.325007207346392 10.225754639204592
Ge 10.792918754968262 16.580912476545468 11.05377615824508
Ge 12.058355833823933 15.431597064080018 8.814056799881678
Ge 16.490452061797463 13.041471259812269 12.014861455768239
Ge 9.380603931973699 15.318668372440776 9.097530910974688
Ge 14.885046717513447 14.781330865844414 12.999125341784627
Ge 12.965661031464352 15.296495570579642 11.51722580364399
Ge 14.187478695228224 12.147490732852827 11.983459579749114
Ge 10.709612828477189 13.264569313582449 7.96355879362445
Ge 12.571565715198664 12.997006758049086 10.069166131523072
Ge 10.351211056267687 13.982164160431793 11.34000690256355
Ge 8.582918799182478 12.791943152668713 9.706096045667817
Ge 10.628899676491438 11.296326354438964 10.142454057501974
Ge 12.443464066277034 11.800995793996012 13.94623288710557
Ge 14.13548023539105 9.67141337540844 9.33748253739303
Ge 10.164503686160705 12.918747273878843 13.6828569262011
Ge 11.634702534622713 8.956060588379444 9.70695432049534
Ge 15.881159929094101 8.03213463422806 11.138071531022161
Ge 15.545726948626397 7.667690688481049 8.65833703590168
Ge 9.029604762975794 13.452889687593085 15.918466992084266
Ge 13.716187727136347 9.016025335874822 11.915311359577746
Ge 10.472849814182757 10.248257890710619 12.595161259102841
Ge 6.621905062302029 12.637661964839728 15.399839628544521
Ge 8.364362329555966 11.116092947446989 14.349382302909405
Ge 11.37349306777446 7.577265900535635 11.839989456641588
Ge 13.543189023433454 6.917468654582057 10.153253552457643
Ge 8.186078778528836 11.152978445209987 17.010293642494712
Ge 10.508432057342324 11.131300539731768 16.070333697682678
Ge 12.373659683824558 9.168200341658457 14.100849568780593
