20
Energy = -80.57245125 eV
Ge 10.943199506029817 11.850055949338246 9.944643239018346
Ge 8.204721792365673 9.749224639698292 6.949497068567188
Ge 6.153850571515349 11.067755348642933 8.763697759090691
Ge 11.258174287666838 13.402008626061708 11.998490681782062
Ge 12.050491042928261 9.456029535214576 10.603398180715471
Ge 12.023141501274614 10.231462257475119 8.079480820294627
Ge 8.680917858436743 10.655261998763155 9.475428547429836
Ge 9.87441479403601 8.454431636247513 8.535405020996096
Ge 12.682203670919897 11.739123673601574 13.637335623035186
Ge 13.76761681410731 13.067362231402061 11.436870093077706
Ge 10.45325103092485 10.803390330340466 12.413842412514926
Ge 5.776464952484557 8.96173077669146 7.1981064836769315
Ge 12.495120835104968 9.098547535119758 13.104573311250258
Ge 13.925088034742517 11.348145750367227 9.517266817544309
Ge 6.870107812994482 10.373704592533102 11.320060279859177
Ge 5.9211837398101235 8.522034494766942 9.818813572752633
Ge 15.210811379912046 12.277729607298488 13.35619998943636
Ge 8.503568793822678 8.259611447835605 10.76293933866918
Ge 7.600621678112642 7.193830959761295 8.131548666300237
Ge 14.471847528747965 10.330249521486708 11.838281315092605
