26
Energy = -104.06332754 eV
Ge 9.397527068299956 8.258105290073742 11.46155444145919
Ge 6.671539336246346 12.149783152998609 9.481406728970448
Ge 13.40848864210442 7.560757691559877 6.717031396759135
Ge 6.9329021969093425 6.014883299372109 8.479915349236414
Ge 10.73847172852225 13.835977265031788 10.610904184589867
Ge 10.939719249078397 11.337960537590247 11.232537956048288
Ge 7.924175073492885 9.102318201034569 5.248481612263557
Ge 9.464419532464236 9.53314963213513 7.274514638446142
Ge 7.192360734919827 9.992595484779205 10.758294142234412
Ge 6.812206420095817 11.395987666336595 12.900953662483959
Ge 11.041219499189372 5.515644734329672 9.575007005754733
Ge 9.279906862895372 11.536072842511949 9.244175483698918
Ge 11.144387241074678 6.891429036431904 7.4104639496635825
Ge 6.6173786964152885 10.157034012999892 7.329992241657775
Ge 11.520092738368582 9.031293434986553 10.138545772155261
Ge 8.687890936797155 5.9046392060528605 10.710939406951379
Ge 5.958788770644945 7.691473203411228 6.392075406368129
Ge 9.233078356035346 10.44296875327727 12.974603444255925
Ge 5.649726929173682 8.334835193933248 9.03349154764636
Ge 12.089911927950439 9.655290564707313 7.703225676252662
Ge 8.356284150813003 8.124059889098401 9.069305453524855
Ge 12.219355736743431 6.928805628939521 11.543325097505328
Ge 8.480001008469099 14.064415603008552 9.269928948277679
Ge 8.489934433460169 12.925169105420858 11.732158262213026
Ge 13.28950420802456 7.0918868307045875 9.287948301062244
Ge 8.64230238441738 6.870811243416122 6.536154238697833
