28
Energy = -111.87839211 eV
Ge 14.703420975746733 10.28448681804955 12.541096327039535
Ge 14.466882674018352 10.408726965662344 9.83160080824263
Ge 14.307342426977337 12.682258200759742 11.40294326010396
Ge 12.429499578391658 9.848318015161793 6.852852212765804
Ge 12.180594975682943 6.292907660721261 11.983400796999023
Ge 10.972963284399551 6.723125136251199 9.747788657500179
Ge 13.132057647409207 7.844143409509383 8.410789344213425
Ge 12.132086591602908 10.389157688276834 12.935475917211935
Ge 13.124972844911845 8.587685982788313 11.213119204544086
Ge 12.868695006546911 12.402387304075212 8.922170599565089
Ge 11.275834313073414 16.307568236165455 12.575265048713998
Ge 10.445308185516973 9.692219704528698 14.696426329013558
Ge 12.309863290060425 14.726894625209804 10.575928138543317
Ge 12.69552721537878 14.097806415249881 13.25814435302763
Ge 8.852994109015548 15.364664420118865 12.697400431948603
Ge 10.18525335557469 13.557775628348526 14.068294021404105
Ge 10.101595868898126 13.31906678340245 9.517208169285754
Ge 10.470971849698822 8.030608971909922 12.577832587590878
Ge 11.311050122137985 12.434821236397287 11.732618895984103
Ge 9.958434347639551 15.986619903878157 10.263782833443559
Ge 11.59798640486809 10.125311496606074 9.452767149823357
Ge 8.701050189604604 7.199490495996553 8.803244539468869
Ge 10.570793302646187 8.42514831545236 7.479114504043182
Ge 7.727065586669833 14.491874459473802 10.490370303479683
Ge 8.442617992044534 11.339911401025583 14.222949387649567
Ge 8.285045853408493 9.291030297584443 12.616501491348735
Ge 9.300477346912453 9.213067464217916 10.264850168223289
Ge 8.701367628280694 12.624668298626096 11.955896412621026
