27
Energy = -107.34799991 eV
Ge 14.543550267505879 10.317948212253928 10.451134476034802
Ge 14.033870386178142 9.110742993395025 8.216539084171254
Ge 13.06990978380362 7.484544276447833 10.069113904488987
Ge 14.098087901272406 12.858368143832683 10.58820671522702
Ge 16.464921391892798 13.99917730737891 11.237695719548245
Ge 13.795979793717494 15.20979039032386 11.58499530855472
Ge 11.698554043977387 9.7051518281451 9.058841609866072
Ge 16.31283029956806 11.522948268563221 11.963781866204082
Ge 14.517819351453882 12.78201007995511 13.225756331761175
Ge 15.588978626790919 15.177371942572545 13.533724128143254
Ge 13.055866008948025 15.12397738434245 14.37323764544303
Ge 8.973174872044718 12.95826943531481 9.532841333687786
Ge 12.774071536780118 9.177715715417312 11.933429983042547
Ge 10.925819004972162 8.213334487959317 13.342705504039424
Ge 11.120919240559502 15.660027629956488 12.5659929488445
Ge 11.97881437785722 14.643834248473219 16.530292257074827
Ge 12.42352715677665 12.381272266270308 15.21184719423297
Ge 10.61605113409782 7.726059531927892 10.774389326768274
Ge 9.206130326689223 14.152305076913608 11.748272216992408
Ge 9.983792240091377 10.45314564295059 12.64660604967743
Ge 10.437812998778249 16.288046960781212 15.017235688978507
Ge 9.244353408926587 8.85095235235493 8.940205282818177
Ge 11.498799201412494 12.936257884882853 12.841157406725369
Ge 8.589084844184173 10.71626833525433 10.601000864515337
Ge 9.905715854943743 11.845786569713262 14.839497975727449
Ge 11.22876829703157 11.83721817793538 10.482101852067247
Ge 9.134790409963754 14.282825758476678 14.265319945032202
