21
Energy = -83.11845371 eV
Ge 15.486871103801777 8.167613739136304 8.049842738450637
Ge 14.083526968442964 10.001168205909833 7.239328532427718
Ge 14.784917903446837 9.718621998610818 9.773519510591077
Ge 13.343307761735735 11.73187295904649 8.882656958113637
Ge 13.288748563216519 11.13652494583685 11.763620132680932
Ge 11.147482212585519 11.179021531296844 10.140948297909807
Ge 14.311271306610186 13.578250451657604 11.718462552611985
Ge 10.163883290693816 9.96105632759723 13.971880007031467
Ge 11.801952443861104 12.199045333634734 14.121174359845762
Ge 12.714363212506884 14.884302013010155 13.263834489393297
Ge 14.060056619468826 14.200299955002643 9.240253635694533
Ge 11.052646510729149 13.195105717900592 11.62619062802699
Ge 12.834017844606214 9.817382365497748 13.972389347879455
Ge 12.239954301871858 15.306124318957853 10.753656785936826
Ge 9.06251312415554 10.431829319883954 11.66302587561824
Ge 11.456136251706976 9.027203807474859 11.77828234038919
Ge 9.23450704698326 12.608491177409846 13.297721858670082
Ge 12.570281354339494 14.106823452291705 15.821338012999147
Ge 9.903968211148998 12.789198577926882 15.95973152057608
Ge 10.255241404338129 15.214723239966808 14.493867954976086
Ge 10.47314717079862 15.186266231405545 16.9134545033036
