22
Energy = -89.2565357 eV
Ge 9.16784307268899 15.102863324848775 12.008403810551725
Ge 10.41719925022691 16.73980171860252 13.83986855992024
Ge 9.98637924153906 17.81651841732925 11.51866208219316
Ge 10.38265307568724 14.15860180972872 14.216975115485925
Ge 11.181887041732825 15.870627918846047 10.219452802760495
Ge 12.531895885022859 17.603801807796692 12.20005658307821
Ge 11.245749536243192 13.599016325854283 11.618443977098076
Ge 12.924472845094751 13.916104647485954 13.65438294148177
Ge 12.83895762660698 16.345611027604566 14.500772233846813
Ge 13.382935844490433 15.2845825270958 11.429950354971647
Ge 13.330707872371743 11.426359691579803 14.635651057697622
Ge 14.884002538236134 12.72060862077973 12.118126358042488
Ge 15.928629723789342 10.837150462990019 13.622506891805084
Ge 14.937298574317039 13.87621905111647 9.916283108867999
Ge 11.423480157351623 9.941400060501701 13.740988232471883
Ge 15.180471234424283 10.544948155794438 16.11862656638038
Ge 12.965705881136822 8.875171946368884 15.697551274858458
Ge 12.888820488746322 12.075889739435732 10.126251158111913
Ge 15.364931949147454 8.317564957023835 14.601956067580288
Ge 13.41763555541664 10.438498790905347 12.092076131134652
Ge 15.457378679846709 8.82801457977979 11.968712490737177
Ge 13.103579671151197 7.958479630126371 13.106322348987314
