20
Energy = -78.08313933 eV
Ge 11.94993882437067 8.649236568651181 7.375904898760626
Ge 9.574538473675515 11.47526168420275 4.952484916075013
Ge 9.835175517919721 9.897126348872018 6.810337860774777
Ge 12.312967118978266 10.408600814527851 9.234150403974585
Ge 13.136094873870642 12.902217847402106 9.235106818152108
Ge 12.335881040270863 13.35467214186868 6.9347831036105045
Ge 9.898296223584762 12.915648352782204 6.889229911715167
Ge 10.57004674335773 12.757681765985417 9.354781798155171
Ge 9.650911518752373 10.021138202074923 9.311741561431841
Ge 8.630975621977573 8.412259533776494 11.40880794623293
Ge 9.162469251992647 11.347106898653688 11.506189520563831
Ge 7.2354111062806785 9.98542993046907 13.003093739952359
Ge 11.360768641744649 7.403418418114086 12.313493257045025
Ge 7.654516634730795 12.556525580940768 13.145300069595079
Ge 13.190889395947675 9.16452132878752 11.33416073480825
Ge 11.172454061589214 7.90669086646719 9.845853025246015
Ge 11.238058335589571 10.256832490131092 12.610063103730818
Ge 9.312368825798142 11.256472433371023 14.491640975607512
Ge 9.411363754151736 8.39262212634045 14.062451008702457
Ge 11.295322952166714 9.864985583331269 15.10887426261506
