27
Energy = -108.00241582 eV
Ge 11.591597758025575 13.542670983290767 7.7942816963024155
Ge 13.238323594663285 11.415517930164391 7.375116820689256
Ge 10.752452655103713 11.392644416448055 6.335650372193807
Ge 11.017739198442749 13.035949783549103 10.326815187089082
Ge 13.588877357179754 12.951021882001843 9.505329875060946
Ge 7.576276863260516 13.376663351034901 9.49711932753465
Ge 9.454547221397739 11.784724599503836 8.47180181447494
Ge 13.405942078611089 9.859818209471264 9.530503243971324
Ge 7.205705818356049 12.142115737622344 11.864303169186112
Ge 10.966685294221415 10.477635909174195 10.400306202860394
Ge 11.065005687443886 9.30493583971206 7.997194396737074
Ge 13.711515215908607 10.52442693843866 12.001820762508489
Ge 5.522036118448092 11.894291136964053 10.01850840683988
Ge 12.615444952836107 7.266779992768156 9.188589431866147
Ge 7.571569358987274 10.358097591259376 9.680886926151148
Ge 13.131307230791762 13.079887632299563 12.21776950465829
Ge 12.981171706410986 7.320433528792681 11.715741169504389
Ge 9.118667451125381 14.12355429624751 11.676309786341706
Ge 14.495463089931281 8.497994367259698 13.38100687578631
Ge 8.330980640543492 7.558711256451812 11.757298528404425
Ge 9.00786707141999 10.037826713427684 11.965274022438203
Ge 10.028870226772673 7.674751807080819 9.744456754031203
Ge 11.407736175733104 11.128944618857851 13.431583617986446
Ge 10.989621509220768 13.562291667040805 13.846537518903062
Ge 12.034843269725222 8.786485023884545 14.09295064748535
Ge 10.675329400903758 7.211080010554502 12.646829584950082
Ge 8.823438539067904 11.960616989646333 13.886383345144335
