25
Energy = -98.73633566 eV
Ge 10.152014927049708 9.211506365604405 6.214163298369536
Ge 10.162321298512042 11.837104734965633 6.007972889509405
Ge 7.94873142713768 10.402932639737836 6.044913658064401
Ge 11.519216927394357 7.954787668495467 8.183482282863983
Ge 12.403074528650176 10.423255382549824 5.8631029423391565
Ge 9.904207159006939 9.511624615778636 9.513398818983228
Ge 12.097959248433453 12.721391657438415 7.50395457246812
Ge 12.712560981768934 10.346867894474505 8.584879357813643
Ge 7.686148984108242 10.219161001868489 8.6259846071058
Ge 10.587743703652631 11.942085881854947 9.4559093774872
Ge 7.895139680373173 12.583591618201456 9.71995336814861
Ge 11.151784539577033 7.291055737461853 10.813849396375005
Ge 14.050239992676108 10.784020901638096 10.850289864469408
Ge 9.931102655289177 13.378811423171667 11.425471657403982
Ge 13.678084870149524 8.284597150615062 10.06399025620128
Ge 6.137815565966936 8.907121031903431 10.193038005313547
Ge 12.664878761502202 9.031364434063313 12.435169957074006
Ge 11.909623754284853 11.743065446045158 12.141931045945803
Ge 10.011819943178454 9.528274514200074 12.126643094776746
Ge 6.1249018413039495 6.457940848189321 10.470083679359599
Ge 9.866913133904598 7.265153827362222 13.19715333173615
Ge 7.8197561947478444 11.147722135603612 11.793000171248044
Ge 5.996313940961873 9.54881785309769 12.687687449609804
Ge 7.5362161586171 7.544270508892168 12.181097378782585
Ge 9.75803642565681 11.640081370690528 13.609486182454438
