21
Energy = -82.49019592 eV
Ge 13.330010011729991 12.042615962371865 8.64723438741489
Ge 10.700092648763114 12.190465061218585 7.949703749630353
Ge 11.487863904297448 16.681412381391127 11.259000720212471
Ge 12.473464043754792 11.694562204730383 6.390220455593175
Ge 11.595369734051559 16.349750443771423 13.728579595405543
Ge 11.440472990838423 12.236847950614681 10.340307644101417
Ge 13.80010260234538 15.637993478283882 12.148276562839314
Ge 11.205286202888814 15.285219811453798 15.992237940982381
Ge 11.281806880624071 14.23198867450734 11.874530093387193
Ge 13.895940838643567 15.711192636533145 14.89934340888582
Ge 15.553157191749364 9.522323301248955 11.819857832682143
Ge 13.463767013505722 13.334658509090671 13.34083425464699
Ge 14.666766272947799 11.084810916424727 13.725204040841867
Ge 13.142153271070464 10.076266186222123 11.513130639546299
Ge 10.915926096835578 13.318396452250472 14.278196188331172
Ge 10.495459292778058 10.318993487085306 11.78174578804839
Ge 13.126184580087198 13.441411462071402 15.929857839235064
Ge 13.926989495265525 7.97475645938907 13.135207634839498
Ge 11.414510732005667 8.07215284707092 12.848809103132504
Ge 9.967488640782527 10.889748628283376 14.324253145880327
Ge 12.360579877395587 10.120268057801471 14.222575390952905
