27
Energy = -106.6687995 eV
Ge 14.165880797562927 11.630152706812135 9.69238755947163
Ge 13.411070370950185 13.343945716044558 11.453542366200521
Ge 13.250768405886301 11.074840176182716 12.581419985601203
Ge 14.413878336435488 9.011327508151803 10.075332676028424
Ge 14.01272102487093 8.557967220672761 12.571760380414421
Ge 11.971433128244641 11.506777409245009 8.331624023051265
Ge 10.646382495266753 13.637906823894513 7.609710242423913
Ge 10.658444939017562 9.606112614556844 7.4034518928547834
Ge 10.915344051474523 12.862005845248442 10.406941325480467
Ge 11.91981863241413 10.129552970698642 10.689075800164519
Ge 10.105070004748727 15.228179805114541 9.475615687106473
Ge 13.517013877478544 7.222834753074898 8.533259470425067
Ge 11.01501551275833 7.16432873338701 7.876994618424346
Ge 10.889188864270908 9.511889635566666 13.676922972768567
Ge 12.260439996787381 7.379272777127927 10.834644319590772
Ge 9.944425826180517 11.287859467655984 15.358931959223156
Ge 8.461963443144786 10.940683424366679 7.6413652541158
Ge 8.274916513135416 13.257103759616081 6.673357153321842
Ge 9.95225724635602 8.517365094424909 9.873921440058556
Ge 8.923630598899091 10.931512848531701 10.368002185481673
Ge 8.303269698104074 13.379820118242652 9.278436808576545
Ge 8.667202881325855 8.672017244382372 12.849087482120646
Ge 8.847309981417688 11.455024033809185 13.073052391660733
Ge 8.19142312213266 9.495468752294752 15.19711378166407
Ge 6.602461244553989 9.83025319437076 9.396643034998737
Ge 7.5703042157909675 7.705845403610466 10.724069672748232
Ge 6.706510374160123 10.299885608518027 11.915500294523184
