26
Energy = -103.88670964 eV
Ge 8.648129645400218 6.640383428890563 6.5570591804671094
Ge 7.119809378341386 10.42052651207971 5.296550538569182
Ge 6.494281628096771 8.293687363127884 6.735284717403047
Ge 9.613587824176603 11.790618426987066 11.068488957761375
Ge 11.621521648365983 9.406317093616755 8.669256089477445
Ge 6.051942330888005 9.090759091585754 11.74714149389767
Ge 6.906680374822019 11.804792968322307 8.60459073860739
Ge 7.2924712451291285 11.543213921222485 12.725252804519503
Ge 9.098963630618421 10.239942272804194 9.056887521627063
Ge 9.41288216118446 11.59394275961651 6.785872112913821
Ge 9.091872975640308 9.104931148045608 5.907859206691383
Ge 11.190722276497697 10.450796412108375 12.77537260341629
Ge 12.64959042716382 9.287454046227353 11.052789344677151
Ge 13.975079043013308 7.766427718150306 9.241957729143786
Ge 8.608201100631716 9.44635986857595 11.626350219101964
Ge 9.908191055673484 7.6716787496546885 9.78313683713563
Ge 11.582495332316645 6.6012571117678025 8.153141789258285
Ge 7.1555393561106655 12.77050943368132 6.328717780245834
Ge 10.559091661245242 7.828154393411748 12.354706316584325
Ge 5.383127730469153 11.479572391372836 10.81835626974924
Ge 6.5296110910006915 9.29192889844178 9.200734454936129
Ge 7.497904862941621 13.278153561663942 10.73882434446782
Ge 13.188368783131727 5.319666079116332 9.624465331951155
Ge 13.019737574885633 6.788906273227945 11.692267621301719
Ge 7.699146798482446 6.803225339647467 8.931592231764872
Ge 11.594551947877145 8.378264277225774 6.305186204866805
