25
Energy = -99.14572913 eV
Ge 10.446392649093053 11.11452894794752 8.451021172624445
Ge 7.808902900466426 11.107691227003007 8.326757430532234
Ge 14.144552149930442 12.153698747315904 8.172350087613918
Ge 14.259118350138143 14.144241615884575 10.241314721508203
Ge 7.735416355291357 10.024021645729468 10.725043412323027
Ge 11.923316781890902 8.89811571027055 9.144813265037255
Ge 14.436348528192006 9.655433672473174 9.02706746007568
Ge 11.036303186542408 10.672930339697572 10.919921018960961
Ge 16.280844682272534 13.418625915162119 8.888550123133902
Ge 15.56560009413972 11.578411406675114 10.463719422246236
Ge 11.943840715817874 12.964872707732392 9.613378218552489
Ge 8.646175528160068 12.649368563485249 10.11970664272324
Ge 9.202455265604598 8.195233588219478 11.572866445620733
Ge 10.189708194806803 14.72992335968587 10.28115575349858
Ge 11.505180279463795 7.230194199920492 11.192687685125934
Ge 7.796210481893411 12.137346844193463 12.534701326265202
Ge 6.809439728611341 7.639763486786032 12.241767781843029
Ge 13.295502521807387 11.997403474066925 11.872280890802296
Ge 13.306946699289057 9.319430919038034 11.503482535920895
Ge 11.0320672169283 13.753072657707094 12.424620045035665
Ge 10.219235324211427 11.277769368457067 13.232176506156888
Ge 11.049142221849833 8.785000885276554 13.553093702541776
Ge 6.06179454482841 10.06463698700644 12.727668493585531
Ge 12.3560686566142 12.658331728898137 14.205723675356838
Ge 8.403028604956646 9.283543664167217 14.017723845714805
