21
Energy = -83.46339388 eV
Ge 8.514998094782774 14.553192694499751 9.125975835076954
Ge 10.142765896042071 15.217281749658644 7.006968967454825
Ge 11.173871268526582 14.767028737196336 9.187562149985114
Ge 9.250413138036462 12.758668287041209 7.628895906209801
Ge 10.930061311074603 13.350278031190108 11.831767464163386
Ge 8.645851608176924 11.173628970023529 11.198046793357497
Ge 10.64504073676778 11.70256885976775 9.584017075640485
Ge 8.38301334210568 13.391765738589726 12.329257776940315
Ge 9.521011436932065 15.606720180158518 11.203764545390836
Ge 8.581320422289446 9.39514230294966 13.006008152138504
Ge 12.831457427020634 12.976171774821859 10.255138289666725
Ge 9.65270854464092 11.582980198264687 13.86794271112487
Ge 12.242623580323372 9.96733329111226 10.65680274657566
Ge 10.92322377199989 8.471845331498926 12.414509728109348
Ge 14.499200453060427 10.29745324758666 12.354068908603336
Ge 12.091817712710528 10.771296209680484 13.194407501031574
Ge 14.126451354846722 8.07940257209316 10.308948773263493
Ge 13.025638582311968 8.624685525228413 14.28204551811191
Ge 11.56052631256373 7.487238784944959 10.08310016035171
Ge 15.050969223984975 7.818146650652254 12.874319990962345
Ge 12.815472478861736 6.521017173698044 12.18835412801103
