22
Energy = -87.64552862 eV
Ge 15.598956754387347 11.695186245424166 11.27534406735618
Ge 16.976153022829465 9.933579107282084 12.574121114616217
Ge 14.615400839963863 9.013294379902495 12.001747433892405
Ge 12.90650771061056 10.193013021588055 10.212441689686663
Ge 12.525148671970731 12.676693003705758 9.41676076963998
Ge 14.904244124043686 10.625543813226708 14.00367489064615
Ge 8.954337368316562 10.267608799141547 8.606744861246641
Ge 13.425579642557256 14.643280895717734 10.958933418301486
Ge 12.727364958299246 11.878639138045694 12.193446356286126
Ge 10.383728091361846 10.151782476261667 10.828113516560945
Ge 10.015981335306277 12.49635883758003 9.709922420994426
Ge 16.862508179477977 12.335465495360756 13.722405344238654
Ge 11.02269210222928 14.077983160064166 11.753640650886602
Ge 14.608563738059361 13.647767263363203 13.101020601881183
Ge 6.505857867114729 10.365533309103622 9.478659477701415
Ge 7.507093853361659 12.802585544614933 9.416303773844998
Ge 13.173268429678956 12.373168084970356 14.888321137572618
Ge 8.125672364945439 8.907844240728068 11.005248589313462
Ge 10.677799189494802 12.549111530887943 13.778832608349248
Ge 6.85175734249165 11.31097873330059 11.921271817914507
Ge 8.364523778284633 13.370985690918427 11.91807945499881
Ge 9.071400180075816 10.535427477380967 13.077740144313585
