26
Energy = -104.28519275 eV
Ge 15.561049847450336 10.222623656024197 11.877028233609218
Ge 14.642449850515344 8.64974482082562 9.922975012552447
Ge 12.573748002135185 10.153512876315618 10.211049619329563
Ge 14.840756121615527 7.505565624100468 12.226384484142372
Ge 15.40549616007766 9.112104064463848 14.267587726607093
Ge 13.556207896539915 10.807632354848462 13.753341756127458
Ge 13.679009496927158 12.042004442556856 11.535203328572873
Ge 10.915894759929177 12.961316190490322 10.42335440099941
Ge 12.355114154615496 7.6257381526116355 11.216140815569451
Ge 12.791940689789266 8.093977142157318 13.87849282499748
Ge 11.387362833445197 9.8543200313319 12.565592280365854
Ge 10.171201465780268 10.811672294086243 8.981696907657422
Ge 12.58924769127758 14.65437696412136 9.353663777871905
Ge 11.994002967141455 12.973971105893028 7.588479578920406
Ge 12.346295236430182 10.520028700271677 7.463756586466473
Ge 9.660345498432509 12.025461231408327 12.84473301404342
Ge 8.80931147664461 8.911378642266397 13.26557326400614
Ge 10.035731352065362 15.33967711264548 9.472310045894858
Ge 8.366681940310535 10.488487191047742 11.059590242065799
Ge 9.92166458080373 11.786399352373481 6.5304717363026885
Ge 8.931892861228226 13.295104915073942 8.428711984650205
Ge 9.309607347514532 14.652149476891688 11.849727668748576
Ge 7.332856160742939 10.955960399224864 13.778734457637862
Ge 6.512888039269236 8.953462486843641 11.96178201520968
Ge 5.828603362466879 11.448145762503707 11.728320676397228
Ge 7.660396815970708 13.007121348242125 10.696589501810383
