22
Energy = -86.44884705 eV
Ge 11.112692910453513 15.517012659276041 7.300941229442423
Ge 13.496609679816876 15.320552211371691 7.771836516666942
Ge 12.294339731390199 13.008489483586223 8.225204891162393
Ge 15.44588209628123 13.046268442559633 11.846610633667416
Ge 12.016870538564906 15.250885055369237 10.006113508895274
Ge 13.33795954742753 12.774990641436972 10.59327635354224
Ge 8.739557973383882 15.302966664141685 7.855011853947948
Ge 10.024939278305194 13.682963228428328 9.23380234541859
Ge 11.43775961213379 13.209253397772343 12.658405720373095
Ge 13.521673814683835 14.734531945474865 12.695116171251877
Ge 14.86892127553715 12.796278892515659 14.31766975162144
Ge 10.400140405401746 11.053086975751993 14.308800468376194
Ge 9.39715824793297 12.496213831963244 11.442319539569565
Ge 12.37109675021917 12.642249659297542 15.28099424564526
Ge 9.414765372872857 10.008951453729368 12.195621279257493
Ge 11.774094243885934 10.800144644317843 11.41490730997274
Ge 11.939442633213718 10.255823266950038 16.273433661918165
Ge 13.36890129683407 10.780252771417338 13.531156821350988
Ge 11.451590034090815 8.216718397895393 14.05105223132953
Ge 11.067708973605038 7.8792666432004035 16.55694080894827
Ge 14.01301440681827 8.311339883318215 13.405810514931375
Ge 13.532151848999815 8.11433419114831 15.859982277106539
