25
Energy = -99.55727673 eV
Ge 13.032900401419614 11.02531061801786 6.9053091645178535
Ge 11.260296802683616 9.250553077674132 6.3235297937147275
Ge 10.19925836410862 11.779966873634862 6.919362366467173
Ge 7.732997701672209 11.908450066376288 7.9322114854083425
Ge 9.200393667579949 9.542526913030319 8.022618980555093
Ge 9.86080372715109 7.232335439258049 6.906015783543
Ge 10.437314425954733 9.806027723806483 10.344327148956046
Ge 13.309084404373996 9.448294755750286 8.860055434238058
Ge 8.518186417219738 12.750235812691054 10.284248946665645
Ge 11.706848065158786 11.734814785071492 9.176575217807832
Ge 6.672236127071494 9.561306146249503 8.386812249196545
Ge 14.210946741774862 10.226481620270789 11.167682637354297
Ge 11.56365774328131 7.627284154238083 8.811975250352678
Ge 10.589759741390413 7.23753446834228 11.324805837575378
Ge 7.858948925433171 10.29853109714822 10.61848328630936
Ge 10.881259294775864 13.69444828989052 10.988070391918825
Ge 9.542787127188573 12.799188421711694 13.149632813081208
Ge 8.240150046362066 8.246092143675881 12.284104993158241
Ge 11.788301725183612 11.534392523906613 12.327512654251505
Ge 13.480338927270484 12.86710159412059 10.90740665230738
Ge 10.175659782425235 8.290231078176694 14.002537609092878
Ge 12.27156534447109 8.954861319915015 12.334569858038787
Ge 7.110530675577343 12.192018307337358 12.491344208069338
Ge 8.410828044303567 10.362001292440066 13.989049650017762
Ge 11.050782181633698 10.735847882731685 14.647593992867545
