22
Energy = -88.13304323 eV
Ge 10.578301714798567 9.862220402979819 8.807804988373915
Ge 14.201418962596394 10.225251439264165 10.916672344193248
Ge 13.247420791387198 10.303251454104025 8.306438644601881
Ge 11.622602080996916 12.38024705972286 8.673186406924401
Ge 12.568673173676967 8.230996369218664 9.917347583469306
Ge 10.115571543037172 8.479691912127496 11.174723450156344
Ge 12.363234008106225 14.210484386654645 10.541963226963663
Ge 9.543966591748976 14.349100251898637 10.781326622674175
Ge 14.260703210791648 12.518421177292732 9.578361910421743
Ge 16.231777325299742 9.681666336164731 12.335540110354986
Ge 9.782943970451116 11.547369273270746 10.634956945216215
Ge 14.55220193705343 7.8393412073201585 12.203758490474613
Ge 12.190887691550648 8.92480639342273 12.560208758934511
Ge 9.430494103829949 14.55566884911153 13.425929970329427
Ge 13.995246905041665 10.391588724309191 13.738465638297246
Ge 7.666072763551347 12.678813171967798 9.7928891777382
Ge 7.382192544053356 10.96315977786732 11.92704992244425
Ge 13.670782990340443 12.656265215328828 12.278924007823235
Ge 9.87983093430011 10.551765790635097 13.126581189198504
Ge 7.137113650278561 13.68000503988339 12.178778589673065
Ge 11.069587995937791 12.791368478471288 12.637844922242959
Ge 8.128095127287613 12.30733213367375 14.147525015175232
