28
Energy = -111.85653068 eV
Ge 7.830039678547867 12.360403230103321 11.519536441790608
Ge 13.05489111609311 7.391727887427945 10.416272664762408
Ge 8.476757483514453 11.527038021653617 5.632809233387879
Ge 6.450344102174376 9.992714734439833 11.674931520200609
Ge 10.8507995361513 12.445581192155098 4.9965427020294335
Ge 6.526108792650227 11.663495127554055 9.275004809018858
Ge 8.508730583462734 10.550460496114319 8.138642983722699
Ge 10.07645409416057 12.706354176082765 7.612398595508076
Ge 10.640056367890978 8.761135453529594 7.43422440837764
Ge 8.959493803380711 7.945617449947623 10.037416584456327
Ge 6.707098069559867 8.26515226989857 8.862453700303984
Ge 10.923879711443151 10.716104666533282 9.29349211722847
Ge 8.171047006729605 13.650611416769726 9.290442109816944
Ge 13.103920820961603 9.139796582210666 8.281889820822345
Ge 4.810598273450367 9.781738589317653 9.80058530506899
Ge 7.259720472009463 8.303836974796537 13.47559014928681
Ge 11.01234299633191 5.759463555021378 10.33995249673152
Ge 10.625064773703134 9.849682825435426 4.893784733001004
Ge 8.41455856663843 8.875041045054568 6.040632822620067
Ge 12.231727661994942 6.540342177594408 7.988259195732297
Ge 9.372740476201944 6.4727012229485945 12.430828265558374
Ge 12.290963088210333 11.310186471875715 6.845594459066002
Ge 9.105421798338828 10.288265310013706 12.07216076115003
Ge 9.895768524829794 8.66666298545386 13.957500253602232
Ge 6.94200661822338 6.629832210737999 11.461431918331979
Ge 9.547072524944578 6.246450538752297 8.17212749127012
Ge 7.016623247038459 5.67491563396726 9.082495210318582
Ge 11.035098504722539 8.535267720299785 11.536921360352359
