29
Energy = -116.45963431 eV
Ge 12.170726110173073 16.863522870316444 13.117551029122987
Ge 11.621274464264257 16.921160627726202 10.526674283488429
Ge 14.13726053953143 16.30054934700092 11.401053365120228
Ge 12.331598324208972 14.484143514753889 11.975172249144633
Ge 10.457885334431873 14.540174900444757 9.954567203664597
Ge 9.918671648826795 15.51583776767898 12.352857793206033
Ge 13.085229261305873 14.877360025452552 9.442794654252674
Ge 11.019189252958899 11.884383190057482 10.035444566292849
Ge 9.355341120283866 11.488733723880106 11.999289454486842
Ge 12.896413450482648 11.369917155017118 12.048266390340874
Ge 10.363207129528199 9.193289051075231 12.424685919401469
Ge 14.243772564902706 12.930441290018559 13.839445478811433
Ge 13.963978693934337 8.48465334602725 14.843270472717604
Ge 12.628873930038438 9.358730860832702 9.861305604573406
Ge 15.12668364256723 10.517757464118294 13.347372408044773
Ge 13.846278925044784 12.011071578288336 9.494970721878882
Ge 7.894348584924999 10.24712421750215 10.128201025246673
Ge 10.177724210136546 9.308195452832004 9.138974430350748
Ge 9.346011917694646 12.977364605175769 14.04032914364777
Ge 13.758687749698483 11.074084100615204 15.628875433563914
Ge 7.490376557576058 8.999208147132272 12.388343491312938
Ge 12.968715193261895 8.71097844113624 12.487771981282483
Ge 11.733330536465507 8.902391064078426 7.09300031729981
Ge 11.961817442300797 11.49227218227485 7.5772078446502755
Ge 8.988080028062743 7.667225467293207 10.827868575975279
Ge 11.660589346904246 11.95867581725982 14.228681081786581
Ge 14.098374644319675 9.905345896327123 7.858359901055075
Ge 9.014960939915893 10.269262508120883 14.59169802498447
Ge 11.488325805808126 9.352272766014943 14.97317180697792
