23
Energy = -91.62219717 eV
Ge 15.020911288458036 13.102505741798371 15.298361283648221
Ge 13.243290408346416 14.169182805027752 17.0016673322247
Ge 13.785429891813706 10.819776678788466 14.572455891351254
Ge 14.12491597967234 15.369312545240058 14.163805916355393
Ge 12.619179176398605 9.843138282938622 16.52572445120563
Ge 11.519190098222303 12.126540455482631 17.246633986219
Ge 15.035292869764922 13.357289617168565 12.441813346837849
Ge 11.038328609526094 11.025227719480037 14.815304431151892
Ge 13.614849999401656 11.043998436735965 12.008364068756434
Ge 14.27768946453766 9.979770126192381 9.737901071225696
Ge 12.272911643790081 13.272636065539855 14.77325730289697
Ge 11.912896112753018 9.095191448431006 10.9201200892384
Ge 12.401403845926803 13.337943273501509 11.084338251691403
Ge 9.696345408760667 10.366263856878334 10.126769871997775
Ge 11.743852902210053 15.861744048228976 15.552507450693218
Ge 13.89913601412634 15.546559666780881 11.397731312240841
Ge 12.720172879447695 17.230339726738293 13.171269039304791
Ge 13.572784411787417 12.350321846235408 8.898863806506075
Ge 10.957112614093301 11.38319002000995 12.155469489396417
Ge 11.343374103530113 15.034932850092266 12.905874632370097
Ge 11.864632683250477 12.218999749216305 6.999087738898961
Ge 10.658043134172042 12.630158383334045 9.19928004498086
Ge 11.871717688252978 10.124161580216214 8.498726554352704
