22
Energy = -88.17862705 eV
Ge 12.01132822429629 14.235245834518976 8.885253883419402
Ge 10.084980038006707 12.797103381026714 9.748813496507777
Ge 12.67362246901426 9.623106631300468 9.50023279338632
Ge 13.565189367147225 12.070729999093993 9.16258668935017
Ge 13.853557796004862 9.12077152761515 11.91389211390681
Ge 16.066855010957156 12.328472650226225 9.759416539518998
Ge 15.306449340317727 9.77431959773178 9.731738595543657
Ge 8.763705060709201 14.49764477349995 11.412352691667202
Ge 13.25335273625252 15.428366360955499 10.98327463902451
Ge 9.982921927053667 10.126095388758673 10.132373270975945
Ge 11.34855501590309 14.034067222924703 11.661287377243426
Ge 15.975581508828641 10.806449959752502 12.08879479465354
Ge 12.238587330467256 11.417599752154906 11.43554123215666
Ge 9.055784376378435 13.010310928729306 13.512585005689159
Ge 14.431670401243117 13.104123013074421 11.60363141203055
Ge 13.813574305232606 11.284043260536071 13.534782704821957
Ge 9.450048515445655 10.423140646987672 12.66772322324514
Ge 7.920335198903213 12.052451547975439 11.003571961269149
Ge 10.047636058276685 9.060058171064785 14.682598891736067
Ge 11.066848768267501 11.63355340048503 14.384344025308671
Ge 7.948682450598004 11.057889697544768 14.913771885375148
Ge 9.874127864482343 10.84373157235396 16.537122781446495
