28
Energy = -111.66824095 eV
Ge 10.472279183407636 13.030717105692576 12.636303437907651
Ge 12.139672582864225 14.837967136479456 11.868578534460363
Ge 10.543848818092982 14.264335207620244 9.993274347120787
Ge 13.235846788700284 13.159982565805937 10.3632452856541
Ge 13.515773462389504 10.622833305957926 11.59900764114814
Ge 10.711570107577714 9.78353085785589 15.234110437181004
Ge 8.167252498787178 13.20758901625909 13.536140541560565
Ge 8.332423436705106 10.653886101978793 14.607521879491982
Ge 13.591096718954532 13.100455554563256 7.836532630376429
Ge 8.217436288336694 13.382229830172479 10.920683547210515
Ge 11.033877224610862 13.640746155326797 7.585327540992883
Ge 13.725083258093521 10.585880629370152 7.192623747124136
Ge 11.160374132000698 10.56584951379727 12.882207836038932
Ge 9.58911538017568 11.622346900922283 9.255913394981874
Ge 7.138656263468003 11.088331887461173 12.047461893615854
Ge 9.579089449524751 7.987067797813642 13.791471573778121
Ge 12.119635397012978 8.360795721268088 11.240246648560364
Ge 12.166294577475215 11.020260721016387 9.263520017961893
Ge 14.06540219380042 8.975179445038192 9.46625221368615
Ge 9.137471947941298 9.630747496425307 11.502720367469518
Ge 9.250741615691945 12.067030341453165 6.751635273046053
Ge 11.16145347020501 10.40295792250998 6.722364489377999
Ge 9.728539113767127 8.144523947708306 9.491814193037834
Ge 6.973647218075771 8.816582964313419 13.501822267207665
Ge 10.899247291358382 6.1388829597208465 10.877233322902615
Ge 12.193523195349533 7.237798625716335 8.721820278766877
Ge 10.335936630370933 8.001133990693589 7.059107287683675
Ge 8.305972824561124 7.076471970215342 11.781195675093809
