25
Energy = -99.70631794 eV
Ge 13.850975826288717 10.535882432616331 13.818343917736334
Ge 14.29481115445319 11.474447995190841 11.32452065424141
Ge 13.775570973920445 13.772038659881003 10.646689848558845
Ge 9.825170045033918 13.224416330584551 12.559656871945649
Ge 12.850086025469238 13.078314751691536 13.046977521197096
Ge 11.173909607074245 10.94315510514356 13.260176651183288
Ge 11.562599268393978 12.428868747155768 10.533023757015123
Ge 14.207769010513863 8.928428600207713 11.512121429278613
Ge 12.108912497110708 8.533277470171155 13.124919450443963
Ge 11.868418189201781 9.858518451917103 10.818119059752952
Ge 8.66909374602882 11.356262072579371 10.956952043842623
Ge 8.738035657150306 11.113471751548058 13.78579752869133
Ge 7.848578851077611 6.695431288657681 7.144746784477233
Ge 8.764253172808816 8.766863958676606 5.969282835516862
Ge 9.177205142561018 11.10739801423898 5.442578427262321
Ge 6.226465295856166 10.730179619613665 8.480333240490843
Ge 8.943887601364295 11.004022507460412 8.055404382141955
Ge 7.612008404899449 8.593776716151044 8.815154613841823
Ge 11.168021127125082 9.82334044982087 6.700983720852679
Ge 10.647501503773379 7.10217576685579 6.936676202617896
Ge 9.520145145598557 6.5366590917923855 9.285636703709887
Ge 10.335408429815162 8.940097568000454 9.040036197437285
Ge 6.1974924930789825 12.02614417804807 10.682639635215414
Ge 6.599016475568905 9.499684841385635 11.115670323205253
Ge 9.115242418520626 9.007721693299901 12.024136262031616
