25
Energy = -99.88123941 eV
Ge 8.316977087877799 11.08778002808112 5.679705769716135
Ge 8.688057421784414 13.363381044224557 6.893230743151023
Ge 12.64642504026952 8.953834142201897 8.165930191972649
Ge 6.867080450090005 11.400803642008476 7.772507112571563
Ge 10.981593912202532 7.468685103415411 9.431143154990327
Ge 6.580398880838641 13.93128889174569 8.250782639260347
Ge 12.451540879840023 11.493355404032174 7.56033689496266
Ge 10.404049793370694 12.914973447002554 8.682886470645762
Ge 13.60170473625154 8.11577965027707 10.292985819836327
Ge 10.00356994552276 10.569684277314353 7.4955901664684985
Ge 7.9742950039072875 12.753813427179047 10.029167379848824
Ge 9.384647565367931 9.601887035351533 9.776374565788904
Ge 6.932064597824499 10.397477121843767 10.14780559230988
Ge 12.50746596237294 5.841973848037813 10.820261593725164
Ge 12.647290089886296 12.512781253011012 10.030611514559574
Ge 10.875438363738068 11.025215648460453 11.287806111355678
Ge 8.622933177995538 10.431344470501209 12.679398304792427
Ge 13.390699188930789 11.01799173280764 14.31605878621039
Ge 10.367891044563688 13.62394526487334 11.178674451772467
Ge 12.994281399707777 9.867629992453388 12.109872069866023
Ge 9.067259621357527 7.666470851314082 11.746001127669794
Ge 11.649890608224997 7.565639037759436 12.457653557535691
Ge 9.715794095366913 8.46546529539039 14.17969354568463
Ge 10.781299593003464 11.009903336811215 14.05790677177335
Ge 12.312727601301688 8.684272115499143 14.722991725128159
