20
Energy = -79.38622648 eV
Ge 12.40049474999906 9.463847065360547 6.306858786838183
Ge 10.79811038706118 10.800945921957679 7.770515635054097
Ge 10.82436418783275 7.829322746522098 7.260383271061734
Ge 8.783218022902288 9.599713116595813 8.825830035705344
Ge 9.801321480075734 14.75905746746592 9.614679599744887
Ge 11.669764271817497 6.368554649669705 9.3540467048739
Ge 6.902278774480304 10.846085738817104 10.128553953145952
Ge 8.35587151362754 7.324203799093919 7.841774148142341
Ge 9.093458818973371 6.945739919459077 10.258091404471951
Ge 8.7371471645558 12.583418176467013 10.197356863474338
Ge 12.75036322865893 8.851063471430194 8.880317194212079
Ge 9.874765521003686 13.978352318278025 12.230626932506164
Ge 11.263466241164853 12.208711349957504 9.918261283612411
Ge 12.075923717796174 14.407387188266188 10.812759929408388
Ge 8.591766224335387 7.155080324178683 12.70230809834709
Ge 8.602219469757639 9.547933878750603 11.65106778072168
Ge 11.137511308378683 9.080968339520343 10.87279596484412
Ge 11.139202292804725 6.767985778908334 11.961445660223564
Ge 8.20050969743304 11.99637454332271 12.785628405969398
Ge 10.78061501587524 11.267626294513283 12.409070436176592
