24
Energy = -95.29855853 eV
Ge 16.216574693320894 11.493084900547348 11.852798238920878
Ge 14.313920001168805 14.331555048703228 8.40408980778945
Ge 14.431638315435487 9.782986883599737 10.728514817800104
Ge 16.26855547185165 15.868397084102565 8.706024860414727
Ge 14.637060446521959 13.31237165009699 12.856688592273835
Ge 14.47094949383719 12.376174883684278 10.10472041198373
Ge 14.240330107885283 16.54992385848041 9.923659004814265
Ge 12.141201052952441 11.096253472303525 9.927523768221945
Ge 12.089177812059777 15.158396870034272 9.41217270038523
Ge 12.226493577722023 11.616559065446822 16.83411200633908
Ge 14.48464188413534 10.127788973801271 13.419410713400195
Ge 12.084932222051389 9.771962043903287 12.22653210620987
Ge 12.080014841645566 16.15941100559511 14.13794633451813
Ge 12.405701032300254 13.403879451779966 11.362020007057676
Ge 10.684806697202644 14.000991979969527 14.137107463947027
Ge 13.619618700528882 15.628681032170988 12.16526099553449
Ge 13.326294075277081 14.218153448321067 15.262987782756998
Ge 11.806141524201381 9.550616460985864 15.552251753132142
Ge 12.542811159244998 11.877630799279345 14.003701866725677
Ge 10.27079281428571 12.15194101570504 12.362857271732583
Ge 9.796211824223349 9.906150306638855 13.880270549229378
Ge 12.955485110421735 13.783290651703156 17.797889013964994
Ge 9.746795967805745 11.455859764527036 15.982854760439547
Ge 10.54695380356148 13.83650703122063 16.744578013437188
