25
Energy = -99.80764417 eV
Ge 10.07454532745191 13.103097580415378 8.212728621654803
Ge 8.541279656232609 8.446563112547079 8.4926531819242
Ge 12.128357051698575 9.21115669054606 9.823250662572212
Ge 14.271909341760637 13.128990401118134 9.193010710594304
Ge 6.527503594083768 7.885771581819898 9.937664537323487
Ge 10.915312250370281 7.224732512755457 8.800382304937976
Ge 11.955770697214996 12.044008669135184 9.644450091493182
Ge 6.224839945349704 10.37072890607367 9.292134458817847
Ge 14.29038405006554 10.472958664511106 9.00190083904874
Ge 9.728941131949538 15.277845402580619 9.825339239306537
Ge 13.201595164061692 13.525271153924905 11.573612432617015
Ge 11.027409544889576 6.24856596633963 11.26442679785245
Ge 8.86867178103053 7.5582023784913694 11.093843851332222
Ge 8.604826186691273 11.082050654472125 8.857617731422044
Ge 9.89054350886131 10.185128013547079 10.88311281477968
Ge 8.850687285723433 13.219682172786596 10.795894075487254
Ge 15.248420625320456 11.72035498487464 11.29059296413128
Ge 7.182654555558209 11.298203036829351 11.452541898016841
Ge 14.247122207584189 9.265413368044097 11.552058410052004
Ge 10.944873416614698 14.825446819247338 12.1506759480631
Ge 11.710615794039496 8.577798882610745 12.325738797430862
Ge 10.957229742295082 12.230145405681832 12.286801060205576
Ge 8.393531838901763 9.447843675058683 12.87924610252598
Ge 13.433282308223061 11.262000667290703 13.258024747646894
Ge 10.67815196287822 10.286498268149263 14.010756689614606
