26
Energy = -104.68360056 eV
Ge 10.097801957507109 8.499220062492048 7.563789947401094
Ge 10.086174446414068 6.580438209568793 9.275612962234746
Ge 12.573156884751546 7.354570317960332 8.885139622856755
Ge 12.339613490517905 9.42392869471347 7.127271006050449
Ge 13.82724109201936 9.466795033647083 9.938758452794332
Ge 7.628951425719264 8.724028681048097 8.946833009740825
Ge 10.946550015406258 8.635630938058542 10.758640202745909
Ge 13.32475343685775 11.654798697485651 8.629892292376347
Ge 11.019371298351894 10.623199519148145 9.193821678475672
Ge 13.272977143440299 10.935095221038853 11.97321759298439
Ge 8.52477873959986 11.315948450990755 9.03596588826454
Ge 5.932192954331113 10.58055352064301 9.867553469150709
Ge 13.344760701900073 13.277585821337366 10.881889194383534
Ge 10.700562028639894 12.954621838403677 11.389837244222507
Ge 14.503373046609356 15.00846248807868 12.378759040238457
Ge 8.38968813026776 7.323845195330705 11.077191200252011
Ge 6.589035986334429 12.958940258244812 9.130649469503071
Ge 7.928806927384433 12.659966679992719 11.337626869356663
Ge 9.723315416540702 8.807346206470138 13.058699733820417
Ge 15.016246102067068 12.426225740800529 13.122194970579676
Ge 8.033937176659647 10.134556054105262 11.422516180897631
Ge 10.989857866909116 11.043622056481574 13.059805525372775
Ge 11.83639431787515 14.985348949432401 12.5683993816473
Ge 10.89130457261315 13.280313733141167 14.397804620655648
Ge 13.437213550725378 14.035466141328452 14.665547358587812
Ge 13.042666541276308 11.441732809642321 14.790217749463263
