20
Energy = -71.42130972 eV
Ge 8.109817263728724 9.891388992103064 6.026814035730957
Ge 11.569987048027706 6.762336254102029 8.379777508241082
Ge 9.007958098451567 8.335178896899405 8.539454903639644
Ge 11.557888143891905 11.813471052595014 10.506412562313637
Ge 5.202019304722248 9.621443730122039 6.839509782732586
Ge 13.663997097673807 12.090648123761556 8.372647469558233
Ge 8.930999201543042 5.29169303802994 8.491303039832816
Ge 6.558347194521863 12.25097318714806 7.277499238230303
Ge 15.691494169019464 11.344658476148503 10.510666196473226
Ge 9.923247871984698 14.418481304417213 10.736787566640047
Ge 14.356060047504315 9.158167208085711 8.94417292014487
Ge 12.298877909256873 13.876170004596043 12.582217260926424
Ge 5.474523584567167 10.722438723327175 9.693352161810262
Ge 8.067659606497417 12.955832878354228 12.690295261382685
Ge 8.361608079572692 10.603025145995492 10.730774843360553
Ge 10.457420220798602 5.888235401311445 11.025930952454384
Ge 13.980039458814367 9.242676245917384 11.993532762514203
Ge 10.483963361288211 12.260755069067088 14.428763644481467
Ge 8.958154632970594 8.152199251103232 12.546588057680502
Ge 11.434931953055012 9.409221264804795 13.772494079741548
