25
Energy = -99.86798669 eV
Ge 12.768425987623521 7.172200469431207 11.422375574630959
Ge 10.677962351486764 6.611488853737636 8.608670294815495
Ge 14.343355278429275 9.21704355961521 10.264538673541166
Ge 13.35311125784734 7.406291871415873 8.559461169218553
Ge 13.687494580170219 9.227576178921973 12.788504634308685
Ge 8.689058920138883 8.232443358517148 12.46203039844627
Ge 11.518688346485861 9.011171597828119 9.56508468494341
Ge 8.516253306816738 7.46902877021886 9.94230512853403
Ge 11.087951902648136 9.07291575988433 12.132591903504693
Ge 12.027748594748253 11.426018042768108 12.560081573326451
Ge 9.450681953967228 12.246709121897272 13.121900305783921
Ge 7.164359399089877 9.142101523212464 8.52882243407126
Ge 8.619261446757879 10.138582924830077 10.540458628592171
Ge 7.363054620942487 10.637685234508924 12.85155398725949
Ge 9.585496510218563 8.733035939275204 7.602522492677305
Ge 13.025452479895062 11.342464840898112 9.249386515874301
Ge 8.7878766016031 14.622276552233105 13.438515563030911
Ge 10.538669198921804 11.831509913954564 10.460482961734012
Ge 12.676519129236336 9.482102627145125 6.904969743323139
Ge 12.896893986823835 11.933434361330754 6.7930795477268475
Ge 6.260870357567531 11.224922686857864 10.371479440663414
Ge 7.12863839812082 13.386030200551401 11.863521403621993
Ge 9.542635680699377 14.194039449315028 10.90894726214913
Ge 10.540176748661096 11.23141031446562 7.78728742910783
Ge 7.771063376095467 13.208764048809238 9.300573197211186
