28
Energy = -111.82450216 eV
Ge 13.458523607140432 11.004648068445027 16.4908208173656
Ge 12.898280310599967 10.478188460732666 13.965087611660648
Ge 12.432340099551277 13.37582519776811 17.066069056570058
Ge 10.521357476842539 10.193201196663862 14.856439392796258
Ge 14.669539704079327 10.842787841177396 12.016691380096466
Ge 13.591935439047925 12.961359462386934 14.665427052703992
Ge 10.902146061350216 10.941979948909252 17.332605624929275
Ge 11.121137384097631 12.478358092227362 13.526033812076951
Ge 10.821837766059279 11.051227518840875 11.227300716833666
Ge 15.809474949285317 12.768450762896178 13.20513469669898
Ge 11.533893547409807 14.66710917773115 14.835594209659961
Ge 12.967038805699014 11.716472204133478 10.06263352569144
Ge 14.730416138601909 9.914009250629327 9.68664200267123
Ge 16.251496875565557 13.82767406833581 10.857794064981276
Ge 9.9022337014348 12.916026186159904 15.946909314775445
Ge 13.619156442743726 13.784545075615352 11.607508434874077
Ge 8.098713859895925 11.42737777893394 13.660095133127768
Ge 9.85805116389581 8.778296151477868 11.172057120971356
Ge 16.4061748858909 11.958564197023042 9.133675339092173
Ge 8.64875118359359 8.951582828096226 13.469015050486254
Ge 7.88504002642955 13.712070763520629 14.430721851554374
Ge 8.104879453471046 10.776774531347005 11.063327244106132
Ge 16.919887876119386 16.254231204641233 10.557899117802206
Ge 9.148227858921908 13.162954785752985 11.839871859930442
Ge 14.302734884436616 13.383683749795205 8.682181866788758
Ge 13.749944134482874 15.64311162376318 7.698211480061993
Ge 14.384031499213812 16.055121765753945 10.128168817821624
Ge 16.28025520822453 15.38166196951644 8.22609697968425
