23
Energy = -91.87178929 eV
Ge 17.288297372556087 14.039740552087114 12.124232098151689
Ge 15.904358921218371 12.466587209814843 10.590702340357991
Ge 15.590073051844271 16.031322242885537 12.891420496891314
Ge 15.449028910020687 12.802590343478322 13.374558635349
Ge 14.356666098436442 10.880033807334554 11.998071570953073
Ge 14.303450516113111 14.327480217015607 11.129313754526876
Ge 9.623857281891295 13.592259577422062 13.412796533180304
Ge 14.14503247287422 8.570679150520759 12.877667048681799
Ge 13.684367218063459 14.748314923915283 14.026280726697776
Ge 13.37636183089578 16.633439173728725 11.741514374721934
Ge 12.211924225257434 12.02964203955509 11.46803267456139
Ge 11.725580094202899 8.187147773055504 12.098821258390336
Ge 12.166784551763255 9.459314950087215 14.499031246000259
Ge 11.769605901431847 14.62553187161144 12.343167035840336
Ge 11.044541352720096 12.305972183084318 9.134878618895172
Ge 10.592392440669702 11.231478234782317 13.332060670474755
Ge 9.285716324451295 7.839835485760707 11.349147758251153
Ge 9.740161867980023 8.611660258853906 13.895082113571219
Ge 10.441729677957648 10.203817135176383 10.757396724566721
Ge 7.643834122988391 13.10836981540893 11.828554319258215
Ge 8.498720809234653 11.618891520969092 9.700111964643085
Ge 8.291212074380441 10.409826639115773 12.241719103622472
Ge 9.661748681627218 14.018297702725258 10.586116567839719
