23
Energy = -91.78931102 eV
Ge 7.978904255435857 9.888266023256644 12.748310392491929
Ge 7.499110138802887 7.499657147044827 12.292255788416714
Ge 10.667731176605104 14.752399914913445 9.232176396973403
Ge 9.311194780147558 8.258472559255289 10.692965338653153
Ge 11.74685341589211 9.21944584727302 12.153566991392369
Ge 9.564106903729252 13.63211023531863 11.393849857741275
Ge 12.50564442583001 10.90811432243377 10.162037065840558
Ge 11.81983238879734 10.262444765472777 16.269228456060823
Ge 9.815677325277322 7.6993471310384844 13.384083273617234
Ge 10.09947940072324 10.05798502563012 14.501797131874977
Ge 12.6006877740618 12.862629879372616 8.363922817631948
Ge 10.761972181834562 10.65248424899527 8.202289749995517
Ge 13.011771951381732 10.75775361153613 14.051707151940109
Ge 11.109812187399406 12.056772671195423 12.863457656164796
Ge 10.986213849027743 12.543963786051526 15.301040884549476
Ge 8.88799836593789 12.615630340847336 9.023442429625348
Ge 9.675577798077935 10.84855596569779 10.766108402549332
Ge 12.358963929466537 13.558232698616129 10.901125218060674
Ge 15.01887155116266 10.325617881068247 9.80726029599036
Ge 10.513827696182428 13.0467257026414 7.007571554218872
Ge 15.12922223356627 12.861168215823167 9.116235214684506
Ge 14.708317976297137 11.936317656842778 11.711477938868423
Ge 14.756507661031282 14.434524473332704 11.210720533077128
