27
Energy = -108.3287877 eV
Ge 9.712873954669648 7.814125143912511 9.144761208114918
Ge 7.853110921331441 6.213492631935424 10.311906373260566
Ge 13.399385306838118 12.49575767013444 6.935346774969959
Ge 10.205215020636325 5.640862024331656 10.975102476429935
Ge 14.161587897349728 10.652664430801792 8.529222729298175
Ge 14.795377916769258 13.298677393031113 9.133818952311636
Ge 7.615790340310943 9.212978247913764 10.547812870913337
Ge 12.008838314718078 14.261572147671705 5.834061688772752
Ge 11.414214743374588 7.821588787040088 11.30789006287837
Ge 11.557811915517103 10.812615819113878 8.662332144367332
Ge 10.514026773955205 12.910922742965514 7.49646130712708
Ge 12.628685537266682 14.812027747223162 8.243485063884906
Ge 13.098641144234168 14.5824576461589 10.739697576321666
Ge 10.122176313087756 10.094226711531515 10.761654218068616
Ge 10.950346048016542 13.198619265198888 10.03719864183665
Ge 8.362755990998858 12.123989849951927 9.88968153521688
Ge 8.779485051226516 7.545567657580469 12.371888104530264
Ge 7.027259585907178 13.224403593372243 11.795473698980384
Ge 10.799127121875927 11.155212200982987 13.075400097018125
Ge 13.165714410176976 11.856324943922766 10.70455454674565
Ge 7.7900170650048075 10.97200529531105 12.565530675761554
Ge 13.248751434394833 8.498536613444202 12.969473796353796
Ge 9.053972926156243 10.388529556759838 14.792657167422218
Ge 13.34968658213278 11.128776257721995 13.126104847223786
Ge 9.524447886417436 13.369086856994853 12.304396388617103
Ge 10.83180364040072 8.412686951392814 13.949241248854289
Ge 8.61133257692606 7.780100755214206 14.918219844050713
