26
Energy = -102.35734454 eV
Ge 15.049970783720397 9.031719236463637 14.101413862348839
Ge 14.715983361249272 8.961187453848344 11.553930359901218
Ge 9.482070451197972 12.351298049276014 9.074629978401846
Ge 11.364443068527176 12.92462935227245 7.349277359073703
Ge 9.770383132333246 12.375718122635993 11.669152801733398
Ge 13.83253802831697 14.449607212469646 14.292172737005862
Ge 9.843023309198784 14.848337026906071 15.026049315019499
Ge 13.762569970305943 12.997669337191335 8.34271369558944
Ge 9.830378363405734 8.044090022225937 10.388956418635072
Ge 11.7427603855411 13.4251563821278 15.9417693512903
Ge 14.145141333110441 12.565128861646542 12.251723903586933
Ge 14.369971947998687 15.308947237357083 9.127006979075093
Ge 11.119068490906235 10.505545145171729 10.248028569610918
Ge 9.81690356233433 9.551825775966966 12.385654852771424
Ge 13.435620744823858 14.95840840421447 11.698289011526677
Ge 14.244739142884931 13.192324669557904 16.52288064466293
Ge 14.71832841210052 11.478450342168845 14.672749043500504
Ge 8.380630019070718 11.352642514536 13.575116476326793
Ge 13.665612204581016 11.025331451157731 10.248177173957322
Ge 8.983337597163457 12.510144220763902 15.846297742670963
Ge 10.96896145809366 11.676505215011051 14.23250334999324
Ge 12.894417283891102 10.360221046491292 13.032675389605599
Ge 11.976101317762877 14.951080755734427 8.698582535905189
Ge 16.274785789874528 10.981498711918025 12.531745979137714
Ge 8.917717119021628 9.884725643266364 8.998538030112902
Ge 11.326484917256892 14.120155828636399 13.032224069823586
