24
Energy = -95.96421512 eV
Ge 10.104145611135689 9.593022873440015 6.385814052782554
Ge 9.301635239444536 11.769641149007626 8.386430288369043
Ge 11.690934210076444 11.547678357505573 7.513782285720972
Ge 12.83032471673838 10.20936302431811 5.64902883441194
Ge 12.282010314086449 16.02923750795245 13.063819226748723
Ge 10.833406385734804 14.062824227645622 12.540043756738054
Ge 10.00040762430765 9.334026793491624 8.956523464701943
Ge 9.976858547759537 12.18217873446398 10.971599531041102
Ge 14.105248479352218 10.0028121274522 8.012493638593819
Ge 12.39774384051791 11.870634391059118 12.054828661860167
Ge 13.911440670358283 14.02856550817216 12.534284280887585
Ge 12.141841786922988 8.201409581714225 7.153084276437231
Ge 8.05602569209579 12.310562202365148 13.215031534319984
Ge 11.10966638472657 15.821339857734142 15.415451223905169
Ge 11.575547856363082 8.228632576564378 10.658387888904922
Ge 9.990185653187407 13.43528244716296 14.84991451431571
Ge 12.47090247119541 10.450167603574817 9.947566302010447
Ge 13.542072302470892 7.576291800558614 9.16454613449605
Ge 11.725419682913383 10.173947838225326 13.840096741080794
Ge 9.179134466815277 10.184082532750129 12.435388667514664
Ge 9.307516851190023 10.852664940103143 15.087171046372928
Ge 12.84504428492759 13.986470711172418 14.842401522014987
Ge 10.541574009987391 8.069321929951323 13.046138687985735
Ge 11.74007537105351 11.703385905926025 15.885483099425786
