23
Energy = -91.69680261 eV
Ge 15.372892995520218 11.974206342583702 10.719536113173795
Ge 15.128437800595952 8.600156193548925 12.659652987582618
Ge 14.196708864900453 11.204643949737648 12.814628902921896
Ge 13.059207056178607 12.421736318190346 9.274887438926841
Ge 12.631574956213083 8.552425382346268 11.974941286567873
Ge 11.494109722595176 10.567641762160635 13.090946148757709
Ge 13.520673508972083 9.418724209356927 14.507140898822247
Ge 10.571361152287123 11.855965451718586 8.447496054584057
Ge 11.369005976230314 12.407705955515604 11.303192778696433
Ge 12.797257640603 10.057893504552588 8.049862304869022
Ge 14.241738776059728 9.793729365765277 10.213312483478044
Ge 9.521509364403563 11.580993329349429 14.497409675597988
Ge 10.629766535064075 9.973679124117716 6.556267850655829
Ge 9.691239522219501 10.416438404710977 10.771390793619387
Ge 9.959907809237654 13.78887951494939 13.087671647765935
Ge 9.02913389565639 8.021612079127825 7.219114030277542
Ge 10.670557984089562 8.652157730832263 9.01336772193075
Ge 8.060653804578026 9.999157609906883 12.769687255362406
Ge 8.363162840714248 10.264372136095082 8.261101241874794
Ge 8.827372171959906 13.23019394672536 10.475614284601372
Ge 7.837837655536053 14.899520648465286 12.149066748906707
Ge 7.099168142027942 11.286109162385392 10.585172992935957
Ge 7.486441624385871 12.571736113655469 13.085710654816515
