21
Energy = -83.85744943 eV
Ge 14.604024738440133 12.33101135569845 15.573220998615806
Ge 15.13144275487095 14.110403494956643 13.55609553256765
Ge 14.103259161660667 9.90933298182985 14.729952364348733
Ge 15.37921588659232 11.558193702540096 13.05398438200161
Ge 12.759601241215062 14.248947817361136 14.771431662725746
Ge 11.970127387850052 11.494866235968736 15.412304540159889
Ge 12.755545215037541 11.074458317099646 12.892461116976914
Ge 10.942710841076876 12.95122517744321 13.418948540552872
Ge 13.073955477610461 13.600451278681035 12.039772062527497
Ge 11.19087627293053 9.807249071608087 11.31086275478821
Ge 9.958427879738588 11.69062990319365 9.905169963013071
Ge 8.870584464038256 10.947619922226096 12.128585259399957
Ge 11.30709810670888 9.643061352894453 8.395739777003895
Ge 8.8699308141393 8.401538368253261 11.287060281248761
Ge 11.09689468591977 7.592400863682835 10.009086140514642
Ge 11.220861293751256 12.285823142255817 7.680276904465024
Ge 8.8967013070852 10.510012030551094 7.508852742248696
Ge 7.4652625640584525 10.328214356694323 9.79321489265205
Ge 8.821848128876754 8.136921982355314 8.54546483019646
Ge 8.418954272441718 13.088716479472087 8.38700475081584
Ge 9.30245096671318 12.482906566075844 5.994578089193247
