28
Energy = -111.43112191 eV
Ge 11.083573558741879 14.741743745783277 11.104146623885434
Ge 8.242086899094689 14.091159382783527 11.511040004786055
Ge 9.726384369712264 14.247131816308272 9.05974466217535
Ge 12.66501578185799 12.628816192233447 10.852372503672397
Ge 12.382064681098427 11.97546590758933 13.498917655056243
Ge 10.207247078316973 12.171881272768374 12.043560560718593
Ge 7.211054876724697 14.491528343650229 8.995526655566017
Ge 14.662616161758983 11.53983108419389 12.308922410642493
Ge 7.276615221763101 11.986046058969228 10.149059633104784
Ge 12.788113980273186 11.391936509257699 8.542571593309878
Ge 11.254943072551018 13.029345024762359 7.245923851338456
Ge 10.958656037045555 9.905957100539117 14.404426114120847
Ge 10.121086034121468 11.604655241526498 9.38949386593287
Ge 6.3552187322185265 12.31354471794266 7.8261797968773426
Ge 8.174264479507302 10.4092334025918 7.896827370460165
Ge 10.457753874805858 10.633816484707184 6.798160324511588
Ge 12.300960475730676 8.944744861410745 7.4591578690491325
Ge 10.08496279500251 9.271342503486768 12.034204588358687
Ge 11.862580190479179 9.016061096135207 10.163028514579603
Ge 8.788065566141604 8.508568855547976 9.437045105125202
Ge 12.128805797758057 7.58658336156871 13.306790574656288
Ge 13.646203321446414 9.730264991230957 14.085975998085305
Ge 7.624472510950102 8.291486200691088 11.712050126090336
Ge 13.954926805454685 9.002625448614722 11.598881672804637
Ge 9.420118730768445 6.73523568482807 12.865341757745338
Ge 10.81144447160166 7.027562823476589 8.71681545320093
Ge 8.630598947312272 6.020687530595381 10.421395358664931
Ge 11.416173332955552 6.095959740125865 11.08282116486349
