28
Energy = -112.5720587 eV
Ge 15.602473199104386 9.583780130285112 10.275477061911872
Ge 15.607821887232143 10.630917915138294 12.61706268845453
Ge 14.0204320373215 8.327692198763659 12.247771056086595
Ge 13.17784494607875 9.251538500055668 9.516987544796237
Ge 14.154582346735687 11.877414581798256 10.686697932324437
Ge 11.486621050819464 8.575249530566998 11.56864317637762
Ge 14.239246966703258 9.249464219795827 14.67679293911182
Ge 11.668543429016305 11.086176878028843 10.640635413214397
Ge 12.799108406008767 10.79426484694081 13.13280255520929
Ge 16.21965845837523 10.9400069545597 15.050804298674219
Ge 9.194433237173495 11.634843475177542 11.095070839514001
Ge 14.662502984182158 14.882036193141731 10.884553335658815
Ge 14.017813930852755 12.236869374466316 14.91997152408377
Ge 12.488934981570717 16.328209842976324 10.051548322531083
Ge 10.261172434035393 10.44690980093381 13.21754522751042
Ge 12.140979281006295 14.85266104374124 12.137832919684632
Ge 10.192553833189368 10.937142249846731 15.85889960732355
Ge 14.324878308812874 14.360082317734609 13.50928091893911
Ge 12.05582407836146 12.636216040117164 16.54183524151792
Ge 10.254735751145832 13.259109314608816 12.648313611060923
Ge 14.320826036515195 17.81858385864103 11.1476043199107
Ge 15.96609067208608 16.416861168524324 12.673710755420856
Ge 9.825358945328883 13.311737395645517 15.131612116620074
Ge 11.081994970922674 15.06847287734639 16.45540186707967
Ge 11.72192096905777 17.584894883030366 12.375450185198927
Ge 15.022065404842783 16.275986595286014 15.180968052170494
Ge 12.425647329319913 16.058573719863457 14.465887144463276
Ge 13.945156596719544 18.21099131939579 13.736410803310664
