27
Energy = -108.3390614 eV
Ge 13.507705445911109 8.603230327515597 10.745845536047554
Ge 13.55609346724091 7.540145359377733 8.181768403729698
Ge 11.286459995900202 10.616927312450551 15.694559528974159
Ge 11.339000538011325 7.516843013970918 9.673600401437533
Ge 10.09320355842299 8.911667062324977 13.957994221668889
Ge 9.092461701585304 11.139546929915777 13.213772720179305
Ge 15.03375997831585 9.615068801391441 8.915152927546307
Ge 13.363951386608088 11.639591491111169 14.55940957884565
Ge 9.256082318828124 9.326390484106005 8.390251260403197
Ge 11.245541868009493 10.255755092875862 10.380161487567218
Ge 12.13051583780073 10.02500235082277 12.901790540886019
Ge 11.345965393999888 13.385034536933942 15.286099504559822
Ge 9.094835455913717 12.047713943591756 15.722824924850853
Ge 13.178321876130786 11.391531764460616 9.041174269477679
Ge 11.580929542083377 12.583241690519314 12.668885603197088
Ge 13.092538126022351 13.429257642780454 10.726071410647258
Ge 11.951280307557647 9.43872133638314 7.6462769091128
Ge 11.971206058016715 15.399295218120303 9.431256711799756
Ge 9.195056146567428 11.816789987219682 9.924601859833157
Ge 9.354766668100183 13.702000560540021 13.483783132320696
Ge 11.57679172837598 13.22435485936913 8.159265176178522
Ge 9.347183769038644 8.322176145098783 11.354960902516124
Ge 9.313253125262099 12.136455649350802 7.422083490349024
Ge 7.356918088412307 10.822670329495425 11.360697389747909
Ge 10.26556633806588 14.023575585270786 10.683659462181
Ge 7.31032301134173 8.653999791138892 9.93269795451248
Ge 10.028630326925143 10.037969895300932 6.079480470477908
