28
Energy = -112.54556837 eV
Ge 14.904251354090894 9.088562723878628 11.238002058073892
Ge 15.093754340792529 10.209369562921426 13.839422722694259
Ge 15.82489252353961 11.533425489663452 11.574399237773333
Ge 12.7029256906834 7.813643749111679 11.369663503419844
Ge 12.784135639573806 10.711475886290865 14.985609295636293
Ge 13.430972798899651 12.325895079935384 10.949037588789814
Ge 14.088644357982878 12.708120923248964 13.602390542523615
Ge 12.909817012632441 10.869378795850762 8.853709748300494
Ge 11.7821125739451 14.096186431257511 10.069886320782283
Ge 12.850379339801812 8.304499313562296 8.740881327762882
Ge 12.731588795533504 10.314446135758903 12.38065332952231
Ge 10.595445189414761 13.593579317850523 12.413629890355962
Ge 11.654802347772858 13.240777395349307 14.812304151083898
Ge 11.974735287388619 12.825444884538099 7.460494733732902
Ge 10.208755966940947 8.564551769617719 7.913173060145561
Ge 10.117134232218007 11.090331960786873 7.238562982384464
Ge 10.376289768799861 11.203149086707876 13.288076474444999
Ge 10.883227837148015 9.553738198608249 10.25823388124877
Ge 10.26299038854731 12.058593941304409 9.702708942106206
Ge 8.202076340226771 10.885542777178875 11.224520720720978
Ge 8.585394265739241 8.288795977562364 10.360929661871687
Ge 8.85434005421271 12.698214105366764 15.00673180812455
Ge 7.879092581636534 12.283873871061965 8.572237045170393
Ge 7.661251301447349 10.370059771511077 6.8350924242373425
Ge 7.942552288274883 10.58197077877445 13.88001371688108
Ge 6.645832682826791 9.999634544006883 9.349969764701546
Ge 7.673650641192241 7.908030574785073 7.9137371653383815
Ge 8.019087219116011 13.200861744649131 12.617401111225261
