27
Energy = -107.66852548 eV
Ge 14.641552158640984 6.296760836373067 11.903086849286973
Ge 12.800145624797025 7.567722630358262 10.655524145996543
Ge 13.844133860694225 8.394146086952137 13.140071270650104
Ge 13.724582721528426 11.826417712931677 12.076030705736226
Ge 14.781877389799583 13.341701575082949 10.165166877352894
Ge 13.030321203615731 14.397696302291363 11.629980966447826
Ge 12.315491931764878 5.838882647103612 12.82410738222085
Ge 11.265042463365663 8.170704928107453 13.078388432701635
Ge 11.889424584229431 10.17155356412977 11.35390467886313
Ge 11.813083440513887 12.900429118403387 13.585570174350973
Ge 12.43327430403481 13.26571291261203 9.102733210969303
Ge 11.18567713524592 15.997016853359955 12.332599343815682
Ge 10.808921219516725 11.806009965137822 7.552083566983963
Ge 10.777790906521513 15.095324366631889 9.923274396575842
Ge 10.08325055498851 6.7100963700402945 10.993279283887489
Ge 10.739554424055047 9.335818399050147 6.8752054224270625
Ge 8.326859336084413 9.937713472549806 7.7244552518724126
Ge 10.249154334235069 10.461196863760033 13.518457526781425
Ge 10.060458343332089 12.335279115746255 10.175329998270184
Ge 8.458953445515338 12.561750494538169 7.964169450482242
Ge 8.48618586340337 8.221144803075415 12.661019293130128
Ge 8.263884826883203 8.71710915962404 10.067667902412847
Ge 8.55778788495778 10.813509911250412 11.612151200016498
Ge 10.753363710914494 8.9992306040753 9.386941373534766
Ge 9.739111849645143 13.842531736599799 12.393446022389876
Ge 8.251237723016576 14.352099135467556 9.772344537368223
Ge 7.294371477933414 13.13551946145711 11.982272319687729
