26
Energy = -103.74777336 eV
Ge 9.13518435971831 8.125894690487971 7.776394491112253
Ge 12.155777242129076 9.59671024336206 10.291447282795412
Ge 11.680834753880704 9.201085062779544 7.799004810318425
Ge 9.811861434486875 8.16829285481279 10.13070029404724
Ge 14.477746736757949 10.43145814733633 11.264011339986224
Ge 10.354483778848842 9.378183205387419 12.439471539116527
Ge 12.957066770918177 8.698427044950622 12.6753451593233
Ge 9.585803360139863 10.509157733585313 8.337866191765693
Ge 10.635028602713342 11.720468181664923 10.839167747889123
Ge 10.272362767124191 10.314492205210499 15.351517047347125
Ge 13.114522261301284 12.389245635599176 10.328078328581066
Ge 12.694950980899343 10.836599150169338 14.066688757438708
Ge 13.166722703407336 11.905705243351552 7.697132903525493
Ge 13.689972291036703 12.71768166829138 15.791654022914054
Ge 12.686994235654895 10.347996433625344 16.663841201940848
Ge 10.561624521038368 12.24755379459352 13.366180475262217
Ge 13.460967350474245 14.667899557978167 9.01195344830636
Ge 8.871124054444206 12.735517971344086 9.272542422025374
Ge 12.906922300498124 13.351575140967485 13.177949982371484
Ge 14.911925094720223 13.700786285848327 7.09062035257112
Ge 11.153916747129777 13.483835366470101 8.264206878914635
Ge 12.53655689196022 14.285605467997335 6.422281105685828
Ge 9.069272342642341 12.662645923592558 15.427382103780834
Ge 11.21337167192231 12.350964842178797 17.135346099421717
Ge 11.684534150592151 14.4011143300414 15.280908046591426
Ge 9.931519777735828 14.53894235205636 17.072159789001283
