27
Energy = -107.09205132 eV
Ge 11.542314731289418 15.994983737149955 11.526302046568388
Ge 9.9703984047237 7.930831958889652 14.245263316987467
Ge 12.66842848454732 12.971617878366912 12.10885753453282
Ge 14.193967293237417 9.245512526838642 13.461684052936471
Ge 10.204163213003243 9.597085870288446 16.073815061105616
Ge 14.738416614748065 10.969815839639928 11.574737155788585
Ge 12.698994674312724 13.976160398992937 9.665411547262467
Ge 14.05733117395037 8.531102536013169 10.673038256912033
Ge 10.27387042060447 13.888622787080147 11.066417398393583
Ge 11.883674909678975 10.195071317572598 14.255299189932044
Ge 10.239647766724401 6.603109396752004 11.992018937105241
Ge 8.140091986675941 8.393248378698768 12.167483841934073
Ge 11.951480745380413 8.416546117880506 12.238780585827492
Ge 8.823073344998484 10.4109424944036 13.921156617206028
Ge 12.478418606881831 10.613096254184176 10.379298285105437
Ge 11.019947068691412 15.864091902994124 9.069682199928218
Ge 10.670309782436334 11.170838265843384 12.14958636095083
Ge 11.986950793121034 8.420107309532535 8.786668223965842
Ge 10.191489542955132 13.296946119955415 8.441027324289916
Ge 9.597068284497968 7.727336539358886 9.524430933290464
Ge 12.071375119126005 11.5383830271259 8.050530991341475
Ge 7.960560750115078 12.974627689271438 10.370029499264405
Ge 8.823295671621947 10.37029471420683 10.526207358318112
Ge 11.844386651972872 9.494757107205642 6.43917895800251
Ge 7.788005050903374 13.576605152045273 7.822212623975432
Ge 9.775651117343303 9.81800974369422 7.899964747771658
Ge 7.580881457467386 11.027056812472901 8.327640407058805
