38
Energy = -152.6382471 eV
Ge 8.92547671655076 10.928441529687097 3.407125133122528
Ge 8.761655369765215 8.387251789801255 3.9764530008187347
Ge 8.835697196302712 11.095963844937858 5.949822757494306
Ge 11.148062489493798 10.234959109608516 4.583160790063328
Ge 6.715420095635425 6.552186238132455 5.625200735655531
Ge 8.739759384729464 5.798752603978686 4.111744486475207
Ge 6.782007228954008 9.418447859690458 5.657707758132683
Ge 10.87459268914643 7.466274903838502 5.428111157530918
Ge 10.885872857094705 9.948039559096188 7.339363937447478
Ge 10.971398803369981 13.116068796375988 5.635649407336164
Ge 8.657378365699955 7.964343577811482 6.708107347361287
Ge 8.926492972513904 13.341629682408893 7.220815256043369
Ge 6.803890002889501 4.73967521393059 8.169699170993932
Ge 4.709933631398567 5.98961720889248 7.251159007336043
Ge 12.850837227608212 11.410123624578496 6.284426211578819
Ge 3.976540727641083 8.206133281872756 8.49470788312905
Ge 9.129604678040492 5.329727896485335 6.761899435891688
Ge 6.359478056275868 7.22709169109795 8.981463600360614
Ge 12.050349362327928 7.758330563836206 8.409719344554588
Ge 8.977222034990277 11.386733195185954 9.020198463955134
Ge 11.382394793696204 12.552984236252653 8.259542058927634
Ge 6.290032157716568 9.77079286821951 8.45560968682871
Ge 9.890341986928739 6.249405457137718 9.291793857689777
Ge 11.479187995757378 9.049737652193173 10.520934321618931
Ge 11.540189492735717 6.560611928367549 11.488652804730249
Ge 4.46769892779784 7.172105383514018 10.834114408333981
Ge 8.38585548793044 11.775916167611992 11.617617908019287
Ge 9.041697847296918 5.427612123032014 11.628628798170107
Ge 9.0131020725326 8.680204846353853 9.182441276200583
Ge 6.40438431420757 5.365188092098459 10.8070814096766
Ge 7.831772616604707 9.214350205480814 11.369390161135113
Ge 11.029724250179372 11.118317175025055 11.982575424832985
Ge 5.946002844148405 10.871232598116658 10.987659136612145
Ge 7.583686012660875 7.368359844341547 13.001863786499948
Ge 11.67987938859096 8.796127964799714 13.170478713861247
Ge 9.217851832841056 9.742121727651842 13.620240057047885
Ge 5.374803346509671 8.869224585747489 12.611544221102497
Ge 10.075240336700226 6.831430568071518 13.868812678694185
