32
Energy = -115.82177462 eV
Ge 12.178904073407326 10.501575026473137 18.426496324783795
Ge 14.055958677508011 9.6563454276568 16.16119851246548
Ge 11.178967962550379 8.627470928969615 16.329309475822026
Ge 8.730651454872138 6.983029616287796 11.1575269339265
Ge 10.478064329032804 6.012650610975702 8.89158014900913
Ge 12.076190494469012 8.56924144811556 9.292347521873642
Ge 15.651576749779208 10.454679426435373 9.433342321210684
Ge 7.511972063305074 9.598290664432783 10.183056567505272
Ge 13.764256166014523 12.946660239284725 15.366260451878755
Ge 9.691309995675729 10.409694882695197 14.126307158008515
Ge 6.386588811552319 6.862575451698902 9.216612220505642
Ge 14.426462642455984 8.653613722991505 7.305319313535676
Ge 11.570172222581228 13.316647707592795 17.43274806722437
Ge 13.497185337432803 12.332220001061497 10.610056343349354
Ge 8.958927223424324 12.534296228533574 16.167488376822277
Ge 12.651078858035971 10.864041217212117 13.569365342099935
Ge 8.352480972166408 6.859556700964071 6.838700738366794
Ge 11.559962968757954 9.083447669555683 6.381637077412006
Ge 16.19424046783434 12.554406333251626 12.116653160740807
Ge 16.81515545336421 13.313983855798918 9.205879769034283
Ge 7.726579011070142 9.81462209744153 7.1439697459993345
Ge 10.115913341469085 11.963667675461512 9.447731350529898
Ge 14.110547857489655 14.841393373452698 8.942898091342569
Ge 10.073479111150416 11.708085604812986 6.43886783358613
Ge 7.444296183762429 12.549193480645421 12.586890235440304
Ge 8.532300478301009 14.845102728770518 14.191643559633873
Ge 11.027121644496809 13.997639460975053 12.679809782531711
Ge 7.64463425229398 13.734827205718132 9.813520492466846
Ge 16.024503698336016 15.361788226923812 13.30640068019593
Ge 10.435398909707644 15.010169385464978 9.87532897396039
Ge 13.085078625868046 16.09530614637197 13.718252870711236
Ge 14.581428405675249 16.863841236795725 11.14384184932308
