34
Energy = -136.85972791 eV
Ge 12.653183654934628 7.46795922511506 8.127558435979333
Ge 11.246895865080281 7.0299299990014195 6.013538056783072
Ge 11.237291588736156 8.39132163891421 10.111519832436576
Ge 9.877345938741431 8.175700501874474 7.853761654630654
Ge 14.786534666879074 8.126954263107876 13.179492321616742
Ge 9.244939757328616 8.014229617251747 11.760187374371109
Ge 14.075411286100984 9.720324247809025 7.967370292011817
Ge 12.288027731996204 7.746715839009202 12.386680135241617
Ge 10.375477700197676 7.076320838282218 13.924941364676775
Ge 11.893599218800468 9.481799381063107 6.362331210640134
Ge 8.864607083538731 10.475855650762695 11.742688877365097
Ge 14.590998231968731 9.61288390223968 15.305377259812982
Ge 10.412830098382086 11.297309012338038 9.732973720232454
Ge 9.675027391063642 10.761595353050131 7.3404974094380995
Ge 12.81874063530304 10.500253809984146 10.050810536083656
Ge 12.950779046257729 10.245220403572166 13.230814168636494
Ge 12.25186585502198 11.73701141970787 7.590514838969188
Ge 14.016274967441062 12.271625699843918 14.448485475779652
Ge 16.40878911049829 11.391330264259103 15.164582997910136
Ge 12.26526327662253 13.906558918235946 12.289045070070003
Ge 14.100798143551339 12.17064476585928 11.542066982738694
Ge 15.831626124757946 10.509650295977305 12.906307464729498
Ge 8.033381880714838 12.847026108173097 12.636573849839037
Ge 7.583765191501199 14.210701357219778 10.55066945554386
Ge 10.469339643580586 9.646361796448764 13.744042261175396
Ge 10.375196161207903 12.859433886110548 13.933359154373143
Ge 10.055920827510864 13.518895292127143 10.917251052481744
Ge 8.671085806194013 16.213640923022005 11.780449262441506
Ge 9.347684865071132 15.168895509628875 14.640388239296065
Ge 11.030143371514864 16.008682658633212 10.644714883437725
Ge 8.368835713874788 17.475585864163463 13.944787806658507
Ge 12.078974807798145 15.018738276857205 14.679006729962069
Ge 13.075072467972047 16.42040458256293 12.405614041111399
Ge 10.7951079760143 17.03051689137998 13.26105448612209
