34
Energy = -136.5489764 eV
Ge 9.129168727436 8.05417766823466 16.404828292084918
Ge 8.197773327170724 10.117159520988704 15.338502356636567
Ge 8.004944469400417 12.512934360213663 16.313345988745095
Ge 10.109644281859401 7.375298222235592 14.048387220966587
Ge 8.01516694721708 9.824570582393067 12.852984509086152
Ge 10.995863927168823 9.56375086560313 15.667791651529102
Ge 8.876469828474734 7.668539184545782 11.789574992909364
Ge 8.406443478632344 13.493504988266016 13.968984189696005
Ge 10.371787803051085 12.063489825584591 15.597790152433054
Ge 7.286827513975934 12.095715861555536 12.142737474154929
Ge 12.508471980980248 8.265432637263105 14.059458905872766
Ge 10.943260776024497 9.151636624431687 12.123827074952962
Ge 10.056097556272627 11.56065482371355 12.484823058670573
Ge 7.249931694566725 13.5342535162895 9.997882748418961
Ge 9.747967896438135 15.629155325594487 13.677687015796
Ge 11.293652162219601 13.489023795606947 13.750459098310676
Ge 10.508849461100603 16.893675684736756 11.343333723876174
Ge 16.441463625859644 9.490902503071142 6.551952525947772
Ge 14.470305894385712 11.085618695852618 6.940140308994906
Ge 14.690788233948496 13.70064733204592 6.971567954690927
Ge 14.793268339964593 8.178605211181011 8.005192076034907
Ge 12.287878373988027 9.976246041724556 7.637670999135622
Ge 16.190513674370457 10.334568748063171 9.03076279784738
Ge 12.276284753531824 7.569609795614385 8.2616097302909
Ge 12.510588313784448 13.837000418955917 8.30119424558086
Ge 14.938297653145332 12.589766718168775 9.241072270362938
Ge 10.751753505993921 12.021834234364954 8.04530511599365
Ge 15.444293299283704 8.394586504258427 10.492375958216805
Ge 12.975363482772524 9.082993760823294 10.276412431841285
Ge 12.64059026404018 11.630873470467941 10.044268447310772
Ge 9.727048978934825 12.837094672551125 10.257435669192787
Ge 11.565135109509983 14.686650659071072 10.565215383484697
Ge 13.15882954018125 13.253628951999067 11.951575109105335
Ge 8.681411758805094 15.282535429018521 11.109987156317121
