33
Energy = -131.00029936 eV
Ge 11.311527646587987 10.706293665813993 14.773565698909888
Ge 13.931625394096576 11.507957937566482 15.433987812645578
Ge 12.61748270478491 13.271660154505248 12.14504761263483
Ge 9.84558160322734 13.655515068693242 8.946364618516798
Ge 13.301139346223968 15.755644269796026 10.789417862113263
Ge 14.285847654296324 13.965732409357026 16.045534476799993
Ge 16.646655312174044 14.048001445397457 14.531072843725417
Ge 10.733850889714383 15.055153813864756 10.944571271180056
Ge 14.06552984411187 11.24868815931033 12.906316165062748
Ge 16.42993916611561 12.189735303580795 12.510933026079366
Ge 11.375009403529475 8.681379635295174 13.12850261147928
Ge 12.175464564934252 16.664355020128927 12.997619682619735
Ge 11.263755142849279 11.93959109264759 10.268098289925078
Ge 11.20121117759144 9.378181875006371 10.467183668246001
Ge 13.720175672949399 13.006957055209368 9.519538525454063
Ge 16.41255951203481 12.4699597484748 16.47334045215475
Ge 8.444466527911768 10.323364978793927 14.405956041343378
Ge 9.669923398993989 10.757659042151122 16.663015744454622
Ge 12.087513568186184 15.344148676458824 8.50168722059402
Ge 10.056378161794912 11.704126183301637 12.710276522034514
Ge 14.600361252436764 15.9143373141966 14.312898192036638
Ge 12.034596524841197 12.889157903640408 7.663097554516433
Ge 15.139991210557941 10.895194909585527 10.26891119904248
Ge 8.437788845238577 13.73230322878971 12.870270517646599
Ge 17.644589583854643 11.501107144030401 10.382068789478211
Ge 15.122537381938098 14.549643486527387 12.205819822453913
Ge 11.071958996461843 14.294324997648825 14.037665688603207
Ge 9.549414068654075 16.221731510279813 12.821676518610564
Ge 9.06712213323211 9.089385257856648 12.05628976940882
Ge 13.449415892337774 9.075866814757083 11.709361095994325
Ge 15.488633441027392 10.191715616546265 16.81708100256136
Ge 9.041150078914168 12.863066445826218 15.242337117095424
Ge 16.280433650993977 13.651490709451426 9.999987691608094
