38
Energy = -152.49479659 eV
Ge 13.317609553322907 11.88504446566839 11.868033904908172
Ge 10.739995466836053 11.16278373039487 12.626793107141399
Ge 12.544749266355037 9.417752240874947 11.621921290867032
Ge 11.323952780746794 13.482802958309753 11.274255309180194
Ge 7.952811019856054 11.17481608222757 12.529561584581387
Ge 13.201092045788105 13.21818984277354 9.522931450569018
Ge 7.014912903381403 13.50472454829436 13.053011597434413
Ge 10.267567621608112 8.295482466222243 12.77504972443013
Ge 7.963459478608768 8.826866348442758 13.773127620886763
Ge 8.731538203786684 13.962488131747362 11.139021469827421
Ge 13.803262703608656 9.147975554771905 9.355600185266692
Ge 9.427583929642282 11.413490952186484 10.236838716380799
Ge 12.527684020053691 7.06113141516872 12.657526268164652
Ge 10.781556569861078 12.778829139408572 8.245300804770372
Ge 5.316814117945587 11.886331331216507 11.694373032437598
Ge 8.25823896748775 6.4615764395247055 12.356188967322364
Ge 13.073932682169513 11.21095626611076 7.795286866705937
Ge 6.886879388996918 10.18835847406435 10.306121825701805
Ge 6.012249900323582 14.1806097342641 10.588085996731348
Ge 12.22939831124644 7.057951430433742 9.962902659253443
Ge 11.07273937589912 9.190388181737399 8.202890764146687
Ge 6.096873825005856 8.237369753827931 11.91363933829239
Ge 13.403751371461077 10.861259551653317 5.2769839514142385
Ge 8.033190130083298 13.1982476765731 8.798911353369723
Ge 5.660733221954119 12.038314205436567 8.984727661646895
Ge 13.941186795251166 8.695131940611756 6.723478071909224
Ge 9.611773213944616 6.885559035798152 10.110188948258847
Ge 8.280560405329902 8.593362024780642 8.707534842455992
Ge 10.816535777573348 11.131422527570455 6.120772469103835
Ge 11.536125588223436 8.695136325448107 5.3929412563620795
Ge 6.843415223290173 6.599117441659876 10.003328887667463
Ge 12.263217110343373 6.685051781890217 7.157639293151986
Ge 5.900399742829756 7.566070248828373 7.67679788701249
Ge 7.951424474954146 8.396214132778848 6.129164609106389
Ge 9.681313246531344 6.663733525015508 7.007059631662682
Ge 8.935355295484202 4.783563825374782 8.632292277902382
Ge 6.268572569520437 4.694957256353636 8.456059318526242
Ge 7.290791558951421 5.730186870811093 6.286904913705612
