30
Energy = -108.62611045 eV
Ge 8.350342702872055 8.000091624407638 7.007090736137261
Ge 6.441477103497889 10.37715031375284 6.800185496524692
Ge 9.39001909827068 12.148556090415342 6.067835086200588
Ge 8.315359866322263 14.771953623559384 7.108346303060151
Ge 8.010687558418319 12.173930996861626 8.794700090228282
Ge 12.221111986738789 11.413531540985774 7.060008734699755
Ge 5.305684412884447 7.7617250322875035 7.860773193892462
Ge 12.784838001520496 7.444982772183421 9.149070367589262
Ge 14.429685228233886 13.886967624386779 10.623099518483398
Ge 14.113843107770133 10.118299561324525 9.70228692306682
Ge 10.974055917813892 15.81374997126549 8.188655396403012
Ge 5.2667637080941345 7.317421208170479 10.853933588494913
Ge 10.481016350222278 9.541795872005542 8.903576115924956
Ge 14.010392836846348 6.258324383730326 11.79880505741769
Ge 11.666740674434376 13.170524736877482 9.484455257846532
Ge 8.186387236750948 6.771678479029293 10.120816934695895
Ge 7.326935406875161 9.525792133143389 11.195392371436895
Ge 10.557299859948172 17.020228397367003 10.963247394969919
Ge 13.939069083498056 12.822916453618847 13.475706323863315
Ge 12.220070957714928 10.573889493310288 12.272235590963652
Ge 9.632255974326341 12.29544420972702 12.347277720541927
Ge 15.89923855526415 8.628350865892438 11.742000719592737
Ge 13.212368088889395 16.212939979184462 12.191425125232035
Ge 10.59886565986938 15.036914166889222 13.292526572247397
Ge 8.188913126544103 8.683936747416203 14.033321657511806
Ge 10.403707839216386 7.637171389390318 12.25225810867618
Ge 9.977612733823712 10.964967476940334 15.076511350859514
Ge 15.4255509302699 10.215235985340419 14.272444822355006
Ge 12.722968766886952 9.308001055078904 15.451318809565628
Ge 12.343944065679064 6.500734654954508 14.307901471014583
