34
Energy = -136.24389775 eV
Ge 11.659133461057023 10.162761074928458 15.14020311207112
Ge 13.185063350563754 8.45254560280473 14.062346084647755
Ge 11.47764630205794 7.848684730571334 12.197616241610929
Ge 13.21792997817276 11.9993113210485 15.980600152749004
Ge 12.108118438402629 13.26670050803689 14.156199855132968
Ge 14.27304799773166 7.454244919363082 9.175608815584777
Ge 13.998758884665175 10.912541253664985 13.683126735503807
Ge 9.521332657130753 9.442939632950356 11.737654024086867
Ge 9.892656756997997 11.198093615387931 13.620182498670994
Ge 13.15764339249945 9.159361185666834 10.729206207884129
Ge 11.849536469149456 6.758915605039389 9.884185690783545
Ge 7.438584012758364 9.949547478209514 13.587057161811888
Ge 12.798534677967513 11.687167264131007 11.32955234096896
Ge 14.26429293010472 13.541538604300175 12.821933571381793
Ge 6.109683474040336 11.966184303195122 12.086651452861815
Ge 8.406011278360994 7.435082230393428 10.25812997914452
Ge 7.714412792063413 12.572780487316912 14.055227100960657
Ge 13.361197566554415 14.220872355175912 7.974648938930766
Ge 9.860222927718086 13.894379426244486 13.114945419224673
Ge 6.8638138216907105 9.755855540125582 10.932717143662073
Ge 12.54438170821551 8.889560712153028 7.9367600691245
Ge 10.764234469535067 10.0141195506243 9.47571288619794
Ge 14.401052910297663 12.049447166028397 9.313675997118786
Ge 10.066463387300693 7.647141050306943 8.139502556833667
Ge 6.002060714584656 7.956770593168221 9.43940132973187
Ge 10.368585120266378 12.583151015033177 10.949055597831391
Ge 12.760578044996116 11.565886493403143 7.334144883719012
Ge 13.074274396491987 14.385240913770176 10.585095254617267
Ge 15.453709375204271 14.417687892919046 9.406354495841155
Ge 7.819005437119599 9.244721429974188 8.171758670073372
Ge 7.881490270574027 12.060803611205312 10.109074259203842
Ge 10.452561956998784 12.296772673485998 8.204736882551058
Ge 10.979845785325907 14.727664067197463 9.060218330728636
Ge 7.982983416203131 11.812775550824652 7.620992954388107
