37
Energy = -149.40307714 eV
Ge 10.056643849308296 8.546181089412915 8.226556224110052
Ge 10.651157576820518 10.475859308594558 12.16382164527473
Ge 13.25053646622914 11.02194454817458 12.360931329271779
Ge 10.740798760296949 7.1962950944696 14.305040527116905
Ge 8.763687391958056 12.7044505425026 7.920241964670889
Ge 7.120661213978574 10.653096851909853 7.5272001398298825
Ge 10.200550653257519 7.76488728199017 11.78650608619773
Ge 8.222620530520556 5.8577901158825645 11.228190114261562
Ge 12.607187289759226 8.938497575265252 11.080361570332304
Ge 12.208354807914816 9.467142062167747 14.283763401639591
Ge 5.448405143599366 11.008026680312748 9.51508077145818
Ge 8.772690115326288 11.13123787867684 5.438308657662646
Ge 11.277922987638423 10.014918650593845 6.212625895871566
Ge 8.89065615481688 4.945523645594394 8.744165347658264
Ge 11.613507555391495 7.9873875448203115 4.635048643793798
Ge 13.017861792772184 7.05583906323992 6.7342022057947375
Ge 11.693687658710981 6.718962590376943 9.029554495648199
Ge 6.117959013120426 5.016499208288801 9.577581556618393
Ge 11.359303331624291 12.757859588542324 11.189954987547669
Ge 5.952723093144454 13.099673952413989 7.758014921006216
Ge 5.974962503943872 13.404815276427128 10.431615930963025
Ge 6.5209965161168215 8.299835793475252 6.275153644170533
Ge 8.727441003739331 13.070579835957394 10.770137885446744
Ge 7.715481400795025 14.800649943290217 8.95957465679947
Ge 6.086872976185276 7.46783138074033 10.969563636929092
Ge 9.445262195711255 9.448315800321287 14.135638378590402
Ge 12.7593984430869 9.254346715093394 8.396577342944777
Ge 10.905001697491624 12.589740143203418 6.47686245141765
Ge 7.21141744749854 11.08716443771682 11.529259845132877
Ge 6.956248157275494 5.667842755460595 7.0934454096634285
Ge 5.1326085505263155 7.21386221025279 8.501986542715027
Ge 9.179659459197953 8.394370926656245 5.7079934502525695
Ge 8.76729587463193 10.536689114701973 9.528549348100187
Ge 11.286805684477736 11.500162784696062 8.913654784367687
Ge 10.528233784549062 6.230274109779356 6.555239874525266
Ge 12.805555191585785 7.043850763798116 12.787753588897607
Ge 7.782011005038097 7.379762013239634 9.002010021358021
