31
Energy = -124.06288478 eV
Ge 13.631126173490259 15.239896148168592 6.674893073221214
Ge 15.058928981655646 12.719770777412347 6.3922932336154155
Ge 11.429233141522023 6.806749399684644 11.917291625131499
Ge 13.457609225543093 10.599455509145413 10.644742511458766
Ge 13.804334658334897 8.055299491472674 11.376091269688635
Ge 11.470145098421465 8.842854830782043 10.24196556572076
Ge 12.045428395605706 9.20512555369153 7.71123260403852
Ge 15.82053680045308 14.65551405430439 7.977849388254443
Ge 10.469447227797916 10.383790490646843 12.156626204289147
Ge 12.44964998339633 13.089836631080985 6.73250511640373
Ge 8.674914820598953 6.967130608800149 12.161787970509206
Ge 10.935661494788583 11.42445746276836 7.792040038711152
Ge 14.372182620985978 10.099968199932023 13.114973139990433
Ge 12.852715245266765 7.909745155450045 13.887014719177964
Ge 13.762814999696078 13.66475317863095 8.972060504341965
Ge 7.2316853387693305 8.599553799458555 10.790740582866567
Ge 13.881702900871705 11.0381362547104 8.09303909734387
Ge 10.232845113219675 8.489794351552655 13.902380391201115
Ge 11.798876441426144 12.861161298619603 10.686239771243786
Ge 9.58662449480057 11.160493875488607 14.693572562519385
Ge 7.399818156679243 8.636091693900797 13.582880035605205
Ge 12.377075251783644 11.754196667346543 13.090843936251519
Ge 9.372494348626637 12.875318794322686 9.216820020438282
Ge 8.607551761822196 10.660904549931063 10.324488037155557
Ge 9.724595492079144 14.601655114999765 11.489960126863767
Ge 8.530023828713578 12.272884238471963 12.470132428850643
Ge 11.90891669004616 14.502481577731368 12.992671242382423
Ge 6.947111274291796 11.009686107679192 14.443352841685373
Ge 11.52802406286632 12.829802364839052 15.267969891401178
Ge 6.3087662045973145 11.064383365360246 11.847517497062421
Ge 9.513315718030869 14.078409356724991 14.1170903373678
