36
Energy = -144.65013014 eV
Ge 11.304534699247991 13.95847300303803 5.955514890073871
Ge 11.276706649276722 9.78482526140172 9.625487855512283
Ge 7.219197276831536 12.383159613054818 6.735749141178116
Ge 6.853139941180275 8.186861790509738 10.231873907618139
Ge 9.001630368946968 14.42222713174242 7.197839401209641
Ge 10.128478911472861 11.666399406086692 6.16453973334424
Ge 10.718005183447179 11.940973410875499 11.878656810852043
Ge 8.296069909133374 9.565560313870462 14.237981138313339
Ge 8.34531789632044 6.432472170688841 6.375466935959387
Ge 9.73835317526225 8.635707538360482 5.684491378389594
Ge 6.123770989049747 11.59456203187586 8.84539742501915
Ge 9.029624371927238 6.481836630306164 8.819585786969101
Ge 12.759313300749046 12.035265996050544 7.005049821665155
Ge 11.893184157884615 8.172612348430327 13.345449451976886
Ge 7.440823177024138 9.863339714376586 5.747282738676766
Ge 8.396603035268361 8.894482879080739 8.042718019629861
Ge 11.521974291824005 6.860117949512879 9.038708220431227
Ge 5.503232162971086 9.08783871897703 8.35053800107781
Ge 13.351527930689834 8.45125075837854 10.301356214838755
Ge 6.951982697637861 9.941587236848346 12.017968922803773
Ge 11.758922719835988 9.522410756098171 6.999997995018478
Ge 9.918644437327755 7.271619097569183 14.85806914835215
Ge 9.55640096514536 9.513354014721276 11.620935933163631
Ge 10.807778367955505 10.413086461571003 13.960000474000019
Ge 7.659391009880893 5.880376683898673 10.946743897474901
Ge 12.02777922113791 5.929647750529144 11.319614538922854
Ge 13.512275723765883 7.715808194987228 7.734330700876359
Ge 8.946362749783676 11.463351398219908 8.576009272623082
Ge 10.908797467108146 13.300020039248096 8.507661070581127
Ge 7.6734249640061085 6.958283356355569 13.7542802465077
Ge 14.011052296280047 7.116239433149105 12.426987175686675
Ge 6.095478269571053 7.7324180661137305 6.200605407381958
Ge 9.807009307741975 6.956529280538705 12.140572210756615
Ge 5.86644766626064 12.24011952848313 11.368867174030722
Ge 12.589833198977603 12.026044281724696 10.095149993379747
Ge 8.359713786063393 12.173470194834925 10.963326512414458
