35
Energy = -139.38812245 eV
Ge 11.265399015636719 15.687748453173754 17.930710677435442
Ge 15.94488380127578 15.972544093134234 14.793252098677442
Ge 14.769264210673407 17.154337823547323 10.317358075441179
Ge 13.144851823273658 13.985570483859705 17.976807536281584
Ge 17.23287215256396 16.10343267329955 10.258249959886994
Ge 12.455330957488117 13.145862035785909 10.384112196887944
Ge 11.563381547817572 12.528298733727347 12.788518199411069
Ge 12.261256027963826 15.761559027518805 10.349492802782438
Ge 9.724943971597128 12.573746898789828 11.011790292135291
Ge 12.072830292253705 8.615290352365577 14.677501172919182
Ge 9.653361813486065 16.011123883836095 11.270177706738043
Ge 14.374957546329444 13.83474703233127 15.594445061901872
Ge 15.023828082180051 14.52568293565496 10.586757818355077
Ge 12.206900163536515 9.149756791945618 10.365445169750387
Ge 17.482548746584026 15.519875293830559 12.774878199638145
Ge 9.815170311063529 17.565748731772903 13.143134962142128
Ge 11.117022737466616 11.181506214426241 8.859041190090656
Ge 13.719830296991123 11.11900240020633 9.265749596855722
Ge 14.453065781949517 16.561819531584856 12.778506058080325
Ge 9.523573266437964 9.928722383542496 10.50124570597132
Ge 15.979088002433706 11.263442563537623 13.00365842858835
Ge 13.509078308368592 10.975211073680118 11.88478825538535
Ge 10.215126922889118 14.587899112107637 9.206208693661731
Ge 17.380645225526745 13.505658439376653 11.168811147516184
Ge 11.9987488388367 11.801107299565427 17.62473111251631
Ge 11.893427408704474 16.227398749597267 12.917670608287105
Ge 12.030756083851282 14.264645248109451 14.528566361582202
Ge 12.097341709643686 9.232439631881933 17.332687041165016
Ge 14.62903587059204 9.258884626972375 16.614825687296168
Ge 10.961265702056382 10.054772524432703 12.659776365860052
Ge 12.89023299138018 11.063063315444499 15.28600008601365
Ge 15.335227144186884 13.904947418230599 13.082013751838753
Ge 14.481501167654379 9.201296284801492 13.98564990785759
Ge 15.518053507359413 11.51597964947714 15.60988682572225
Ge 10.618409089640982 13.708822285726995 16.619021249017234
