31
Energy = -124.93111718 eV
Ge 7.5113265282312955 8.932341217932164 13.331435007312457
Ge 6.211729289615958 11.167686838311681 10.03498708352322
Ge 7.888360936006585 9.346709465064897 10.79701625100358
Ge 6.727490646678768 11.29054219742641 12.51849500444067
Ge 9.8362072368315 9.1529903976822 14.69735974816463
Ge 8.404069041100813 13.04806281605879 13.597358655469218
Ge 9.44689012005817 10.74009301959946 12.378573055929849
Ge 11.71235275877108 9.474904634374688 12.050039177573115
Ge 10.363739707448353 11.655559796654119 14.653816489116293
Ge 13.625818649510864 10.384199311155333 13.479896886354869
Ge 12.541770108965487 7.966700506610154 14.116373917739782
Ge 9.6894811070095 13.407463832495834 11.394453898440913
Ge 10.385701352024663 9.797992372696042 6.513814908481767
Ge 13.009488912829985 8.113891115237756 9.749626583849892
Ge 11.998071520634573 11.674419732677299 7.282771353968456
Ge 8.36722834127789 12.4726419397159 9.427129327813002
Ge 12.664195314444365 12.713184478387554 14.033888933557302
Ge 12.251805977299739 12.838318427753654 11.454014030823968
Ge 11.199740809368286 7.054921173747186 11.572415365231722
Ge 12.307153427242406 10.845475891034615 9.775634074478731
Ge 14.645287701039683 10.161355103791061 11.05810815881012
Ge 15.25293958600565 8.376116056618816 13.35211385053569
Ge 9.842447310341226 10.314525735204155 9.01707218684405
Ge 7.876539084492542 14.005578301051719 7.320464851315721
Ge 10.277510486025049 14.350869169218775 7.831295524836793
Ge 13.648392929379524 6.576750206361906 12.037417693386475
Ge 11.23843172554007 15.141063814899079 10.215777955128612
Ge 15.526528290144292 7.8186580269806685 10.619613135162115
Ge 13.692122356276949 14.560894690074505 10.219011206758077
Ge 9.216143982611458 11.957135919278585 6.7460998267005605
Ge 12.72991198977259 14.062402893952362 7.8102956461920385
