31
Energy = -123.20502796 eV
Ge 13.187072646310403 14.89818938461733 14.450574057988097
Ge 15.476593691715149 13.831164629611735 14.438452624615605
Ge 13.808833327522661 12.507915765932255 15.847459318032222
Ge 11.308507346634007 13.638704385556764 16.255954681353266
Ge 8.592977318111847 9.521065096982468 16.800222903540234
Ge 13.85187504711597 12.707532922711568 12.82828467836032
Ge 10.184203944123736 11.264474773687835 16.4549757654133
Ge 10.496061558207801 9.290481484730998 14.55455576330827
Ge 10.175494921440091 13.613216097358794 13.962153958642366
Ge 11.915959753653015 11.547596100716198 14.30942969853352
Ge 11.90630858248469 14.730969123015162 12.045790046526585
Ge 9.296868552402612 15.258685875709862 12.21544748336731
Ge 9.777118497423206 11.22010199591857 12.737588277026152
Ge 7.955289648914016 10.307688473062589 14.427712766034885
Ge 7.642660354867783 13.712326710782387 10.810891604132577
Ge 9.382847667798186 12.57641164423424 9.371249588217337
Ge 7.754123523337276 12.800877847417814 13.257395932333914
Ge 11.922773695254905 12.910302804571337 10.212365256596225
Ge 13.087068516665182 10.534972833648595 9.977708554474706
Ge 10.938639145591257 13.702135345925203 7.618664911678641
Ge 10.43148436355858 10.488824232765518 10.359484507029464
Ge 13.563621897586945 13.168455057264453 8.17434480819277
Ge 14.149190378281817 8.157444408540906 10.782691297999765
Ge 11.670640038697119 8.271560051775529 11.305430412221307
Ge 9.697931437475695 11.242643298732997 6.981004389576257
Ge 12.152790029064981 11.885623569105684 6.138594703863662
Ge 11.569378486339572 9.645015555000914 7.8361374319630634
Ge 14.02715866690616 10.605693309150553 7.565587624017354
Ge 14.64386670699666 6.737801743145845 8.670192237123928
Ge 13.487986758876035 8.112365882845076 6.7900022435978915
Ge 12.192430501844706 7.1198214936570885 9.107944118553723
