31
Energy = -123.44072463 eV
Ge 15.994777508554714 9.131264790939799 11.77275744203875
Ge 10.984886016329973 16.58517973361003 16.489333195224454
Ge 8.724540801296314 13.742746413238612 13.559963606799856
Ge 13.889548951705033 14.162441677463928 10.090576663916542
Ge 15.425455740913744 11.513253090353844 13.46956298588483
Ge 14.942937954331837 14.354232667486214 12.879378885140401
Ge 12.884280397123698 11.635901000672428 14.202168619490998
Ge 8.171890712560812 11.234828406519327 13.785775363269503
Ge 13.24002023317865 17.572190381921768 15.349089308110507
Ge 12.075940371090901 12.44375739247022 16.468597941951835
Ge 10.241088761319965 11.0881980541675 15.249910439180777
Ge 10.734699136588823 9.105104535898313 11.143064526862815
Ge 14.848898278950905 16.533394698765353 10.88101963106128
Ge 12.485528846759543 13.21467227052576 12.230074718637368
Ge 8.834889458252434 15.6099550054617 11.909989424871753
Ge 15.752996725015477 12.555686316900148 9.173992307854409
Ge 11.139331840200697 15.413441323115517 13.075204733424558
Ge 14.31016513834805 11.445135237775764 11.10711912722567
Ge 10.568492495940811 14.328747500234746 15.374443381017624
Ge 10.030883470930847 11.361206597910055 12.051583572094826
Ge 16.94751706639807 16.203431669155382 12.36604088315145
Ge 16.213268654258066 9.2068604829808 14.305817010062801
Ge 11.293980000375758 9.386577224805682 13.701982435131056
Ge 15.080330341808502 15.77142211602633 15.107616490710702
Ge 13.366425269356643 16.684325112846444 12.967767773668575
Ge 10.284141973116567 13.769938675181823 10.864475302414812
Ge 13.829205536622634 8.946198107037326 13.421886336073452
Ge 13.339761501711228 9.0589442337886 10.794452825745594
Ge 15.393070973584374 9.632177047558443 9.350697982422155
Ge 13.033989756721844 15.092492132958208 16.600347195377967
Ge 16.670278658866092 14.198026980762728 10.90365425739159
