39
Energy = -142.21567825 eV
Ge 8.794187256546708 5.980422815560077 6.1268465412963735
Ge 10.537791825879568 6.16502383247813 8.611254557379915
Ge 10.450544545058234 12.329309495500134 4.323112367573673
Ge 8.693522016554686 8.689256669404063 4.685417797363965
Ge 11.957888216883292 14.397693241391723 5.9366171865951465
Ge 14.558324794570547 12.833695213139796 6.40192255692688
Ge 16.405314346061434 9.636140344970284 9.60775546345433
Ge 14.262182540760708 8.159826089732515 8.02799698633524
Ge 13.778729180176418 9.98212999818243 5.646568253905747
Ge 8.567060680911077 3.942572409673934 9.462839294885594
Ge 6.400080566250435 8.186899604892881 9.044086359282929
Ge 6.6955152449888615 10.488798206033705 6.168745761517678
Ge 7.614722200476306 13.205690193146767 4.994003717269656
Ge 11.110007720713368 13.382884484785833 8.67810767023015
Ge 12.80189222858442 7.2079954016429895 11.739500143028797
Ge 8.998767704354497 8.02104340133885 10.560779710275055
Ge 14.105140507144629 13.886534602566915 9.234292283147788
Ge 10.773747365614572 10.15253566123647 6.388473839666625
Ge 15.822154257417408 7.851500376316862 12.038109210926768
Ge 8.467747223344674 11.223678933497157 8.60787638079214
Ge 9.244993715071953 15.723238870962966 9.285233423848045
Ge 8.69473543774732 5.425631994482081 12.132461578448611
Ge 14.34646762028217 11.385189790003452 11.008242733185408
Ge 10.284677459543598 10.718697912015308 12.723103212424
Ge 6.384687210790043 5.384189323327503 7.890311717008051
Ge 12.634924915386119 8.626779332950987 14.440486642582687
Ge 12.178179330145877 9.538415725041133 9.88148413850394
Ge 7.173152670414311 13.892720942540027 7.96431104371079
Ge 4.636969848549653 7.919027946447903 11.495893309567935
Ge 8.471728447043725 14.637594856545672 14.724513973838901
Ge 15.108437828659612 10.120502208968597 13.913754105270836
Ge 5.822104887294886 5.66390148952213 13.100018649272354
Ge 9.62930529875609 14.10613324041301 11.897770839884553
Ge 7.557343158398908 11.793966709523495 11.814440029246166
Ge 6.024350408812349 8.557822824791685 14.113827351465824
Ge 10.645284288814912 12.545454794295875 15.23237434504256
Ge 6.418607521819676 12.377089017885684 14.666115988925393
Ge 8.40188880536829 10.856065131446897 16.43339492821183
Ge 9.06634924395812 8.523455432494616 14.517464426858039
