30
Energy = -119.97533625 eV
Ge 11.83256788974507 7.97581206403691 6.826382067432927
Ge 12.053641154145739 6.354284875164618 8.828213792672368
Ge 14.160201533454103 8.084726329924512 8.25163585675977
Ge 10.061788787210396 6.257944765583351 10.448755719614539
Ge 12.227770846318998 9.587850529294505 9.07885570196303
Ge 13.88067803816188 8.17039491291989 10.849670356415158
Ge 15.141808238658422 13.284319710253833 9.265303600665693
Ge 9.951305062996944 8.078224789660728 8.58241487566827
Ge 11.355578483515757 8.252817153391858 11.244989324228916
Ge 15.498912794741175 12.284311943274698 11.617581121546916
Ge 13.00830210763669 11.960985170625499 9.906635035270153
Ge 13.673589166809188 10.575874838595583 11.981090642142279
Ge 11.621930688495148 14.146224587823532 10.085018906955177
Ge 14.025547567967868 14.917017927113452 10.867611981187244
Ge 11.190697411320498 10.305044402888198 12.89388051450756
Ge 9.237345913253565 11.401195703532501 11.355866278971227
Ge 15.342901454301881 14.23598555327093 13.195723910082458
Ge 11.439796924605815 12.882666784778923 12.352711652271461
Ge 9.190741388475836 14.161519913105986 11.475928091761862
Ge 7.513121100101931 12.468651432901368 13.067611611388491
Ge 8.40712428973795 10.07650940354186 13.599292039754594
Ge 7.13216465317884 13.915422982384364 15.18549079782343
Ge 11.481051682331932 12.983309874130951 14.961020326258916
Ge 15.387321450580904 15.991970821146523 14.912783168766328
Ge 9.436060787612037 14.334123533998895 14.125258201960614
Ge 13.02948066525057 15.38713299891897 13.450703075178174
Ge 10.765204268501856 10.422327290035389 15.468742550709795
Ge 15.348799542390816 16.760776583254245 12.183750722777294
Ge 8.77383522935386 11.989684665492069 15.460885603465112
Ge 13.735210336331777 17.752165444639708 13.916749147318594
