39
Energy = -154.69394097 eV
Ge 10.148792683523716 17.398710144142274 17.043509824203824
Ge 10.971847457124726 12.96186614949883 17.595984681353723
Ge 13.391764954215507 20.43866593284253 16.579224340685972
Ge 18.257534199405693 19.314294645099896 22.294166280209723
Ge 15.285170325870682 17.042944237620574 14.73053652692921
Ge 16.32067108496799 -2.3216530356463934 11.653053285394803
Ge 15.336658092948328 18.707987251904036 16.65428058829058
Ge 18.334906994660226 14.126947701992016 19.094792912550357
Ge 17.67136142972638 19.831503013197207 10.902977432987432
Ge 18.554819924062596 21.67771734392128 12.825268249524173
Ge 17.987856785396257 18.390783855030488 20.05191221141032
Ge 11.13101329664028 17.436415637653532 19.80175809344041
Ge 19.708558421213 16.00860019817866 17.244645057840803
Ge 17.684485689536544 18.93637827486393 15.64569775418428
Ge 19.470290911005375 16.3725745692376 19.755859339845856
Ge 20.149018184692267 13.486745364539784 17.144612513220416
Ge 21.248533709711563 11.890433649049136 14.923669761325915
Ge 19.191622043329108 19.196093274831362 12.941809615432547
Ge 17.85175624575671 11.939853626607547 17.733099920456567
Ge 16.17880150688056 14.604628098349341 15.207701021866171
Ge 12.545729566927148 18.497981563515264 17.903118689800355
Ge 17.132718553560252 17.495683934547653 12.351008085388052
Ge 10.752299317890941 14.94997139008941 15.911712712415607
Ge 19.275549175455478 10.377367039000754 14.30853802752927
Ge 16.494938484603896 20.031603245401726 13.493261779092617
Ge 19.942184483072474 10.467707118146231 16.77815004395105
Ge 19.988085167454056 17.859625619108755 15.201702267979787
Ge 18.109767994605495 16.214121309698044 14.508752546740158
Ge 13.288576887011384 14.27976381420062 17.36472985240329
Ge 10.927265187274793 15.194144451792758 18.6146244534221
Ge 14.743046715373083 18.330102076671047 12.485601199339577
Ge 18.477804419723583 12.586811325622765 15.335390100312448
Ge 11.847253558370047 18.601331223055684 15.3111268160317
Ge 22.1339428385324 11.979972089061816 17.33415798867587
Ge 17.085343784463962 15.541115930565718 17.39706173163904
Ge 12.896619606851628 16.426877247948433 16.01635796780559
Ge 13.51181802297994 16.336585132778616 19.053346312713593
Ge 19.415224744558536 17.158494079524047 22.114653112109895
Ge 15.949792750752083 17.36954051674539 18.711896099223306
