30
Energy = -119.56536276 eV
Ge 11.779519820752707 7.824570860726419 6.530557629238726
Ge 10.756275564421397 12.438029987574227 7.9932747428658075
Ge 12.933903886516937 11.403746777316844 7.354313953845602
Ge 9.556611683848226 6.335997893237993 7.452513223941267
Ge 10.089144120514824 8.74805613247265 8.357693525555058
Ge 8.765585674999414 11.08042416738204 8.867855890933887
Ge 12.782528836441095 9.036371177063245 8.6000637686462
Ge 7.735938904032284 9.02954414094512 10.453971615986926
Ge 11.93852628690827 6.27868073563592 8.649143748600201
Ge 10.719240774868522 14.216812417959877 9.786318293981015
Ge 13.007048207183676 15.246256423031943 10.41985111004359
Ge 6.29177861549765 10.159878811922209 8.575061813326588
Ge 13.267055853278316 12.895982757902042 9.46086973664295
Ge 12.326229247347557 11.370493151515927 11.334871763299978
Ge 9.277005992974063 6.7205711121312595 10.052443046927207
Ge 5.77552206506438 10.695894452995034 11.189286404663523
Ge 9.319657257130569 13.734732603396264 11.952249988686184
Ge 12.082190122070703 13.79033964390832 12.359543846351437
Ge 6.68740217821068 12.591715458882582 9.67441663683644
Ge 8.37166969353937 11.399623236963253 11.408524753129232
Ge 11.44449607986998 7.973518098161991 10.613762336461757
Ge 10.142455086792555 13.861191220723228 14.445016327592507
Ge 13.939058953283757 9.360950907346389 12.478960089103799
Ge 13.595774840323278 11.925878547084611 13.748270832156768
Ge 12.08628802419366 7.741639552328451 13.103337862259062
Ge 11.2820010127323 10.169178243495388 13.338348372298196
Ge 9.178790674301506 11.402570542330755 14.081035142829782
Ge 15.156354172335345 11.34412158917496 11.806553607362883
Ge 11.5758998578029 11.73997851275048 15.554341049802016
Ge 12.73629043314421 14.083494764020761 14.957792807011899
