33
Energy = -132.28274447 eV
Ge 12.79558312832094 15.212553990549441 9.519808045342266
Ge 13.779832114474335 12.797546005488224 9.528789868723125
Ge 13.160976087556614 14.614271058730193 16.18400503920019
Ge 15.593266003639686 11.957801251013038 11.094405822882814
Ge 11.481260490796208 12.946662714044093 17.254557096665096
Ge 15.041971501302548 13.438468892921945 14.626500555189024
Ge 12.983933512950827 13.501921728860559 7.011753495992105
Ge 13.019398563769146 11.05135631104957 7.624683043123145
Ge 10.564434168601496 14.685581802460439 15.37052995114162
Ge 14.65379785131682 9.635032647746982 10.719610027244494
Ge 11.385964072785939 12.08001503936315 10.007264473051993
Ge 13.682916787308796 12.044783788556167 12.912273697801409
Ge 12.300900728478002 14.12812615839802 13.525146172382618
Ge 13.688859278692673 11.898197210064394 16.063553670799806
Ge 10.425645246759256 14.424665421773073 9.032355061505324
Ge 12.006910840990509 9.718633272106457 10.808646836069746
Ge 10.327564662445788 9.947789254520247 8.510094995451121
Ge 14.956008044187463 8.976645946051649 13.283321047625163
Ge 11.02483135138909 15.5655257796401 11.654065657537386
Ge 10.568505995154586 12.296661287898527 7.386410319016742
Ge 8.517994233490239 15.210494813992806 10.657048517617989
Ge 9.947497900521347 13.137784113832646 11.786571783134884
Ge 10.465734957271323 12.232602144472983 14.583783305047127
Ge 11.577728613799449 10.404606155529581 16.026874870140823
Ge 12.483010990391335 9.830063966866051 13.652445274084622
Ge 13.36315372100193 8.58758268572253 8.709085899936339
Ge 13.514830469540541 7.416911256913779 12.031600224925276
Ge 8.654387256328622 10.747864755698517 10.492979501599619
Ge 8.279768050697482 11.641709769722128 13.290787304308687
Ge 7.3416623803026715 12.852686598982626 11.154172486973762
Ge 10.707062709884843 8.22415069250579 12.570154849182616
Ge 11.585049136000027 7.11929493552788 10.336921917897195
Ge 8.283172638451118 9.216709320725519 12.400416025783478
