30
Energy = -121.18843136 eV
Ge 14.032625721656709 13.675383167034653 14.112057723069064
Ge 16.260929903411803 12.470894106149212 13.261019262509787
Ge 12.774335788977867 11.63326701480152 15.211779746118896
Ge 14.262357564801473 14.40640843823799 10.991509532522103
Ge 14.028922943558255 11.069971692535319 12.972487959268294
Ge 16.169312590323038 9.707243232838703 13.734053681042775
Ge 12.046799629628543 13.350218200095707 9.685195934833443
Ge 12.299580760181799 16.30157649663561 10.659272183810003
Ge 9.851047628157463 14.827829283278975 10.571195253410393
Ge 13.65946161277361 15.193040828911563 8.630224692377631
Ge 9.57903859551158 13.482015634912795 13.58729526937271
Ge 10.254301870111293 11.54583379979918 15.22277356952319
Ge 15.38489088579075 11.464261255586594 15.547561418900939
Ge 13.940364355215527 9.25669461161631 14.994849371184465
Ge 11.84865865282281 14.048961630208424 12.226835771675402
Ge 11.019775464025768 11.344927599344032 12.540223349879216
Ge 12.615017064222313 8.93007884606467 10.008729729534602
Ge 9.52397492036601 9.432049925959872 13.691063891455578
Ge 10.897895349882202 10.828428446361038 9.570690874041752
Ge 10.359419169273712 8.666329820054468 11.329066638544957
Ge 11.095568684121186 15.467503685474751 8.333350333311845
Ge 8.842497392188738 12.411886477326169 10.073997056327347
Ge 11.401104622091138 9.021126653224034 7.58993258172366
Ge 11.001131085610423 6.901650592790659 9.273388854644226
Ge 8.221823284618008 11.391036880685629 12.580698611539574
Ge 8.191875502537124 9.4482336820272 9.919629190628726
Ge 8.57938540548549 6.957750577573766 10.407386318532582
Ge 6.595457003950307 11.323303276967291 10.612628941484044
Ge 9.103999016274036 10.505118703827069 7.631882597388629
Ge 8.893564076054606 7.8169146844543524 7.854956436220517
