30
Energy = -119.39682674 eV
Ge 11.141484156987737 10.168875395586854 6.036264289919803
Ge 9.78633030804791 12.33969158128791 7.364391554421861
Ge 8.793430162729674 10.947225371609171 5.512040461406362
Ge 12.237996978342425 11.635711860003092 7.775722952658473
Ge 14.653247618147153 11.426508247611 8.761300891685794
Ge 13.33111885689056 14.008930536902756 8.094899891333787
Ge 15.806307166025547 13.73162907836691 8.225796916825098
Ge 11.150009762219685 8.167993470816304 8.186969615270447
Ge 8.86445184267987 9.699623932396888 7.791240965704667
Ge 7.89497638125475 9.780550517024242 10.661770180287746
Ge 9.830879350042594 8.106138173232004 10.455105742051211
Ge 13.104296657098514 11.486371931354784 11.031352582813373
Ge 10.53909958318576 10.647261569545359 9.622662902519663
Ge 14.69302085189098 13.592406078277524 10.520669846826598
Ge 12.783655456156799 9.039092073147396 10.238474118637969
Ge 6.5112461410214175 9.390649308845772 14.935647133093598
Ge 10.067182395867434 12.387777199386267 11.552494234879827
Ge 7.188740024466869 8.304071307123117 12.676492914968893
Ge 13.40171613740948 14.877908414689509 12.49677952130808
Ge 7.50152570900534 12.262289886923792 11.248128560863515
Ge 11.885537041019491 14.010068430164472 10.472465307462814
Ge 9.272675027035781 6.674806992844475 12.595014587499291
Ge 9.013778295577248 8.813865505515961 14.788445821886542
Ge 7.9828887380425755 10.86054761231992 13.402091450354396
Ge 10.7188246944689 10.717259640230132 13.548525668741071
Ge 11.527733454429915 8.501719247346028 12.4358885981769
Ge 10.953621088562636 7.176572435342355 14.516396874666121
Ge 13.473191124231276 12.415575534767004 13.398318378886435
Ge 11.140450649667804 13.87544215831131 13.462389836067446
Ge 11.880084085755808 12.082936247288979 15.321757937043966
