34
Energy = -135.76948295 eV
Ge 10.794920858517058 8.842049272515421 13.629784775107707
Ge 12.331701193525705 11.906408699224357 7.986332924604126
Ge 13.14825887300303 14.010419505749315 9.585288209484846
Ge 10.590686952619107 9.590744346775482 10.84362582834778
Ge 12.87515009849405 9.242809093891932 12.090783487284373
Ge 10.937053470266386 14.063638291225404 16.034512570297807
Ge 14.549484629382931 13.252474493811032 15.142302968263648
Ge 12.796274054795816 15.628129845525814 14.90844810075127
Ge 13.14688879617026 13.58579881770363 17.337443214881223
Ge 13.824199423427359 14.297216823451206 12.906475565203381
Ge 12.078327385183627 11.021707213871098 14.102381494355177
Ge 16.909221698569567 12.071199178946808 9.977381598113515
Ge 10.325083245875074 16.304475751086645 14.378887759758213
Ge 11.280920857316225 12.162353136470609 10.590542961457556
Ge 9.529251621765694 10.941717359327836 12.746665577391271
Ge 13.932460827884631 11.751361043646881 12.282129323515194
Ge 16.303692207439067 14.592527051865895 12.23018425646553
Ge 16.73992911377756 14.618793079744332 14.86114588552938
Ge 8.146552021545997 13.099619461872829 12.467436759242453
Ge 9.724704639590328 12.340454699519075 8.462367927059878
Ge 9.361286783653703 14.122728530465583 10.280949384647968
Ge 16.866960849583045 12.066586064618143 15.769456854268729
Ge 15.207098077447503 10.119681812489329 14.116421576421828
Ge 10.815060338753671 13.278802727518162 13.43233898186514
Ge 16.74532454158638 12.034603175722275 12.697555818348844
Ge 14.457577869927368 11.679972483061452 9.754064937987359
Ge 11.549863970619965 14.938690034687184 11.54106897704733
Ge 8.581286686627726 13.881906492788552 14.871379478836756
Ge 15.717440050383548 14.351730437079409 9.661570293920848
Ge 14.72350203856826 15.593030533087362 16.618659723588703
Ge 11.301165429141825 14.451979533513093 7.910258659164377
Ge 17.800057746359077 10.311795531497543 14.11397107494462
Ge 13.681500379356562 11.071211734782255 16.223204811877046
Ge 9.107580786912376 15.811422205288943 16.542348524566325
