33
Energy = -132.063502 eV
Ge 12.422011449905538 12.220277634764846 8.917208402949354
Ge 10.413257611969458 15.036924438320549 9.749840973490523
Ge 10.392790396805747 13.364124813224276 7.657752721448282
Ge 8.122213334128048 13.00900979855969 8.895429023770273
Ge 14.787199999649669 11.14088916995095 7.672857283331506
Ge 14.717180295197679 12.90239752127217 9.895629798011472
Ge 8.461829284924132 14.312196598762842 11.238705192187993
Ge 16.241197654020347 10.640294564498387 9.829691128703173
Ge 10.756366962066267 12.964107333501579 11.31971481945203
Ge 8.103031459300857 8.338205921269228 8.235446862360627
Ge 10.489460142536908 8.95626820409786 7.066035064120362
Ge 6.804599867687624 10.515573816078001 8.869382176786575
Ge 12.735804443116116 14.995481790035909 11.010148470270858
Ge 9.49893206280809 10.752540471177566 8.738068221874608
Ge 13.720189990892656 10.46955452732597 10.63782440340343
Ge 12.625370358631443 9.65184393702741 8.329726674487942
Ge 11.838065330539866 15.489939817708711 13.979491094593767
Ge 9.773015926241907 14.044128093472553 13.546506889265844
Ge 14.829070250308556 8.608499500998375 8.998048050785247
Ge 12.672992064293725 13.26142251317261 12.977851161979721
Ge 8.657577809803037 7.182938314136185 10.894656202853154
Ge 12.140903497203295 9.550905439487961 12.505575262736139
Ge 10.462861454919096 7.12596213490791 8.99452084339713
Ge 7.728800288665307 9.530913535131294 11.026670949413711
Ge 11.648923461748282 13.117443894219173 15.46738110448608
Ge 10.248067796484635 10.533146535043224 11.167133305072095
Ge 13.33089088477802 11.193578832822524 14.39896112049211
Ge 8.599827032593545 10.412156813724689 13.292051374998303
Ge 9.841940255847911 5.953096861216824 12.868730356384713
Ge 9.066985244081614 12.22732917539267 15.244903923326113
Ge 11.53161094956239 7.262097612947785 11.386327780850127
Ge 10.950299863287043 10.334013811525368 15.091697116234831
Ge 9.991565324931438 8.279101997018381 13.795016218208659
