34
Energy = -123.86428939 eV
Ge 13.055247112544345 13.718189397327894 18.27834807914728
Ge 14.17841236684842 16.386371667133606 17.410025208891774
Ge 16.01111414174374 13.962162082017109 17.790995186774328
Ge 10.346291362985834 17.501954358855112 13.231612597583899
Ge 9.857144232397314 13.572014159502602 15.136356743555758
Ge 12.004077582309904 11.733349975265586 16.24260286014211
Ge 9.28246844152666 9.023904200548724 15.413878025437592
Ge 15.113930547658969 16.53097775652284 14.505082121780289
Ge 9.296897098646141 15.592377511467355 11.102843340526087
Ge 12.61418226091834 15.469393454345342 13.151683653532443
Ge 16.298893889969516 13.713415620941126 14.73245353016295
Ge 11.893757651832539 17.116740771178872 10.685646830020623
Ge 7.564460593584622 11.483142232433233 15.241819574414347
Ge 10.346102498185587 12.865829616806494 12.168898485641549
Ge 13.89260475405231 12.062805118474872 13.821860775511906
Ge 15.59149325312375 9.585867996201419 14.195102066607618
Ge 13.50090105662201 7.575827040575127 13.256947397052368
Ge 17.04790231808943 10.628777992283386 11.737779094404152
Ge 7.386013387885802 12.009005057775642 12.25537763079751
Ge 12.182245304925466 10.722407051974422 9.658655657564447
Ge 11.177040159737492 9.548623963285234 13.028054213664442
Ge 7.484107911939594 7.37719636295661 13.579113852353895
Ge 14.885753635062256 12.280403001121885 10.345815360161582
Ge 9.156865062805494 11.380716309715506 8.751868386848683
Ge 13.22645555437753 7.831184290941347 10.24998128608597
Ge 15.670725782327727 9.42761953108434 9.330785104698405
Ge 9.61658957359643 7.528523687632844 11.364281701665051
Ge 10.593378113334309 13.819178388113272 7.684113359437973
Ge 10.025027271962369 9.214826848791656 6.901984919402101
Ge 7.075811600686851 9.188821798250345 11.168906930031506
Ge 11.324909124927114 13.402006077708178 4.786313331539836
Ge 11.077691605398892 10.423147003514893 4.378836770102572
Ge 13.414485268276815 12.838763553022183 6.9997831301927596
Ge 13.096913879091915 9.792888552102228 6.640822551116354
