38
Energy = -151.45529413 eV
Ge 12.891493556374652 17.372205119355858 20.165518018136254
Ge 13.877811513556551 15.648033750962984 15.859887712098772
Ge 15.730965559883154 18.40890523406604 20.222346043361476
Ge 13.50507098731845 20.51145915612895 14.285033493804574
Ge 14.28197786448501 15.158836056456868 11.838801328862486
Ge 15.15556662456677 21.001210148685285 19.147359640395408
Ge 14.934263530280077 12.864675499365662 15.027124812975726
Ge 15.562843642074029 14.573031955665684 18.116578031024318
Ge 16.54752979616471 13.45042495340179 12.178695029013177
Ge 17.372184642307232 13.02369526900508 14.607939073599933
Ge 19.93356857927407 19.62435047371259 18.89793340060287
Ge 15.414306565976366 18.66072246289847 14.82977221472684
Ge 17.65396386671684 16.165095742136465 19.85407363954539
Ge 12.758785576984568 19.593151087175066 18.524105839230042
Ge 13.54797518017452 13.32591426383563 17.08156929493004
Ge 18.865880975320255 13.173226758027488 16.70226087447486
Ge 15.105844773434969 15.703552436160312 20.39532176293255
Ge 14.136705245570974 20.850529143177297 16.771364698309934
Ge 14.155836128350003 12.684723595683513 12.536050998024232
Ge 13.480644175211534 19.888733654765957 -3.1694651949976915
Ge 15.952613494372136 20.838654815636332 13.445312258436518
Ge 18.59463294617431 18.39385706401621 20.565771031132144
Ge 14.294094833569313 17.02938283964436 18.023476745123794
Ge 18.256706007947404 18.073506285764264 17.946835345312333
Ge 17.864216106070135 15.50437015546293 17.181918523046406
Ge 17.77442680512828 17.629345854139533 10.962272812674103
Ge 16.47454036214144 15.393158574994771 10.55934300372831
Ge 18.59782386046183 11.385625680444555 18.47354029428624
Ge 15.874017939570177 18.962067525633262 17.52407409713031
Ge 20.682890469872195 12.075213955076666 19.801713019700735
Ge 12.760957184580889 18.04088013379052 14.7606913364517
Ge 16.35740270528576 15.3965285593292 15.114623183525527
Ge 19.493055137781955 10.281905938685618 16.191815742478425
Ge 15.732789562677818 19.039283950268924 11.653959972643378
Ge 21.109099942734197 12.174765980188285 17.257846790551113
Ge 13.823183440832405 17.54966232587532 12.4747007601737
Ge 20.703270971421528 9.815045173922757 18.347367947925193
Ge 16.35871854834184 16.682065455955378 12.93062436030021
