34
Energy = -135.35681046 eV
Ge 9.65727965700159 10.999031071412288 15.615281058528687
Ge 17.22811042041049 15.083741511315917 15.54797272352993
Ge 20.43435583036935 12.53468539293707 13.54026338833069
Ge 10.876528219739095 11.560136582031438 10.781109109733597
Ge 14.687817173597344 13.661359017707122 10.985099200163809
Ge 14.157221387115323 15.29812160024784 15.191636147436931
Ge 13.965971507745211 15.620226060237728 9.467161808103087
Ge 12.676413578166244 12.86394265309114 14.569422485897707
Ge 18.423192703043643 13.605195677770462 12.142049287739141
Ge 12.376948662991497 12.689621247583657 17.10909576349716
Ge 13.410048659373551 11.231982805117818 10.38478083439044
Ge 11.596689362331254 14.298775708814386 9.906846997887754
Ge 12.300864639288402 17.032172137771116 15.851680300949141
Ge 14.472460896883094 16.73268907657948 11.804971209895765
Ge 11.04107210605249 11.269883994745207 13.428820035454718
Ge 11.940010728002672 17.124461695118065 10.417012454319613
Ge 16.153913293418658 14.695987121121078 13.219480518810775
Ge 15.506172749283776 13.953647750044698 17.112164179603173
Ge 10.989693453539509 14.796567350169918 15.907375858152157
Ge 9.954276760022823 13.65577220455894 13.902047432369079
Ge 11.481916209246767 9.237145900282353 9.811306511771683
Ge 12.207068140940924 16.936612286192062 13.127189292995526
Ge 14.17902249518383 8.688478045112879 10.170281091378268
Ge 18.205490844404434 12.867830605783253 14.660888611389192
Ge 7.970726591119526 12.89284459799266 15.340630713156719
Ge 12.719763113891768 9.402203728695733 12.159483790402126
Ge 13.310511407834877 15.06974669105846 17.80155634618793
Ge 10.712378989665494 10.971362864091478 17.97657934140675
Ge 20.59021456072148 13.224343803331667 11.159242896832389
Ge 9.561999137838365 13.194889136781962 17.378416692359888
Ge 10.404088436666067 15.41504780880694 11.930512611317114
Ge 12.81357529273575 14.47938701718122 12.443420601985473
Ge 13.249021668673636 10.05405941026427 8.1219581917422
Ge 15.696149916162955 12.650650668175857 14.88246514917327
