32
Energy = -113.94486908 eV
Ge 10.753164700278214 15.726202753292434 15.499877987662853
Ge 10.3380618468064 11.338578720892261 11.229918281769892
Ge 9.72255671539178 16.443355186713013 11.558344825531934
Ge 12.06300982358738 9.510277487689445 9.500288490738
Ge 7.753833306477138 7.89892197159034 10.453179748439213
Ge 9.563497743829457 5.78995478823304 11.667850577902657
Ge 7.439520585012347 16.828111223548564 13.524392902392785
Ge 18.294619876274076 14.004619710082236 14.287087036053817
Ge 13.126522644776214 12.557942240839463 8.561611386007888
Ge 9.71925789021276 13.38848597628785 9.041257611058954
Ge 15.830375761839733 9.599026550840891 11.18700231847334
Ge 17.037977738195348 15.19694317290134 16.780246707139238
Ge 7.897240862066763 12.57557087953646 14.07346240111325
Ge 7.778748223924384 15.019197747913747 15.93491234130488
Ge 14.521029864396935 9.481889778998443 13.907636773154794
Ge 12.257811268606766 14.218922065611613 17.673673847414815
Ge 18.312907180681933 16.983951393238694 14.662271732388538
Ge 12.588840471448309 15.23242801817534 11.494572379204062
Ge 10.873326136575086 12.747481226385231 15.145107943785781
Ge 8.394328213302503 11.421332910217846 7.367300704649566
Ge 14.027098002620898 16.494901395853823 13.896816215670096
Ge 15.731187847136628 12.539502160621211 7.304824597308521
Ge 11.954802163301775 7.676619282633554 11.976431617775248
Ge 9.504974254863301 8.705414222116373 8.088617561419484
Ge 12.771371305091227 12.494572692538153 12.704677989143022
Ge 17.467851343191466 10.177576063590037 13.669890493307989
Ge 16.55420114926817 7.326815054032601 13.25633325482734
Ge 16.591440722703865 15.76436087388625 12.422931033038068
Ge 7.493390703343279 14.38469821280182 11.613116937124264
Ge 15.595221391547128 12.84368917643409 10.29479169399295
Ge 9.19603590928731 8.477599057280473 13.054802426103253
Ge 14.469906543034792 14.020716546419527 15.576413348493553
