33
Energy = -117.98769258 eV
Ge 16.939507173445044 11.565384155991287 14.538881050261837
Ge 16.72759952341443 14.114463113971045 16.208772135368363
Ge 16.394054857563503 15.971535193990992 14.03607222689473
Ge 15.5642499957438 13.250202139937361 8.561335979749748
Ge 17.379584187602063 10.837988223533888 8.135411210038757
Ge 16.001761753970534 12.067333757483592 5.7924700572071455
Ge 14.944751155015265 12.781162182183595 12.551853770052016
Ge 14.635239488688383 9.707786962820265 12.057103745043166
Ge 13.669175240012278 11.023100684508309 7.718066779137609
Ge 13.681270549309403 16.556019556487993 18.06044299999467
Ge 15.565866774347494 17.979981876026336 16.164471709627573
Ge 14.00896249412303 11.581087410663338 15.300755722657575
Ge 14.134135576476961 16.81322186528574 11.211704626374763
Ge 13.849544668596403 13.497062682074455 17.83367914328484
Ge 15.228210250714794 8.789844710421178 9.18335019147446
Ge 12.5763919904395 17.935510829860835 15.589011988793802
Ge 12.112454783312852 8.766067854103108 10.5176397832013
Ge 12.54162427583114 15.20635031039564 9.137512483322464
Ge 12.063579476788084 8.725062008165787 14.42255708903589
Ge 10.712798887690994 6.965618757212705 12.5731519973104
Ge 12.46473441809356 15.710346007247155 13.534811051366633
Ge 13.272535914666314 7.400260167348921 16.80190661166357
Ge 11.525014430264156 17.924195257554395 9.997472093987787
Ge 11.440399948484133 13.111311153392519 11.043707407294049
Ge 10.744993907795223 11.016581553836115 8.97941772287048
Ge 10.792080078313054 12.880016906641352 14.579652812853974
Ge 10.792178851209945 13.76095797938145 17.453137718312274
Ge 10.199846492977905 17.612884575430872 12.712606265394275
Ge 10.230194337112744 10.77234281774219 16.830594156705192
Ge 12.824293201421865 9.94162401025912 18.131614338581805
Ge 8.400681876152387 13.384142068558582 10.88748592332287
Ge 7.8388254511940785 13.366378774847052 13.889052188982586
Ge 7.692133988222502 15.958492860967198 12.330834343095447
