33
Energy = -132.21374222 eV
Ge 14.629628020561665 11.861455783893637 15.183161731323315
Ge 16.330517810279957 11.608260334961459 13.220227735295326
Ge 12.821006638722244 13.898074024278726 14.349213420974342
Ge 15.866780167160721 13.975818261936627 12.283573280870744
Ge 13.841013986228319 12.254846482620342 12.629349840417001
Ge 14.118354991120427 8.107095713846885 13.068558430392839
Ge 13.217473703531954 9.615627867319745 15.036603078825687
Ge 11.90799605701871 7.1744378909958995 9.307963056225589
Ge 14.770628714459214 10.622951904973775 9.106660146031487
Ge 15.118904015703388 10.020575286023131 11.574772142137608
Ge 13.328349956846298 15.053531628544397 9.732233299806676
Ge 10.517437391467887 12.8861537395371 13.798046744033693
Ge 14.927915250662725 12.982120812196262 10.168062431397539
Ge 12.356097980791626 9.95517968447815 12.509211526157397
Ge 11.945603562708854 7.327305942595621 11.85899593871504
Ge 12.412764566050551 10.833702291950765 10.062335889420195
Ge 10.72200469288921 10.321812437698505 14.534920275683838
Ge 11.452702124359407 13.272241785186129 10.300361333630645
Ge 12.38805844839388 15.269633162334175 12.149119241659363
Ge 9.889939632668632 8.46729376407224 12.895350939207049
Ge 10.402393585872588 9.0669918301764 9.965825631128808
Ge 11.175870750281982 14.69229625506253 8.066513914067578
Ge 9.182841358464206 12.817447935431613 11.442359536248652
Ge 8.289809235939925 14.041407388494601 13.554250545785672
Ge 11.107159396058764 17.48163799973808 12.13687194228593
Ge 9.253545951308718 6.618575881824408 9.331501164221894
Ge 9.33514391741431 15.71933201596319 11.90507729834025
Ge 10.924280807702418 16.606045851418568 9.735083682006762
Ge 7.899449177710776 8.811012006836311 9.03578129779163
Ge 8.887859283246689 14.579277750077507 9.532155925669247
Ge 8.649878083762223 10.27498687329429 11.498893162656652
Ge 6.293179028628338 9.30615082832013 10.897541755870154
Ge 7.882764302201071 7.341217340953632 11.425239134581584
