32
Energy = -111.88651794 eV
Ge 12.63134781623767 6.84259215770263 14.620951232242847
Ge 11.612326993634559 11.385920891088366 9.822833261253253
Ge 16.070163847377618 12.331936138800899 16.28805355391966
Ge 8.699898897359239 15.178944319624932 8.698319891800116
Ge 18.965462077859062 17.452117105825817 12.29519042328924
Ge 11.565938148784783 15.73911261513571 9.463524449495543
Ge 17.298809967220805 15.113826649982983 16.342956788943948
Ge 12.412640184635917 8.843709782887837 12.315355540282207
Ge 14.87445340577235 9.830695684107166 14.03547299121436
Ge 12.49861958786594 12.298980059035141 12.782428044970843
Ge 16.178673688224144 11.07736656053884 11.568403212902517
Ge 11.365541317975781 9.012373805414814 16.32158760532852
Ge 5.918602042549882 10.258195199462874 13.559229216693737
Ge 13.096125273055641 17.98477577371958 8.254518495693237
Ge 8.725724264237781 9.017227184725595 13.464022158288193
Ge 14.927549534221452 16.44924628435109 14.890610503590569
Ge 13.56774187572106 13.723169931584017 15.555898540644575
Ge 7.720236845135141 12.439068002135045 12.496903042566762
Ge 16.916565345088554 8.238757332008651 12.372166087163524
Ge 9.644706047490535 15.135835524509666 18.4899156925296
Ge 13.221968890683275 13.463691901656468 8.39421307270766
Ge 14.991950068340131 14.461329462906857 10.771871563134082
Ge 12.61082568957717 15.371187104030358 12.480792728034247
Ge 14.871670298970805 17.559165337133262 10.63873568301553
Ge 17.70089027367644 18.413511319690908 9.95805236217699
Ge 10.054693127698728 11.63299722233843 14.57847452865206
Ge 7.235354975361699 9.988437515028592 10.846547968840591
Ge 10.381151314985017 14.804707789335309 15.907601731587274
Ge 9.708753087808189 6.73507849162262 15.433847071333382
Ge 8.868429761126173 12.332814527214174 8.881101880620477
Ge 14.753050962287285 8.711057448561277 10.283920231715248
Ge 17.209232000166843 15.156325263017498 13.314424023884234
