35
Energy = -140.84729516 eV
Ge 5.9655245654482485 12.815376778105547 11.351103741970222
Ge 7.756244280777058 10.358644191918119 13.89192548250403
Ge 9.239775369212234 13.06272405303327 13.556589578630112
Ge 10.58281352120492 14.427570025524913 9.39760332628897
Ge 8.269298990576688 14.156028135580005 11.354495155012803
Ge 16.410518907113683 13.10440941492724 10.774108991539489
Ge 14.791278914882184 13.896176617403516 16.973113701488895
Ge 8.423867417600762 11.534971552427317 11.19933749921723
Ge 15.400318442944178 9.012343714748699 9.212450277917702
Ge 14.656095676585917 15.304607233717688 10.696334497597165
Ge 13.687493523890048 7.0281553762402895 9.587129398435788
Ge 12.220971833786917 14.556977713045642 11.295782844762874
Ge 17.316603044769888 8.588974499016519 10.813240696691839
Ge 12.481643444877587 10.691855796868845 14.783292951700998
Ge 15.032737520105538 7.563140617594361 11.676214057697582
Ge 15.978112573815459 10.552571409203754 11.713282181854085
Ge 12.373286849465783 8.488414025312945 11.24945146797233
Ge 6.779560422487799 14.170169824220038 13.63647708828074
Ge 14.50850684853036 11.394110976136904 9.544115777706953
Ge 12.488936841011496 12.7425807025528 8.070230504096875
Ge 7.5345390555319725 12.421858539966006 15.47647750286485
Ge 6.3126869495616695 10.167630448025259 11.73975594203492
Ge 12.110177317131209 10.835054464206932 10.275181160976382
Ge 14.181974117956448 14.871872327993435 14.713777572668393
Ge 11.674651352698755 14.147913973287482 13.791035147159294
Ge 14.981677740272353 12.120809499575971 15.15586937190228
Ge 10.210291192952369 10.614861095412822 13.070585801095342
Ge 13.964320564244826 9.588367734033255 13.01176432208864
Ge 5.467878937991965 11.785250353447429 13.797223098883435
Ge 14.819383852090652 13.245485858769168 12.798929219103291
Ge 12.497569958601972 13.020793853130977 16.05131559866359
Ge 15.209888975034701 13.600260671522024 8.376369754898654
Ge 12.617008270032825 12.03971434752896 12.422906282735102
Ge 13.102356354410288 15.257994308395022 8.530892166107645
Ge 10.106644704300948 11.825359727464864 9.040713985321409
