38
Energy = -152.93006984 eV
Ge 8.48565811228082 10.617986778608381 5.632556235489666
Ge 9.542340705341505 7.969209327643204 6.171763042670021
Ge 11.593205633011515 9.313646126526795 7.338624871981388
Ge 8.310110054927717 13.301838400639621 5.913514419997041
Ge 10.47099564674148 11.858734491595133 6.881455620200842
Ge 9.967158773005888 14.704296314527156 7.494237567695947
Ge 10.217064387176984 5.416462445460174 7.075034608925541
Ge 12.446197115634645 13.366659882441594 7.781556419540785
Ge 6.962195819581832 8.465227626956585 6.910763457502015
Ge 6.630891195544999 11.685361585839312 7.365281156103766
Ge 9.14463371318061 9.65313212417457 8.262433844410602
Ge 12.302093452395168 9.827500593512655 9.82845225885217
Ge 12.002699966547702 6.932436181643308 8.620904562431623
Ge 8.091375620636336 6.5745066270652535 8.232576661163394
Ge 7.192364149111685 14.26685333305407 8.187095452088737
Ge 10.327930814373461 12.405209522458707 9.465151197441083
Ge 11.4612086319095 14.87561572154863 9.74115551963917
Ge 6.90481926429876 9.798797075399222 9.447051070497048
Ge 8.755426008158016 4.043460542861355 9.020604235219624
Ge 10.050511672674327 7.175840346806883 10.342512728955002
Ge 11.444729989095231 4.171416083390342 9.143430874762752
Ge 8.886875301678508 14.637265506972678 10.24660584096651
Ge 6.725971578819807 12.455207342557307 9.994032160968256
Ge 12.306432799734415 5.61413153982946 11.175236500704953
Ge 7.7121904868311315 6.072538338024763 10.765327847602466
Ge 12.887614075972081 12.316800768552094 10.287530174564049
Ge 13.889416245149295 7.813851361106726 10.32670359289137
Ge 7.893443289163689 8.934618214457368 12.311768296939794
Ge 10.573859246965467 9.342662931204734 11.768821946619823
Ge 9.788910046888203 4.668836246297136 11.451461382641257
Ge 8.672545605997007 11.332563507925478 11.48717930640128
Ge 9.527376486801833 9.119337423140449 14.405875202272652
Ge 12.796990134676655 7.604489055553677 12.689517167082426
Ge 11.360336036668771 12.026924114146397 12.473363393104146
Ge 12.02686126057836 10.01773599314822 13.936538052564142
Ge 7.746405049689777 11.197318451794358 14.06580699305518
Ge 10.158415610364752 11.616298199207424 15.119847221988104
Ge 9.219645906831282 13.282129762368925 13.11512900250512
