37
Energy = -149.27464298 eV
Ge 19.201880431686863 17.83224970524517 16.783628161523083
Ge 20.206525374261894 16.800951591929458 12.887870351179052
Ge 14.27041008644282 17.460990873830433 14.452464772315796
Ge 17.056252831638535 11.673363157923099 20.801854503346917
Ge 16.76431099509414 17.761751386199656 13.707631234312604
Ge 20.49314053243758 20.190808873427052 15.964569296486882
Ge 12.774305771809106 19.09148074083399 15.869951855905974
Ge 15.080236331458583 11.208479883607025 18.54374926440087
Ge 13.421129530183313 15.253451080991942 18.562024561915365
Ge -2.5538747617965143 19.782113161788473 19.960728689210292
Ge 10.505591842592333 16.756169347060446 12.878728406409667
Ge 17.598961356574943 15.821758351186054 19.460145956955483
Ge 17.086440588841 14.26503353617154 21.521935626839383
Ge 19.073707118431454 20.089980644654275 18.15821942992253
Ge 12.166510636287525 18.7924600695632 13.274766713652618
Ge 16.43108055809056 18.691166763518073 11.321906703865386
Ge 18.111863416962123 14.12123217511016 17.33693906417127
Ge 15.722325110209015 15.654228777250646 17.461923577837545
Ge 16.128543518043337 11.904050058720971 16.141115265273697
Ge 18.469172890353917 16.16627233625086 14.748378186154472
Ge 19.012040203694056 13.39914656180141 19.827568627758136
Ge 19.095072784742044 19.03390445172915 11.375679372577169
Ge -1.8304607049185166 18.708376876855336 17.746768883364734
Ge 16.116096657962885 14.433070479526922 15.186822520902085
Ge -3.803154176338921 17.60685806688265 19.275181574215704
Ge 11.715629324450864 14.433816638184362 12.669743135015404
Ge 17.355800990785113 20.327905473683803 13.162528616378397
Ge 15.93781412699641 13.532990047806864 19.184603426136427
Ge 13.273770331583137 16.603584091380288 12.18607660165703
Ge 10.74043889091292 15.10825472367765 15.14834248451678
Ge 17.977650791086013 16.53757705786371 11.472354828235447
Ge 10.464282141603299 17.78878927360154 15.333318252789482
Ge 19.374924668509117 18.922661478899887 14.057301921972797
Ge 13.47861679016566 14.926176999028028 14.507226509144655
Ge 12.574114980615995 16.49244426147912 16.429116445202546
Ge 17.817223053301113 11.464058977978375 18.210199579274388
Ge 13.927295780491182 13.339731907310119 16.892761201255567
