34
Energy = -121.23133228 eV
Ge 9.74732961897206 10.271807148708913 10.033360459953249
Ge 10.43165244189735 10.666901568742565 7.110308241983926
Ge 19.47185884702704 11.837381251644063 14.155490514247747
Ge 18.289235821656018 13.804475889201392 12.173259049704116
Ge 11.282937619013092 12.617902884546234 16.388112263713897
Ge 9.936185636360424 14.161674184944005 12.993834287306052
Ge 9.733891102000296 10.321632005369606 17.703285825763324
Ge 12.627273624276684 14.249764960917831 19.108478905084883
Ge 7.36798985078211 12.821883207588742 12.083038842797102
Ge 12.538650970240043 16.30627146856134 17.059051827821392
Ge 15.77125103990829 14.224701599135114 8.23116261656611
Ge 11.01739610573711 9.820784819289534 14.94999424841113
Ge 12.90353616990446 12.354563092147647 7.797901558268898
Ge 14.237702105921532 12.47967970286361 17.308326863725654
Ge 15.257115051268041 16.816846382251786 7.077146316640441
Ge 12.639712805149042 16.574085677684614 10.772930206295733
Ge 7.332856598066569 14.495625217200127 14.589991412638199
Ge 10.267026803771161 13.119420073015478 9.080562327479527
Ge 15.376953944411209 10.874305435244018 14.140730898166439
Ge 13.815429068398386 15.037496271824578 14.69895439097281
Ge 12.998209478219579 11.944450587401755 12.487523674496407
Ge 14.479747091556764 9.737731984647711 18.579679446087443
Ge 11.818872275861548 8.396316992213599 18.811759408506777
Ge 13.665044343595037 17.789663329221582 13.412831381601473
Ge 8.116388778911256 11.56587449648059 14.764805226968624
Ge 9.696884395844451 16.03731453586954 10.583435757821778
Ge 12.296224258571787 9.203377723642308 11.314320204003947
Ge 17.60474156586639 10.829611795508614 11.977001589485498
Ge 13.410564513199493 8.168692928453755 16.23800711557314
Ge 16.90937826388574 13.420732022019509 14.958548148379476
Ge 14.437960135979035 18.62666223586292 9.274591052956092
Ge 14.4193515220614 10.867258416516684 9.973357826508769
Ge 15.113291307990309 14.651258607315594 11.173941931993559
Ge 16.126531071004926 17.539291434698743 11.576656010610444
