35
Energy = -139.77869735 eV
Ge 15.374629377551347 17.53588050020071 13.94587493548291
Ge 12.195508861220205 15.095649521994021 11.077345455128548
Ge 14.06030550315935 7.570149801136757 14.943234565656455
Ge 13.421277087050997 15.216636192691125 14.686136893044925
Ge 12.49078552848245 9.5046856308784 10.839173347183484
Ge 13.198991245979105 9.971687516588268 15.76047877582675
Ge 15.832053942485908 9.65355472947295 11.705276530928504
Ge 16.183411641665508 8.891368711506328 14.098741088756581
Ge 16.612538600923266 11.5198363493481 10.25301832407176
Ge 13.830884666992064 11.548690054788725 9.691056198401089
Ge 14.992925595073393 11.135755387392056 14.469949969553904
Ge 16.717151648766915 13.645098093489532 11.61276471903162
Ge 11.138046948077143 13.724847925201242 14.419074909896278
Ge 9.719541659223774 15.138389751760956 10.483320791926445
Ge 11.158242752380545 18.272270238014524 13.400805135941875
Ge 10.825403002340531 17.527762445515947 10.946005181121668
Ge 13.318656555600006 12.910439589505742 11.780548691639916
Ge 13.527801050889481 9.273429944667203 13.20368828036535
Ge 11.163839661532178 11.769987499675029 12.62090612179561
Ge 8.366163154914641 14.004894590434365 15.034641116178749
Ge 17.165622802120993 15.983870330911687 13.062008046684914
Ge 15.534362680848895 10.794008441918749 8.021074941117288
Ge 9.118581546458946 13.185777243238821 12.362231569296439
Ge 10.954715399950487 11.058070122057892 15.194315984688723
Ge 9.164425545512897 10.19961317988785 13.371580158074474
Ge 15.082765710095583 13.499975800280595 13.544902176251426
Ge 10.17840949300242 13.123967802511787 16.7312270298333
Ge 10.195387829669038 15.88090329490322 13.024198929266484
Ge 13.119492587712841 16.82999600806227 12.700150090420971
Ge 18.470504537593474 15.24973165529136 11.156969073529408
Ge 16.344389764038183 15.159114022176269 15.34343739023922
Ge 7.200930084219184 12.025961744807871 13.608081934015074
Ge 14.686932686758105 16.80208617033048 16.304391607020257
Ge 8.404977764256165 11.320238278343536 15.882597284929597
Ge 14.671658985857595 8.885913513070513 9.616872860527506
