34
Energy = -136.6497212 eV
Ge 13.275684402355296 14.964089736170502 10.942661020726526
Ge 18.20439712645455 16.98258467772873 11.648957935529422
Ge 18.689757715765406 14.632761448969852 12.208377728850895
Ge 10.950489148283657 11.615458078479994 8.817475712162047
Ge 12.819128782173111 10.461769635307405 10.205162713988527
Ge 15.836556094579127 14.343099242180452 12.8102638935957
Ge 14.049122690029842 10.483844005060025 16.16347848680602
Ge 9.806020650240578 16.00018180505473 16.29488784202129
Ge 13.126366367992818 13.146195062107276 9.004699430839079
Ge 18.90908378780068 15.751334288730678 9.539173246359146
Ge 10.781276407035644 14.296728349254561 9.518322867873167
Ge 13.891820131242866 12.455911908901577 11.61392204385789
Ge 12.043536077371972 12.948040976069205 18.759403914567603
Ge 14.770414881220768 12.347802227647465 18.276786617138224
Ge 15.987910526310284 11.261919743521911 12.975913951633617
Ge 19.10767543101187 13.203704735558857 10.14594060622389
Ge 16.820092036881196 12.18614391377205 10.734736012782431
Ge 12.634542854696935 12.105250054624015 14.648253341818883
Ge 14.994806142955596 11.36217075072969 9.118105307237602
Ge 8.60941584320172 13.31446711216791 15.78819037483797
Ge 9.687974331593958 14.743465653558728 13.90083579167519
Ge 17.2256267707585 12.948576254126902 14.46070055650913
Ge 16.651241752192632 14.78204203639864 10.251146917802426
Ge 11.56681846687596 11.173087773869064 12.421360788489803
Ge 11.275857474829573 13.867321676318044 12.1105593037736
Ge 7.5793377349491475 15.679509889388 14.663109944754973
Ge 12.928313491587312 10.447366767815272 18.58434720870894
Ge 11.321384371545493 13.780980174764265 16.40294602988335
Ge 13.71821934951257 14.70167880943571 17.541109314094406
Ge 7.474719018742483 15.190712389895632 17.118361423940517
Ge 14.997116080636419 12.973921030901108 15.764506153423286
Ge 11.247042536781274 11.095759502070957 16.642315622926372
Ge 9.571148595421063 12.25618988614501 10.919711797782226
Ge 13.245165101931452 14.751891424129958 14.831230505558247
