39
Energy = -155.01230429 eV
Ge 15.001008842607899 15.334173482262155 12.819630240112255
Ge 20.818194433517444 22.496422203704768 20.24463998446779
Ge 14.610365080370276 15.727509686019078 15.663470554085658
Ge 12.074517524421351 16.49196521343022 16.160148138038515
Ge 18.065112360064454 10.73357540960577 19.8627781693121
Ge 14.652625184962341 19.18524491700999 18.59469622795022
Ge 16.663223215809584 10.876097002884297 16.098743849413385
Ge 22.644554932121892 20.69106759886725 21.384700598527605
Ge 14.80058048141508 11.769569715460863 14.599942015991733
Ge 16.95561354880747 13.727004836213784 17.34975888500348
Ge 14.303634238966682 12.518491110670963 17.14034308428266
Ge 21.254302675698543 19.384398507343942 14.49869406999308
Ge 18.50182135654722 19.229487208021826 17.889238582386447
Ge 17.537379119736276 17.259582540594167 12.97694686603933
Ge 20.267636914975178 20.64521963435796 16.53214646420456
Ge 14.746827800876877 14.897834340362818 18.066861310668365
Ge 15.996995960206014 11.380669842586704 18.673753234591903
Ge 18.72479452313543 11.761141380395788 17.501295243746323
Ge 12.673077190338418 18.515090819004595 20.556832080144208
Ge 13.082446669705796 18.88113213436785 16.435423179343964
Ge 16.105391099929328 17.704739533968244 15.09720506238242
Ge 22.230899899053377 18.451989496459024 19.828438098842994
Ge 13.313177824258192 17.105415392371796 13.780113506626082
Ge 17.481757981630697 14.678750777068192 12.682435206943087
Ge 18.73795426417419 18.999186014676827 14.609093516072212
Ge 15.261111305758561 18.37993045534915 12.523331291867734
Ge 16.344060748816457 13.83274386080853 14.797701089213504
Ge 19.992154431087243 19.931105995581504 20.04615263864345
Ge 16.92865273628067 20.174062974366038 16.077178104599994
Ge 11.925514584120208 19.94534998521196 18.425167191103373
Ge 17.3861287264383 9.234618109096887 17.815523448405763
Ge 22.08707550864256 20.84676588641428 18.680906118335958
Ge 20.97085246986905 18.640109078469028 -2.545411709578569
Ge 20.18864460179266 21.130228610205663 -2.294624283778738
Ge 14.727901015365168 19.957795010532884 14.653328116596875
Ge 13.053791025389751 17.096363401559472 18.576148162433892
Ge 22.502823563653607 18.78274682491815 16.881269934964845
Ge 20.15319503602704 17.823461527076894 16.520250243993356
Ge 13.601664701464186 20.971504129975255 20.02774877093089
