36
Energy = -144.00908765 eV
Ge 16.575900708345067 16.730152955932162 16.53664912170257
Ge 14.37618700833321 15.966020442885199 7.731110757187174
Ge 12.524053157130691 10.152458885940463 8.9729257371029
Ge 12.971940621298254 12.118106794476937 13.82736601782118
Ge 15.723285030877955 17.879483933488977 14.023309849300292
Ge 9.104003998051116 16.144475480332982 13.9180505403432
Ge 18.267789995334322 17.427846635290344 14.655345400375166
Ge 12.924902063585256 12.639441422878154 10.186116977365034
Ge 12.837123922443846 7.671807279519637 13.01263764875019
Ge 14.575448285481075 8.244978643383863 14.743636504219038
Ge 8.853075420530509 11.129254853573986 14.902896008671823
Ge 13.175134120030874 14.663500523372253 13.235038462862606
Ge 11.342969094762726 11.059267775699968 15.722359894610523
Ge 8.407034475497735 8.990349183574113 13.330113426368623
Ge 15.773783452324901 14.203333008738628 8.974815995622146
Ge 16.726614641427325 15.289421301588616 14.088292422666482
Ge 11.058837727252165 12.95501137052576 12.230293851895242
Ge 10.922907119660778 15.548204426249624 12.109908050697824
Ge 10.653835421017982 10.932149154810725 10.645746867600216
Ge 15.260331104172428 12.287554941949002 11.173215890787477
Ge 14.361832623904407 18.276537175336813 16.38621769902773
Ge 8.916758807704301 13.512735889300693 13.432693083136954
Ge 12.910899168097846 13.737295611329342 15.899984014042326
Ge 14.411284191473083 15.890150454663685 15.25676579783233
Ge 16.748790564420798 19.289507151788445 16.00796761232962
Ge 10.297083485007716 7.2966823103175456 13.842085882150547
Ge 14.66795722712546 10.288498507173228 13.075961880219383
Ge 10.771072635566862 14.728290215642252 14.957545102172892
Ge 14.932534094177838 11.527209174527298 8.652107648428837
Ge 12.959603251329371 9.562786030426041 11.356090798870143
Ge 13.400910723193602 13.54687177938062 7.744999722541188
Ge 15.31622066570779 14.884751271961921 11.609966072245657
Ge 12.11550709033106 8.619441986193173 15.606571487384286
Ge 13.373557848076755 15.490598348057478 9.985929916739138
Ge 9.391685680019394 8.607870467345698 15.961085859927442
Ge 10.83669543008304 9.939901332803782 13.31991332603364
