31
Energy = -123.57999423 eV
Ge 12.927846181508174 10.32221851967643 16.397481642857553
Ge 14.568016385513495 9.421505762630735 14.699330518355639
Ge 7.151741131955066 10.047666188650306 11.038518647145914
Ge 11.220696101631257 11.464181405789063 12.507323496582728
Ge 15.23744592955514 7.758852006760621 12.791701658701392
Ge 7.802767811259033 12.720356142433907 10.450054091979199
Ge 8.025757727349554 10.647871145043865 8.664602896121085
Ge 11.503906940200164 9.51664568791354 14.372247340452178
Ge 7.583845136615059 14.608192603875029 13.803745608575342
Ge 12.702805941160532 7.5816686591568345 13.071457700334895
Ge 9.75718189970431 9.862176188034853 11.111578181525445
Ge 11.287030308567424 7.80039092628589 10.933355045065758
Ge 13.142805230018416 11.830271990760174 14.349743506121742
Ge 14.909261877827664 10.923135543987911 12.57687031608085
Ge 6.6484875531442285 12.329550022002515 12.78299389588349
Ge 13.808349571085722 9.219716690370856 11.171488275321149
Ge 9.289682776794082 13.088529934934778 12.612822285679401
Ge 8.699507847533555 13.29799513385062 8.045266886564022
Ge 10.07567919097013 14.053459102283911 10.150035577110678
Ge 13.25518342293779 9.090641408310518 8.739562988350615
Ge 9.050067638210542 15.728827736645586 11.92247553095194
Ge 9.949768778513308 11.329663750925935 6.873789251632682
Ge 6.471538670151614 14.754735830468636 11.391621341264084
Ge 16.333219360742003 12.896263409405037 12.08713382964039
Ge 14.552127297733797 13.970750006184536 13.636836391514175
Ge 12.167995630702178 12.571623612863972 10.411189666959295
Ge 10.588062708525154 9.544851270238846 8.696067360915885
Ge 11.506567129618848 7.1667515110157165 8.439250059891771
Ge 15.922509651207628 13.477894304003279 9.639996750244908
Ge 14.065351413094675 14.08010728725875 11.125233725432675
Ge 12.351541024845094 11.461109554430434 8.135290139524917
