34
Energy = -136.66350496 eV
Ge 11.392336956170132 10.910723173493103 15.590347376531168
Ge 14.458371528904635 13.034099407090217 13.526882404909967
Ge 9.61822696535022 12.539178444129258 7.337582903648538
Ge 13.667699122745141 13.264237177139886 8.328808268748624
Ge 14.955731144218678 11.26626971103134 17.59477542616724
Ge 11.989760748015174 11.328123372848427 7.371702371323165
Ge 16.753405727445564 13.934374080784195 14.322932102684295
Ge 15.234715763021041 9.032666000766552 14.531680073376839
Ge 9.83270699908573 15.22221127111063 6.881440277401684
Ge 16.856997495508168 11.329619669920266 14.542142264694725
Ge 8.140533231172487 11.108039849065426 9.196627311363073
Ge 12.949868435659996 12.949553225556548 18.064764082018876
Ge 14.977555640215686 13.572683195695395 16.272079045648432
Ge 11.977366001635561 13.804452723831867 6.341155530479579
Ge 11.305142680711276 14.777643849365855 18.427248840700763
Ge 9.802596650636888 10.5898974459076 11.282074450349725
Ge 8.253122236487801 12.72820598086561 11.101818540776048
Ge 13.933018811350776 11.171730921943727 15.27695325937493
Ge 12.246965835581387 15.687237194438316 8.245948317069946
Ge 13.816756715890905 11.71807127997861 11.37446308268674
Ge 12.244133585729612 14.211630579922371 10.397684960653404
Ge 11.893293143151505 10.985279700661637 12.920941626807611
Ge 15.44987973276027 9.679176471315284 11.745662858966028
Ge 10.887241627761679 14.798809319841581 12.492219861868904
Ge 9.817021828871377 12.587562472789376 13.443060462309923
Ge 12.478214148555805 14.48964714316526 14.32132871554012
Ge 13.33670893979502 8.81868458380945 12.770206249653459
Ge 9.860687371724012 14.513770385910432 9.29215089737676
Ge 17.264778276006506 12.465849813088138 16.82897252960793
Ge 13.153739931931273 15.407780685757047 16.67562511476773
Ge 17.499781159041294 9.279059651245358 13.245916361805522
Ge 10.990972012186752 13.4793226861622 16.171980278873228
Ge 11.092745190175696 12.050042201827475 9.633348629185749
Ge 8.570713292185644 15.227550603692059 11.421063043038881
