38
Energy = -147.66253211 eV
Ge 19.766223372905696 20.248476299100624 20.823143082838214
Ge 19.98179631988131 14.983800477945932 11.05360333295218
Ge 17.962587200256724 17.519682344270574 10.264840421767019
Ge 14.1169291321675 18.588780290079796 21.499327935659544
Ge 18.150452101163157 18.478449985617168 20.046981988664843
Ge 15.39000315375982 16.377041938260174 20.21732323374345
Ge 18.881675000864128 18.906982729489926 12.489875864009681
Ge 19.935474556682877 8.852379271424839 19.354034384113998
Ge 17.767794652630222 21.229948621973293 19.38267423128517
Ge 13.751556969854208 17.248238108576636 14.039667058234809
Ge 13.713218825591085 16.034498768857123 16.305322832642613
Ge 22.2961999632208 9.347007216219508 19.646193135420503
Ge 15.851275472138507 19.822754140344976 20.093425803767577
Ge 17.542680326756035 14.653823309999694 10.12401908991691
Ge 16.217925181166155 18.82106528698597 11.475162422329298
Ge 21.755991057601133 15.841317113589108 9.500998932690536
Ge 14.183889441886578 17.879269938111626 18.452839219504522
Ge 10.313547324501076 12.277361648210846 15.408941110462884
Ge 10.888585087115581 10.169969614303847 16.57328630296415
Ge 13.340812733296959 15.05042425941793 12.589813231254832
Ge 17.576138875982362 14.77736956228281 12.984709123421007
Ge 16.644310159575863 17.968706732639422 22.199805850710774
Ge 13.577528222735147 14.956094582780821 18.6478108690604
Ge 11.67037329000837 17.043073622842115 18.18615577491955
Ge 13.027402893605004 13.57194880706892 14.924425322785703
Ge 19.670555074650412 16.47248272005727 13.323697041254972
Ge 11.524780996627573 15.709727677418277 14.634001482277856
Ge 17.55734556162188 20.44103187420362 22.03804349321458
Ge 13.456063735734668 9.8645154320944 16.78243715900114
Ge 11.022685026053217 14.576626726080422 17.056986061587093
Ge 20.63278151309038 17.750572572862584 10.836403182261819
Ge 12.541955007530708 11.005738481476568 14.583481039406752
Ge 12.48049661848628 12.205400204355547 17.197299342503726
Ge 12.653478632970009 16.684746381400362 20.4815104048265
Ge 16.914048184190307 17.347368783567347 13.588984246412052
Ge 15.2765654849597 14.937705955978508 14.426659122416533
Ge 15.757607340153644 16.13610302673512 11.451948214958087
Ge 19.34780017971888 16.212640253236536 8.64462948035719
