30
Energy = -121.11351772 eV
Ge 13.24835889363093 10.074197523960352 16.014583639879863
Ge 13.492683699436988 12.363556480838069 16.984396183769555
Ge 12.611653226626734 8.233028591289795 14.3320441745259
Ge 9.403948870086932 11.153182428956326 15.731442894367643
Ge 11.241384611754627 12.874313451334833 15.97344175939242
Ge 8.758159768825251 10.808125601164374 12.726098754903097
Ge 17.061889579831856 9.619396863516931 12.6878800127889
Ge 15.424032566261461 10.18601381901804 14.575958972179528
Ge 7.257779062545776 11.964515385541366 14.534941088953598
Ge 11.020693350286564 10.152925182942903 13.977966397434589
Ge 11.087344674517784 14.91250113568896 14.613771220554986
Ge 14.460601827482062 12.723093250879836 14.49903589632447
Ge 16.98127492461541 12.260493774461287 13.727561475568253
Ge 9.126763558016792 13.410337609578988 13.840891826611093
Ge 14.500456284306505 8.75151745292979 12.405707345510622
Ge 13.17682428529756 11.112077481559929 12.941182262400213
Ge 13.282356450478224 15.013955118020858 13.218957069288525
Ge 16.8277028149682 11.698614512745362 11.127632476897956
Ge 14.384147711437642 10.673526310805912 10.657161846683932
Ge 9.889035904057508 12.605283225428723 11.249129978001498
Ge 11.777910776416507 14.433852058927107 11.256300231384227
Ge 14.893835329611534 13.24804911624153 11.734862975589472
Ge 11.97620387933514 11.67036394173452 10.07364958046124
Ge 8.93332684613475 12.670922043289547 8.796346219860594
Ge 9.415739321111344 15.177777947656132 10.277652811183293
Ge 11.339611498721968 12.286634446809297 7.652911526423418
Ge 13.330046203453056 13.763996828771807 9.26634018726895
Ge 11.818023198688193 16.100823761069574 9.238166214690958
Ge 10.044428021734197 14.71992095160767 7.747062749492728
Ge 12.527650145694372 14.539448099739252 6.920543962118343
