37
Energy = -133.59410637 eV
Ge 8.036385337429937 14.354904909274289 17.30990608627049
Ge 19.809005865507434 17.674568553884455 12.848583935061304
Ge 21.58294939854127 15.582837767642408 15.754970313366496
Ge 15.451695918093034 14.779146304954299 18.029583708659093
Ge 13.441984213440568 15.462991850370122 15.665474132084054
Ge 14.912628068673778 18.90908443135986 13.057362316607847
Ge 19.63566121126609 16.12736336538893 18.065942045865437
Ge 11.533025342967766 13.75509175158132 18.34905074157333
Ge -0.0732198066440513 14.535542991224023 18.54973523115696
Ge 17.11895737792258 10.367208127169048 17.703481275790054
Ge 14.272348640067229 18.51603590651718 16.96038505030162
Ge 12.662576826640265 19.80068890547947 11.217810832774237
Ge 11.004755835178159 15.242968799375353 9.456126971134038
Ge 12.085566477947019 15.381414607017991 12.311202793142092
Ge 15.8781674235448 14.839214484010343 13.068006903954926
Ge 16.89780487591 17.272862687899636 15.908273545835987
Ge 14.077754192292874 12.452990401747792 15.084603505369817
Ge 14.082388940411683 10.90818399156625 17.79194755058772
Ge 9.062483257260888 12.023952804075961 18.915285085569327
Ge 12.05065692160224 18.752562051060735 14.047915345216147
Ge 11.226816196745554 12.821739898930762 13.844990451204353
Ge 18.87879548876546 14.325236347555201 10.477856298812254
Ge 21.258013280929447 18.407323920891248 16.893938926260557
Ge 16.419340820745216 12.672483273916532 11.00521892551881
Ge 13.917638744579069 20.975487709519808 15.041434742835726
Ge 16.4431629411821 17.54578897640171 18.94010590747564
Ge 14.02962750518622 12.951364611661488 20.018069351236925
Ge 10.274741226993708 15.309218813168913 15.336481956590497
Ge 18.132926056478585 12.44403967642849 19.649709585723322
Ge 20.689720949090944 11.929045015969548 18.028414082953066
Ge 18.16062074750434 13.056384921283541 16.668196994869835
Ge 18.916080025676063 19.455520669026182 15.1595710821538
Ge 19.054435977072398 14.79083943947714 13.557451485416612
Ge 17.33644884055144 16.90468113889462 11.162597292918882
Ge 12.747188059896004 17.648484316415992 9.042007392211502
Ge 9.2295284004604 14.814732246748493 20.040727028832553
Ge 14.044984469648437 14.959332945082934 9.96409480793594
