34
Energy = -136.83497625 eV
Ge 13.986627564303834 13.066712421214653 11.079088873697886
Ge 14.906482478368757 11.640774384250271 6.986485089607057
Ge 12.742773957612846 13.286035578868347 7.262491433127965
Ge 13.07421604291078 9.622312137239351 11.31575382154149
Ge 13.758485512701363 16.63995563897539 14.303328345098762
Ge 13.698628594980756 12.178997750111455 14.630227439351577
Ge 11.75696622507611 10.620109447027183 15.750343570146121
Ge 13.923997351839716 12.870185528426891 17.074923619082725
Ge 10.136577573032763 12.760445558344442 11.619178850813304
Ge 15.788311527367185 14.77572543252556 10.151150361165037
Ge 11.58210128244854 14.069908784958063 17.24285871667142
Ge 14.842535439464937 10.966198078386599 12.693028218000228
Ge 11.402959060992831 16.62407567499359 15.42366384271235
Ge 15.246565498849531 14.252561310509682 7.635314411924522
Ge 16.701241473517484 12.509793598043622 11.716104388778762
Ge 8.665333328882062 10.79541399211346 12.359446955991553
Ge 10.51583559084476 9.11637968235144 11.541693130616286
Ge 10.14736638411691 13.878845285323504 15.066984797742998
Ge 13.313160460044694 7.273846168804002 12.310597870927626
Ge 9.360200878682472 11.442179583863417 14.860763038826626
Ge 13.567619995585005 11.01299112041921 9.134843074208549
Ge 11.699627747540848 8.547920166584207 14.12183272973052
Ge 12.13551371626954 16.488434094182555 17.871847307504137
Ge 11.434673268193617 11.19869031754013 13.15234648079706
Ge 12.538025335103963 14.346336412536274 13.893931914086112
Ge 10.313798162091432 15.133789338897213 12.447786079646614
Ge 10.718380449599847 6.781089381567018 12.677470808042635
Ge 14.004182480278006 15.326968271440068 16.559712855147435
Ge 14.411750591948643 8.750283910456394 14.058591421975233
Ge 13.216924080023146 15.143625225224923 9.261457772099812
Ge 12.591249022746693 16.19928169179017 11.884991800655424
Ge 15.99013023612267 12.167826321457287 9.288976719523744
Ge 9.022155155957186 16.04753293459911 14.485910654258207
Ge 11.810767014582039 12.804062575202583 9.633429336030336
