31
Energy = -122.66154348 eV
Ge 17.224987059387725 13.70717189369045 11.428506370248542
Ge 14.795082212490849 13.829122067445946 10.417927027142088
Ge 16.756718175967958 12.014179150754162 13.630190979346512
Ge 16.008159968414812 11.461104186699355 11.165316083814556
Ge 15.050096233018541 9.352650676180168 10.118591695961136
Ge 14.141645003007119 14.222147399451512 16.483307861962345
Ge 13.53826147961567 11.421397195568623 9.67551550703174
Ge 15.069097225031372 13.88408979987591 14.068149031497521
Ge 13.425749646235941 8.810673719830312 14.804606711840522
Ge 13.681506439759119 13.539237274021081 8.16664710191289
Ge 15.616312259440805 15.948024883524688 12.127913730909857
Ge 14.697334595255557 16.331655483695695 14.772090524369638
Ge 13.833217924909121 8.579996418743326 12.401582288218647
Ge 14.328556513011034 11.005397955683254 13.494430884577886
Ge 12.328821996990934 11.520431403427539 11.885737962690499
Ge 13.658753384304767 11.54963185786647 16.002843813643405
Ge 13.061891572517192 14.101806509167272 12.456671315279698
Ge 13.13164998401979 16.882034032593477 11.601626960298201
Ge 11.864320260488896 14.676590849883018 9.640259730236517
Ge 11.210802418557774 17.071248196719587 9.821606115921771
Ge 10.575583237906743 13.214314571535981 11.239157761195605
Ge 12.182805016577124 16.160879780812976 13.903882189029622
Ge 11.351993374950414 9.478868403977126 12.953155656273237
Ge 11.842945938615948 13.970808731215612 15.241154918850855
Ge 11.271389266380327 11.1276981714916 15.093132307597008
Ge 10.329512338581571 15.993127946318623 12.031996945625162
Ge 8.850598301676298 14.135627898987883 12.786594204230916
Ge 9.257848895286909 8.300924270235406 12.159699644232255
Ge 8.865694053836748 9.538051324484774 14.121701264276803
Ge 9.4479853167856 13.299253539130678 15.180320699940566
Ge 9.034339890944045 10.886844185824106 16.231428941804534
