39
Energy = -150.03454732 eV
Ge 17.759773459671276 17.091307422805365 -2.1393659771827154
Ge 14.639264827645917 18.08512213652019 19.59423318937416
Ge 16.920670116805734 10.716642608562678 13.917327377445227
Ge 19.739875566293417 17.758120792801815 17.516203639189182
Ge 14.605065248428694 16.30165997954147 15.762997920514389
Ge -0.19655648516795937 14.239259555884479 16.67611427351509
Ge 25.09577046522209 16.568140445498283 15.896444493924179
Ge 15.690459558067825 17.01232317805761 13.38468502237954
Ge 11.779622050461422 18.879812465475695 18.58968841919435
Ge 22.0861039457301 17.337239725301956 18.563314918791413
Ge 19.257769191790313 18.96835037100356 15.1003055641944
Ge 14.891515402073427 -1.1472283453407028 17.571420081219962
Ge 14.826889392275575 10.01904361556316 14.609968412398887
Ge 15.505935942041736 15.242534357160087 18.88548543852762
Ge 23.091800205948996 15.380214946604326 17.213446131145083
Ge 15.519513527330437 22.240354456935354 19.18585413933625
Ge 19.602739798893875 20.358646072267902 17.14694719303835
Ge 17.642320682368005 14.543591160019657 22.68296555391601
Ge 20.545684757950596 16.652232483666513 15.194109508678183
Ge 17.444763862173875 17.41007813017671 19.095130301192615
Ge 16.093888217160043 16.23376819838181 21.390188538566647
Ge 19.707903991898355 15.205115517423934 13.336664195587622
Ge 18.994856026705225 16.383797279864844 21.07146763854055
Ge 22.0949650815945 19.61034030633254 17.351872312258614
Ge 17.710579566680035 14.272434675022806 20.187610112914935
Ge 12.761463029144767 22.948253766565806 18.29761319305965
Ge 16.682472898157982 18.296741018548172 15.450347260222859
Ge 13.54774578120356 20.616608478736037 19.11917287537886
Ge 22.774038425782212 17.676437897067352 15.856095466399132
Ge 12.734554640502244 9.476357865137778 15.374179963815125
Ge 17.411821440392803 15.346842216616688 14.430035195932108
Ge 14.623182093073448 21.937704051829286 16.528135167514186
Ge 16.922409385744253 16.170644785418755 16.84520125412504
Ge 13.874392953368522 18.713885329278206 16.782524122247455
Ge 13.009565016193557 16.545357152503655 18.167418327522437
Ge 18.553088243324307 17.50826042529442 13.016161178523644
Ge 12.143729599505397 20.79852404456304 16.643417264253216
Ge 10.60313032017431 8.995476233934351 16.12434111586485
Ge 16.087130491110646 19.806741923507282 17.803225805056833
