30
Energy = -106.92266747 eV
Ge 10.774542480727181 7.252242132125868 5.884624455737283
Ge 9.911721057354635 10.196447072433738 5.236111076899454
Ge 13.28243560803467 6.974722869122253 7.632359008468924
Ge 13.58878545210214 11.164214200597867 6.729290070463725
Ge 7.208741282932399 9.183139584109885 6.333494457375124
Ge 9.638749615079673 12.618516862157284 7.116158926008711
Ge 9.332941241144207 8.357849292335516 8.274881880405863
Ge 12.387642368779936 13.803419108932626 7.6248220908419055
Ge 12.435259802788835 5.102492253326777 9.94902232125927
Ge 15.716319131482305 10.435500532648325 8.861329521733511
Ge 6.457049100186165 11.128139320083676 8.637057009964904
Ge 15.65126645556586 12.762245048019182 10.733387681168406
Ge 7.607760388707772 6.652808970936674 10.083909411745372
Ge 12.799420091643956 9.532521513624634 9.144324890538492
Ge 9.192476989281575 11.492407274330253 10.066319754221261
Ge 9.71729103467627 15.798989274152262 10.326890216016627
Ge 9.893974262208017 5.329392960967734 11.638386330469514
Ge 12.697146007147566 12.964155510556726 10.554469204516705
Ge 7.424168554630365 13.954274485497507 10.754047321871244
Ge 12.488318794518811 6.578362333042394 12.617132512548016
Ge 11.918816931821512 15.324247820715188 12.320478540534946
Ge 6.999167361596529 9.409466137115453 11.160452356598185
Ge 10.404588553004656 12.911148472724188 13.458248896785918
Ge 12.40670467633915 9.699045313665732 12.646893078906897
Ge 6.36115992596929 13.2479236280458 13.580863294437236
Ge 12.682651200105274 12.050213771080934 15.277330281395491
Ge 9.630854106934725 8.984142346404022 13.662154269994545
Ge 8.493782289926349 13.71525724851156 15.672902175349533
Ge 11.977507331210793 9.139398632312044 15.637127771853747
Ge 7.588074041669016 10.906632167993301 15.054847329458783
