31
Energy = -122.66311 eV
Ge 20.008927631401683 14.241851776871865 13.27581231315145
Ge 14.59121236360246 9.377343709876671 11.200831334195318
Ge 19.21096167660828 12.414838229111197 11.595975573251932
Ge 16.77483501808338 12.436225745870665 11.78125465342059
Ge 13.006460677425586 7.724070717654753 12.060401835773844
Ge 18.004964853612687 14.889976721122883 11.757110782971216
Ge 14.312539137147112 15.624311096008034 11.462645401819191
Ge 17.928897074847388 13.043155541725758 14.011422794362591
Ge 14.276524365622489 11.882648181153792 11.404436367000832
Ge 12.24078830980811 9.98584310797157 12.49037657506436
Ge 13.751818592874772 13.791234586932665 9.700828683923634
Ge 15.947079726238268 14.857099164841387 13.383052293059412
Ge 13.741862935275737 13.323063315918581 13.475842070203653
Ge 15.095556735194256 13.753948585486663 15.765608457940772
Ge 12.518738464761478 10.71473024085321 17.313363447002008
Ge 12.272442377283797 11.204316234530216 14.767701108421583
Ge 10.323253080539335 11.028639423479826 11.215102195511298
Ge 11.367476060203918 13.215197859598034 10.552933301724849
Ge 12.528145086783963 13.289097392544438 16.530490391462134
Ge 15.670537998318459 16.407520452169738 15.428340842901369
Ge 13.156924229104616 15.837317880923077 15.754665388470446
Ge 10.033012134772276 10.586396219392611 16.349328704044524
Ge 10.32773347661459 12.888195112127166 15.196904841090618
Ge 9.18922400840699 12.972469165761543 12.510743392435897
Ge 13.911627765106227 17.313864156439184 13.48794692738193
Ge 12.034438309945237 15.314951864226972 13.32877131098045
Ge 11.769453515677862 15.889603696214754 10.81867572095783
Ge 10.573093907274766 12.53852289998155 18.00212023891091
Ge 7.841267559636456 15.00902048930124 12.292473853352547
Ge 9.424232821284127 14.766979844690457 10.260637544604258
Ge 9.617404712445964 15.1150338764009 14.254135124047917
