38
Energy = -153.04764445 eV
Ge 5.3179957715183015 7.683572562419299 5.098241653877198
Ge 9.49100080478723 8.011198932589174 5.576406786100432
Ge 7.408467042754484 9.382659582639475 4.818483733888107
Ge 7.522081259835533 6.288348612457345 5.042418636316624
Ge 9.258505256465273 11.655171614777887 4.787295011996508
Ge 11.986731062602448 8.048388426896137 6.563505063063871
Ge 8.661469931381715 5.83580964714012 7.243774210287409
Ge 11.53993389921454 11.48551875562851 6.189992806302591
Ge 5.909463882521451 9.640120180222771 7.052766315023556
Ge 7.40609139960494 12.787626940262808 6.4379110772335535
Ge 3.8470619786829596 8.10961265007596 7.323394168390012
Ge 11.311997639182591 5.622776523963457 7.353933214750387
Ge 9.918450561334978 13.797739220720858 6.372815539008017
Ge 10.986398381986541 7.685805421396939 9.072359700523918
Ge 12.931447040996959 9.343024075249444 8.846186717202233
Ge 6.082900529537177 6.831227383618424 7.8779227906589
Ge 8.230172251394398 8.58032917339713 7.710342895552683
Ge 11.01337721191833 12.660892936078925 8.513125533513724
Ge 8.520210004929384 13.397523603015351 8.762988623914964
Ge 9.21078578819514 11.104972758389994 7.41944172390962
Ge 13.425734914116441 7.229928441622656 10.235179591115955
Ge 5.7321368384019715 11.204753543150694 9.220947000753343
Ge 11.843821617145844 5.119604080116942 9.816476411549234
Ge 7.515528063181522 9.407707365858283 10.08100706570203
Ge 4.794294406348394 8.792731082499492 9.77617597196281
Ge 9.269475365678444 5.963428223492283 9.823468871756434
Ge 12.41502029956946 11.440463606975818 10.398070520012865
Ge 10.1886774472269 8.567940317876422 11.884642895278658
Ge 9.911304316058164 10.898639876009275 10.948547366525217
Ge 7.419484706638232 11.584692773487268 11.557449313209352
Ge 12.746797830733437 8.378310135810485 12.589101808788794
Ge 11.016242042581078 6.393375634626138 13.02009166856421
Ge 6.533236768476986 7.182299402320817 10.866822958755456
Ge 6.6211293433106055 9.301182786524603 12.679888481699512
Ge 8.615897941904377 7.609011630323945 13.769590128628826
Ge 11.752052115669509 10.728187734016696 13.177401669753394
Ge 9.139644602617148 10.295100317444641 13.840632570362486
Ge 11.040557897338307 8.485902262744823 14.786777719907644
