33
Energy = -131.90665409 eV
Ge 8.180420325512088 11.388034120542377 8.702871281315149
Ge 7.991163534842793 12.033007149647132 11.11791574772993
Ge 9.758807567087814 15.35756881593523 9.154869999326527
Ge 9.260740434600239 15.063357324521254 13.832132628844311
Ge 9.433373150678628 14.159993007059976 11.380189022490331
Ge 8.286403526255338 8.558779064209658 11.899254607026357
Ge 8.528305852009677 8.866049092570357 9.296687493008358
Ge 11.017964178659255 7.878682687391992 13.125763739259238
Ge 11.63721377756475 9.891065604661406 14.654816265205875
Ge 7.707371488025348 10.718353349864195 13.278608774952996
Ge 11.882625319566293 14.310890472733726 14.650509145763746
Ge 10.333685041557944 12.943454113667064 8.448242478707694
Ge 10.167040013491794 12.186215976254186 14.506640231500471
Ge 10.49456542159247 10.672319853645197 9.990471084878209
Ge 9.15772740580296 6.23517509028484 12.536978153762671
Ge 10.184890238316612 10.435194190912531 12.491602286639715
Ge 10.96053590267171 8.491857572702163 8.544638636938226
Ge 11.55579645895529 13.111850871383197 12.317734747286814
Ge 12.086795605833325 15.465220552776811 10.203657109412774
Ge 10.718571262166982 6.863710007857723 10.514973353732342
Ge 13.043028162270565 7.49374858075302 11.438301736504913
Ge 13.634844225741094 15.084032483864597 12.872048346350914
Ge 13.466342086349128 11.822839518955085 11.312879031751017
Ge 12.492103855794566 11.629745069195138 8.449031508613183
Ge 11.063460900567765 16.40557451655411 12.892984924057208
Ge 15.271011969361496 8.091271132878113 12.753583361828635
Ge 13.79666394164447 13.726045770215284 9.392397135092814
Ge 13.06341983143948 17.297369507350005 11.667587002006877
Ge 13.818181277571345 10.028471096599425 13.336432753237593
Ge 15.361209305833702 13.626220944796135 11.495279424502943
Ge 14.270223217764016 9.47803343975951 10.47903337712708
Ge 15.976093724082805 11.432471711704968 12.803692337243547
Ge 16.746127628861657 9.49524048945524 11.159342210340762
