37
Energy = -134.67687959 eV
Ge 8.275829343823753 12.55214905027594 4.173916344217407
Ge 11.15974385278094 11.745412882562668 4.324274849190621
Ge 8.99950158749989 8.145548901895774 4.649143411835189
Ge 6.989248784981988 10.226150125091772 5.647059820494578
Ge 13.67535459815143 8.876616083011905 5.751692814565909
Ge 8.479500970520466 5.793279658653512 6.507311710934657
Ge 14.428181942369298 11.383100454811622 7.330109814809945
Ge 9.135829800151553 13.724162099709206 7.001419042532961
Ge 8.355948928974984 11.12320552089199 8.531899833633375
Ge 12.219713389255295 13.59601769793515 6.722960938325151
Ge 5.520450668697957 7.3378216974243955 8.53934232258191
Ge 10.846859784291256 9.659383186177992 6.478802914527186
Ge 10.93208249535654 5.2838759820099614 8.240338689658335
Ge 13.602083197343193 6.745146345474779 7.96256646466516
Ge 8.786303647506724 15.675898888227861 9.450437689683428
Ge 14.921766054306177 10.066498524600421 10.025418890541886
Ge 5.32390223929369 10.31183821886823 8.783694007681367
Ge 8.79317639459424 7.461906053795301 9.080216713974899
Ge 12.265433447846346 8.569164432716502 9.961852058538469
Ge 7.083368819221178 13.47036330044435 10.618178388454641
Ge 10.933801658939466 12.071176584847874 11.046236651536471
Ge 7.997687594736278 5.328022188109674 11.100081402567502
Ge 4.306025572537003 8.271995292641416 11.176986800514442
Ge 12.960006468731969 6.283504429440569 11.870060983296774
Ge 11.613246674815134 14.716243301444374 9.798172241873061
Ge 13.866129143008655 12.24274434123365 11.857532962910543
Ge 13.90078466491914 10.603486016916527 14.472633211049798
Ge 7.0361863243026255 10.047848495695716 11.743069643231543
Ge 9.846774211544636 9.969983404824847 13.675642844495732
Ge 10.363106887559939 5.19545602066985 13.051526513057345
Ge 6.577095216560966 7.266951725738049 12.93623769777614
Ge 7.74908485730239 13.934005807832884 13.561025327284124
Ge 10.833325197482377 13.939533560292928 13.42133089075077
Ge 13.136801670128566 7.6258949241629885 14.643683825441839
Ge 11.337265160282392 11.784288803108161 15.581027002012814
Ge 7.156037301766869 11.12308172966593 14.59484520860369
Ge 10.122007244252517 7.377890064631373 15.21891586858674
