37
Energy = -148.76763217 eV
Ge 8.991271964046284 6.621181812971864 12.870976669440958
Ge 7.035106338978632 5.044056396375185 11.561365627443044
Ge 11.51133763253395 9.211475011298923 9.798183227395828
Ge 10.786901875685714 10.41073598705081 6.005182314720259
Ge 9.007999596027318 11.181127997531982 4.242967495014042
Ge 11.003493036418709 6.7926964830112135 10.927260614844103
Ge 6.232601361368141 10.090771601049768 6.5951917897106425
Ge 4.863174883589398 6.777247086679113 5.417615192706575
Ge 9.215394429419844 10.075092541571266 8.802835156081223
Ge 7.098712195321063 5.2878570888410525 6.0604083456214815
Ge 3.06956068871592 8.953525908425949 9.609310530850697
Ge 10.30266997768387 5.180009789497352 8.835430135308748
Ge 7.8381803842271545 4.014402012818231 9.201712235965175
Ge 3.776017240688465 10.688204401612243 7.538183846837458
Ge 7.869220725997933 6.607134374886309 9.109486139545513
Ge 6.722030063055677 6.564977854714633 3.312057710984516
Ge 5.582829307853843 9.474135254830468 9.230899588399383
Ge 9.640118082249408 9.027029197113825 11.706793836170226
Ge 9.20840882068036 7.234243677444899 5.5059141137606105
Ge 9.347457154213256 7.061824349811065 2.386983606329832
Ge 7.8204111164413765 8.871496212658403 4.078842560053074
Ge 6.543927682941361 7.675587978750437 7.233853206561569
Ge 9.672585752023222 4.470170463345352 11.349603099829105
Ge 10.083351986751197 7.740530675559771 8.112001733375452
Ge 2.3638946467671356 8.515244920368602 7.02846961990184
Ge 11.826213541093697 8.003115830037396 6.0660953801100215
Ge 4.216450108685699 6.848367904437084 8.083865609607399
Ge 4.123528174101424 9.33228566038369 5.184467699486606
Ge 10.68534106735305 8.955445049910205 3.675933796095803
Ge 8.6749211888793 4.883891308476719 4.019160310999295
Ge 4.639820962992079 4.427294055159018 6.72716526351235
Ge 4.586002983425001 6.9875611225658 10.851342306858497
Ge 11.108006000480154 6.00189289658343 4.1853299897720095
Ge 5.039858864345268 4.73408535040235 9.441797866172703
Ge 7.491824775571382 10.412162150950747 10.723182906663586
Ge 7.183437871618204 7.761226894179134 11.252038447839755
Ge 8.332231167155776 11.576206348076186 6.762385675411248
