36
Energy = -142.72651419 eV
Ge 11.301316762280495 8.316385188337515 13.525499950498764
Ge 14.349151420060364 13.293776553457782 13.170838088229146
Ge 16.865981307347912 14.288913557348206 10.512668785443953
Ge 10.960869078749326 11.943095084565211 15.892261340332217
Ge 14.65076286987561 15.661522473592719 16.162807745045193
Ge 14.40942218378096 14.75567506397804 9.590982791503574
Ge 13.839872705770494 17.414590317161817 9.746490153743972
Ge 12.065023407508155 15.735533750733536 15.695098495757613
Ge 13.326680075772266 11.506252170692907 16.839495504073113
Ge 11.213874592988459 10.38325552069597 17.919476953377377
Ge 11.96839388957014 17.93930866953511 11.467704598731522
Ge 10.770542043815716 10.967393856666686 13.552756604445847
Ge 13.270514174583834 10.450629173553137 12.989755943084322
Ge 10.856294952591991 13.28386706013205 11.492593136487644
Ge 16.240137676756543 11.942345333348277 11.532513356108524
Ge 12.79941826799356 16.417533342049207 13.408870577209175
Ge 9.7001276691748 14.238066942618744 15.715066007613924
Ge 18.300622946285856 16.34899800533798 10.462064605236064
Ge 11.858837313920628 13.787107740020174 13.875829565695195
Ge 8.228598125533889 12.829382086560875 13.85128619627201
Ge 13.509760967782707 8.052155013907957 12.21255972498215
Ge 17.282650122048697 13.553475500737768 13.478525735196728
Ge 13.431788554482775 12.467161918483235 10.810887795929084
Ge 15.914204207854024 11.107908081964338 14.068930514748406
Ge 15.33812035927629 15.75448436061713 13.628663337341912
Ge 18.028857129078155 15.961520453639606 12.987775625324542
Ge 12.220444856528635 15.51762908641487 10.869697200409435
Ge 15.843910479346158 16.699849767916305 11.197905306461823
Ge 13.458696768995303 9.896034682197048 10.2797084444024
Ge 11.121714005935598 9.35092830038822 11.171932382796825
Ge 13.478716714238173 10.076915341222467 18.80747050508062
Ge 8.267191747809527 13.870356998843006 11.438437460709556
Ge 8.906077815679113 11.256956243940694 11.766358469712467
Ge 9.568881577805966 15.236294025251372 13.245904843005798
Ge 15.068708818173544 13.168289251372062 15.72548176496405
Ge 17.50535873854172 12.45189959248402 15.72930060200772
