36
Energy = -144.62945558 eV
Ge 16.666449738905143 8.135009626003814 11.163107639138282
Ge 16.078021150158328 10.069575209864016 12.858500801744626
Ge 14.897882245492534 7.621449495008114 13.333407855643928
Ge 15.118622270885304 10.251632196478687 10.05440810175537
Ge 14.192462119479206 7.815659795926774 10.701483925709661
Ge 15.002134540330331 12.357529357825713 13.972842748561456
Ge 12.364237192186986 7.132151022782227 12.47054565180597
Ge 14.067922417917776 9.886148690820884 14.578123186242697
Ge 13.100174296719805 9.166334177763643 8.636128917252265
Ge 13.680906733984543 11.196437099778512 12.012101659635075
Ge 11.979579388972422 6.809562383274606 9.675182221172529
Ge 11.648220878563318 11.484778905999741 6.86603251685942
Ge 11.935935378972847 9.597843269016016 13.024369412039702
Ge 11.481896842153104 10.956441639399312 9.520567502030865
Ge 10.601106104045957 14.037102274571243 7.384579150398043
Ge 12.921603087170068 13.026409742724562 15.672678320042161
Ge 9.099667472551667 12.194560946045343 6.2490278290629755
Ge 9.316103821759077 10.291967169319731 8.055359960701368
Ge 9.743120056917924 10.52448654984596 13.898875536838275
Ge 12.784234867401757 13.094257323976212 8.834405281316347
Ge 9.768982004151358 12.846280030919376 12.510882354815811
Ge 12.280235429303309 13.231015324097767 13.158882623620007
Ge 10.768348608202695 8.847704794422386 10.728918756080276
Ge 10.366490167735304 12.743941382626204 15.321894114669321
Ge 10.238124622360731 13.211464894286374 10.005898823238342
Ge 11.786577314691856 15.34738908353666 15.18180203694928
Ge 8.955073884909794 14.68652960309434 14.21371417812781
Ge 12.471743369099906 15.739067806939918 12.436912874278159
Ge 8.105198413743203 12.854557531315804 8.56048266280438
Ge 7.476246662738436 9.498270071532383 13.89966925597284
Ge 11.732018789830176 15.431388679276225 9.822802014723614
Ge 8.2772006253329 8.958959323042935 11.499350928152229
Ge 7.267618457131154 10.578347687591323 9.819927849040672
Ge 7.524077957001555 11.518835829019245 12.259656404618681
Ge 10.425390303771957 16.9502375163076 13.834456185166157
Ge 9.781691279879503 15.61928307477896 11.594496536907702
