39
Energy = -156.91188199 eV
Ge 8.796496325102352 9.311674009854475 2.8165772482460256
Ge 7.574280501195386 4.615051574744034 3.6294186417236824
Ge 4.981642530294058 4.362355148502279 3.644371723529067
Ge 11.053678704727409 7.784013445091978 3.0453756868846207
Ge 5.429169025585316 8.528956774953318 4.995158213743689
Ge 10.624629541633901 10.207935513854888 4.497561732755107
Ge 8.44452112445788 7.073632557419338 3.990147342891693
Ge 3.014798003866973 8.099169061729558 6.227140032016534
Ge 6.3105142026238585 3.399460134539734 5.679257192667442
Ge 10.698017194532927 5.88342647014669 4.83349821437147
Ge 12.383746269579737 8.404050253345183 5.250979699597251
Ge 3.2439638097610666 5.832592304399158 7.39580176162872
Ge 6.91140026207158 11.338779209341542 7.795385852303857
Ge 5.397644240794093 6.0429493879737315 5.53520734259068
Ge 8.798446167901993 7.263382476698124 6.525358168492631
Ge 11.281088847530855 6.990477932397523 7.162944253013979
Ge 8.106880476302912 9.558456342614992 5.50851998209247
Ge 4.186164034103759 11.81300301061291 7.992153993031843
Ge 8.2443635780267 5.1063669531568 7.708408941057701
Ge 5.206888580439926 9.204984581353374 7.515005414336135
Ge 10.399841139727481 9.543576642102316 7.040555043275588
Ge 8.893658360727464 3.51523122496529 5.621280013907732
Ge 5.626324520134582 4.7450349669986505 7.870114533973807
Ge 2.6254098450675865 9.774824677212884 8.184947237107266
Ge 11.008231637613815 4.586703022635795 8.405486893510021
Ge 3.6672384226577246 7.617342965158901 9.150249868006679
Ge 11.901242721200617 7.043558460430249 9.746713197216263
Ge 9.787804822752934 8.442408242120766 10.557578709408396
Ge 6.424726316857106 7.339657944335109 9.027475937213659
Ge 5.24821369181616 11.416049408335551 10.25625976971625
Ge 7.673397791925218 12.223854655849749 10.41108748469827
Ge 7.672744219794532 9.651604796738079 9.595218804890992
Ge 9.292867657567495 5.894945766339245 10.072308215951523
Ge 5.707956290539725 9.14883231872743 11.391981811918477
Ge 9.541802088907756 8.548736150105631 13.074573136863513
Ge 11.494516555051403 4.821507277077187 10.925946950572312
Ge 5.384639205478628 6.6320177797006155 11.363972118660822
Ge 7.970865121787866 6.728720632912596 12.106963001480878
Ge 7.785618949709392 10.300108705373932 12.244448614501655
