35
Energy = -140.18239874 eV
Ge 13.911044659153017 16.257255343996814 8.790511083983025
Ge 12.6091798206013 14.149159571723793 7.790601717307274
Ge 14.736252945624006 15.428177246649287 11.428777997217106
Ge 10.377976679350978 13.760402269056247 9.230698057940666
Ge 12.270338203333182 15.409402886416249 10.480723989248801
Ge 15.158198443361611 11.375909010087236 12.37493929362534
Ge 13.389381876496635 13.317111897139515 12.056934491070812
Ge 11.464003841409589 13.462131253576189 13.806780026217869
Ge 14.870701657284396 13.811345246293817 9.413101649795934
Ge 9.92599128538606 15.591752643624387 11.601534052870287
Ge 12.35743535100241 12.087353185794871 10.000297710667
Ge 8.513826832855337 15.476444487114682 9.466426776223171
Ge 14.033723967015508 11.87446164353693 8.032995533770771
Ge 13.422331765408956 9.279808210492114 11.649749653675217
Ge 14.050064763974463 9.800404425652284 14.149659499093476
Ge 10.424437688211773 11.08968385005843 13.172839689456143
Ge 9.239012731851329 13.136610575693883 11.657244807608327
Ge 15.239449848393017 10.313911615929683 10.06872789436754
Ge 6.628498466959744 13.610814339886893 9.36206877012682
Ge 8.434592815401064 11.850949808295178 9.2466209907798
Ge 15.17699586595242 7.6041027718801155 10.589613327048978
Ge 14.285277118815054 7.118700293529479 13.0500485963622
Ge 12.145475990674338 11.321355005559582 15.187887273337639
Ge 10.959643755039096 9.595896418395318 11.186412485401778
Ge 9.024879676279513 12.294689815180638 15.209658955963578
Ge 15.755445498555257 8.139833882830214 14.963330128284758
Ge 7.74833529245275 10.785146787709765 13.596673031541686
Ge 16.51974883636923 8.703071970250237 12.601427060415778
Ge 6.876982553997979 12.15705638015065 11.492054859469134
Ge 9.555923787054036 9.555604307775072 9.027878583115672
Ge 10.057717384129433 9.930815996118165 15.640859408188371
Ge 9.964461152145066 8.130391533562817 13.48759952014767
Ge 7.1368523761943115 9.523358961222112 10.403025776073845
Ge 7.375684957846967 8.329536224717177 12.943967618072518
Ge 9.069355342868349 7.687892151897518 10.98540310955242
