36
Energy = -145.12722591 eV
Ge 17.022995302195262 11.009766166014874 13.534160393201274
Ge 15.95381508564555 12.873084403106336 11.375532076954102
Ge 15.122657016429365 9.141783136456208 13.005641719477365
Ge 16.70417625823456 10.324682845313422 11.079386719370639
Ge 14.857424650942537 10.858429598431112 15.140561872408908
Ge 14.074638701197463 11.009560526284844 11.19300133636262
Ge 14.091803773006959 14.124260153273587 9.681322980843742
Ge 12.936314517409539 13.821068818595284 12.123060630321234
Ge 12.922259333059758 11.152493952321315 13.517861654663815
Ge 12.404745476672794 16.605030207558425 13.112271081317262
Ge 13.02599682895722 14.579471857705636 14.68584951862279
Ge 12.018640597631848 7.930845450127798 10.78779808523744
Ge 14.674117105378631 8.39846218213907 10.336703962916538
Ge 15.185047317876489 13.168093855411422 13.92093771884711
Ge 10.672405753404037 13.07791711716456 11.022535793768446
Ge 12.933217755111476 16.003584170748958 8.354504770220897
Ge 13.174399872241363 9.992331999396496 8.908458231253155
Ge 12.065298665814874 16.181717413876292 10.66006684397118
Ge 13.169725396518581 12.402388958068311 8.087559770756895
Ge 10.640754742103493 8.931019786004274 8.583601319098394
Ge 10.91913425837463 13.224151502026054 13.9660822783296
Ge 10.429128271220216 6.428012548007643 12.257483752199036
Ge 10.643310049645642 10.4758996677381 10.738742276374444
Ge 11.262517956097382 13.94874823687816 8.62210150341008
Ge 11.275609205698851 9.133250317585098 12.982568548593077
Ge 10.055227930355443 17.417676567191904 13.9489833609529
Ge 9.74538431620124 16.225140750892347 11.77526399366777
Ge 9.443682682241628 6.869000878239257 9.784693465311044
Ge 8.211316343666704 9.403822773755035 9.862585397944546
Ge 8.678192118728129 10.006190283156949 12.407624549280682
Ge 9.239359147974868 7.968069950129651 14.079693616582412
Ge 7.864433090179199 7.493349816375172 11.758874051373603
Ge 8.338115976161054 13.975508329084278 11.67946211694431
Ge 9.047061776774466 15.043715712036047 14.240707138184304
Ge 8.577581361910532 12.09568050809507 13.991545989487255
Ge 6.8001053294195115 13.883435264959706 13.691627317680211
