39
Energy = -157.94264028 eV
Ge 13.528903899426565 14.87729748156554 6.981500943132952
Ge 11.141186366553836 15.722455344766965 7.6299187012502925
Ge 12.478925860432083 14.513604224955644 9.661349466246053
Ge 11.58761579910356 13.904712654630375 5.510216155808232
Ge 10.090590494725118 13.521660772965067 9.008196684265258
Ge 14.157542979504198 12.793670363071707 8.362538551983791
Ge 9.214789659662582 14.143419070242988 6.589449912365869
Ge 11.877140493812462 11.672775555279442 8.985439448945527
Ge 10.815503045776484 12.375885096980648 14.473350141219207
Ge 15.797067594312374 11.84523709376891 10.130707733680323
Ge 10.297824825843632 11.742409527878984 6.852216552959223
Ge 13.44828817901039 12.132315917298882 11.132723834207285
Ge 12.929185063999977 11.800817345760562 6.317821845850611
Ge 6.373455271934743 11.305810172011999 9.566201853866874
Ge 8.692810462002901 12.402229726905508 13.015412514845833
Ge 8.025071881895704 13.147533490199576 10.571361403912729
Ge 13.76163335395931 8.604745168845417 7.7147322937557465
Ge 10.489791348638374 10.141620978901782 12.942101342523742
Ge 8.476372835551818 10.467442167981675 11.034015206921236
Ge 9.12912681774407 10.640389265760472 15.41375276858469
Ge 5.111860727441185 8.746541035959746 9.583456534672058
Ge 12.256302292370606 6.583829924381074 8.607176919173183
Ge 5.828372159914203 10.403789798484025 11.958799905267316
Ge 14.690052308718887 6.663158051243146 9.631696001052031
Ge 6.678581398077878 11.485936608799458 14.252639281458912
Ge 11.843272464185977 9.098988519011275 9.418297156818214
Ge 9.388613706869604 8.446679421926046 9.762063670975627
Ge 7.557890662584749 8.374620225842824 12.507359440328768
Ge 13.03987349963676 11.321838774490406 13.516522817981022
Ge 14.858079681933345 9.436458681069213 9.917898701521509
Ge 9.530230595689373 8.065641936334483 14.201827030328348
Ge 7.330216968211468 9.090512374445359 8.246570057978015
Ge 5.063824587808536 7.850412346758696 12.046637099601654
Ge 14.83067007360256 7.773547192835247 12.058418965009961
Ge 12.46992594002834 6.639386315681188 11.265989945549231
Ge 12.82574388261737 9.353452229331374 11.780169707633283
Ge 9.438965689406247 6.627318188879014 11.57259813858183
Ge 6.986714441925852 6.978636217008809 10.191525728136137
Ge 7.189192134326853 9.01435232469613 15.180642055680089
