39
Energy = -157.14761489 eV
Ge 14.464724309548798 11.90987407184486 6.538173645597476
Ge 10.557550649728114 10.169379270732408 7.3053707630931095
Ge 12.679514437396806 13.625186414475767 7.22832730068663
Ge 10.360763975908693 12.660230966830362 6.582592543895533
Ge 13.096525877637323 9.741582329716998 7.233778819670461
Ge 12.9190381187797 15.560345627031966 8.888278770990318
Ge 8.683046346568469 14.06035370912746 8.070912808401976
Ge 14.309235625255992 11.778547701569739 8.980686153985959
Ge 9.374002209651241 9.921997757760506 9.60667143847183
Ge 10.459466273037156 15.25901791678431 9.487382361433228
Ge 13.031635689195047 9.110417624697885 9.761358737219245
Ge 10.517914422221416 12.322494188572527 9.144395111182156
Ge 12.628477094315464 13.369452153848117 10.23754677284311
Ge 6.869567543553564 10.161608125578592 10.11190010747112
Ge 14.888212402751316 7.604025302477123 11.232000321605915
Ge 7.953930793832862 12.42901887465472 9.941018391831333
Ge 11.29077897240901 9.922407918641433 11.409402057125801
Ge 15.5268542418805 10.043646029365497 10.580925956853328
Ge 12.84303246845338 6.525390444451446 10.19494980998851
Ge 7.983586482075713 10.484800929365923 12.43192475809697
Ge 10.071204234890544 15.531670576005828 11.924873939457237
Ge 9.105120248333503 12.985813861031808 12.182385377541435
Ge 12.879697325394261 13.605408007942158 12.865433567758837
Ge 14.94123766882829 10.197875187738434 13.027294620082749
Ge 16.17928895100372 8.011113181808776 13.468086037342127
Ge 12.130475653574685 7.607137678829575 12.43872190966328
Ge 12.178698322549138 16.03454215694194 13.271531848630955
Ge 9.660693374185243 8.467400111423435 13.007755704990482
Ge 11.166549604611372 11.801636479467577 13.07325099294025
Ge 13.785958153755322 8.027636509271147 14.339955523704917
Ge 8.535211570311263 14.876235647973642 13.958562240125506
Ge 14.559496093193655 12.35459895318506 14.287363833941484
Ge 10.921183182821318 14.634917566859627 14.9814728284517
Ge 7.227754808204534 12.550054695455987 14.126593862367702
Ge 9.416448785898748 12.189043265180839 15.490669204085421
Ge 12.916281075075032 10.173381936366503 15.327327014558874
Ge 10.493771625409126 10.025943794283018 14.841357944690818
Ge 11.114496420296202 13.311406646207125 17.033685618167546
Ge 13.529666865549826 12.20549828458716 16.63717319914039
