33
Energy = -130.96747295 eV
Ge 11.740604136736362 13.652407152201322 10.01338493547957
Ge 14.779117887962446 11.906138487839254 12.651713815699505
Ge 19.024236322103764 13.907393124407058 13.24430788087566
Ge 16.58297297110856 13.167884960369333 14.409617704456412
Ge 16.603045737492234 17.472930976681013 15.892584723113968
Ge 9.959609287779973 14.567526235568575 12.35692904451788
Ge 7.592964735393856 14.702198189668326 11.669622064717457
Ge 15.948167947502078 17.45316363498766 13.228234883324776
Ge 10.957445435892637 8.146977478981642 10.525141856985394
Ge 11.696124413517616 14.186730374890256 14.142797650843809
Ge 11.313880506812282 11.846178887909886 15.12333234291397
Ge 12.882455466283172 15.882487727530023 15.746441443037893
Ge 15.324596803808628 15.376792779617778 15.064406616872823
Ge 12.426647379926722 9.44325996325157 12.052413960450487
Ge 12.417687944725413 9.466014061068197 14.618613226841246
Ge 10.578149806747208 14.348033492723186 16.649701625599267
Ge 14.763611564273077 9.026328560688022 15.496199940075789
Ge 18.21316927822386 15.68493931969454 14.809923060233414
Ge 14.175120330177405 11.549971224113179 15.184804633252018
Ge 7.806944076361073 14.020543314591913 9.148181298578585
Ge 13.20156219621621 12.962825726602219 17.145280968212187
Ge 9.754101378941948 15.411967848538284 9.927781482704397
Ge 16.918432849055012 13.062607807572697 11.724213967256627
Ge 10.90271673017034 12.010163513540409 17.671873433087182
Ge 12.443633791415857 15.185158225331131 18.180280808345554
Ge 15.46361602865483 15.000467438075276 12.450239198196407
Ge 10.619563105561207 9.264991225200195 8.392587742191198
Ge 13.215119584700021 13.856642095505968 12.14590620244114
Ge 11.704510716236507 10.76537104549424 10.00148004420025
Ge 18.329351206651893 16.301353677727565 12.152544617621844
Ge 18.468511633749262 18.14250144632639 13.98600259751619
Ge 9.303149035655832 12.675853659309757 10.697924606042259
Ge 14.787393180586694 9.335633154353179 12.922748954032766
