30
Energy = -108.42248797 eV
Ge 10.181993229677728 14.12838392418819 5.513972714479504
Ge 8.488609849621144 11.594210691010472 6.099562807470158
Ge 8.835258087279362 7.910406215237968 8.494035916280065
Ge 12.164204025569402 8.958463664685175 6.724922918009538
Ge 13.688086458106282 11.577769471021012 6.398003949199781
Ge 10.27118796514639 10.62343371038597 8.394313443600149
Ge 6.953920577610161 13.446706715755578 8.01066940413571
Ge 12.324643649220977 14.012659069644899 7.649789392760518
Ge 10.216775792068095 6.025671460376174 10.4577741061445
Ge 9.482173063790425 15.13798971900276 8.327608731806844
Ge 13.20304361105108 9.34250459957596 9.624039892652965
Ge 7.727855641220926 11.854587305831412 10.490299616891342
Ge 10.664498245362482 13.69121734228687 11.321013042090021
Ge 15.696622944218086 10.48912049413435 8.43913772406617
Ge 7.449356228610239 7.080440823119331 11.068305393510732
Ge 6.966693704738998 13.55513327292854 12.893870537052978
Ge 16.057521503560796 12.132293467059261 10.955025913093188
Ge 15.546539757661936 9.785064144088224 12.932203492365906
Ge 10.890280544715583 15.025968587533482 14.106391627145056
Ge 14.23721529306065 7.3057858266767 11.601816366366794
Ge 13.784307525803184 14.165589629489512 11.32300140142667
Ge 5.616105596811713 10.82929011462621 12.417275948326044
Ge 12.802852946050553 11.037168818193162 13.182692339785643
Ge 7.3618460825446 8.679101905263959 13.670905760430239
Ge 11.350416697134708 7.98210808261693 12.488203978869107
Ge 13.688042024899719 13.726592973828037 14.338575093434649
Ge 9.542950967894173 12.328000850801576 13.935243986944768
Ge 11.325498577167936 6.934439384096421 15.356160390627998
Ge 12.3416894617708 9.727663304853722 15.98258827405116
Ge 9.373401512439498 9.145825996495791 16.036187401790137
