35
Energy = -140.07856766 eV
Ge 15.053987752046657 8.504582030366274 10.801253649426602
Ge 15.84252072145188 10.273055557673263 8.797833178831471
Ge 14.868905876874855 13.527113047037119 13.489439626774592
Ge 15.892925235241341 12.048210195091034 11.407631912616157
Ge 13.723493688133773 10.880617626083673 10.200755803416968
Ge 13.20653178609518 6.674579445988838 9.979184283726413
Ge 14.620437894505427 7.968804900515353 8.107202503446583
Ge 13.254026792578273 15.678454768777874 12.898545392640392
Ge 14.757282178507317 10.359564097110468 12.974390396804615
Ge 13.50008745013666 11.707652934140723 14.944761673404376
Ge 13.554043954715342 13.505701639097751 11.003863044675711
Ge 12.300930571131143 8.840625703175538 11.022806787846758
Ge 12.013391548700469 8.074806635818351 7.991023807361228
Ge 11.930053336433197 12.417136093228343 12.689862738724365
Ge 13.450535165213314 10.408155170106326 7.582645306995918
Ge 12.70168594599682 14.443629261720009 15.30742529145597
Ge 11.75710300374807 10.074323947567567 15.921679594741574
Ge 9.474367506501771 16.800355769505025 12.389666362367848
Ge 11.022763901018399 13.961923378303188 9.049925934429806
Ge 10.989408851917968 11.620685298616312 7.820505201617607
Ge 11.048988028934469 16.25045513582697 14.406449364907493
Ge 11.05131322175009 14.965735998487252 11.605612971648885
Ge 9.467098817683418 11.389122504927617 15.906181537301974
Ge 12.101973414808814 9.796376831387187 13.395579919592045
Ge 10.412474237931217 11.895137726043197 10.527908684482568
Ge 10.307597879195157 9.522773158991155 9.460829618939021
Ge 10.428546419320645 13.372352527557805 14.598041905107227
Ge 9.58991541881374 10.569749313734745 13.521710502691768
Ge 7.893828048693656 8.537724102911671 9.58307764585913
Ge 8.659546513197972 14.501392380285495 13.117515603661255
Ge 8.4761884078463 13.530525645900482 9.529436490620906
Ge 7.847620709646569 11.096991238136859 9.148878293817639
Ge 8.130254222311557 12.185403969341017 11.84835865073369
Ge 8.328659822242718 8.74534566874563 12.13100251818262
Ge 6.397477626218362 10.243910037094903 11.241396143448192
