38
Energy = -148.34584099 eV
Ge 13.494503230563192 13.313957228011477 19.969355081821814
Ge 19.583778483003755 15.769825436891143 15.606394798271353
Ge 16.488461435763966 14.296641978362794 14.880241319754319
Ge 18.833529485008356 14.169809300414475 13.784747629587564
Ge 14.576636581534183 13.996357361625018 13.088805751125058
Ge 19.330614520973203 18.952995832297738 12.913000718309995
Ge 19.1478068640931 21.720244281622445 15.752892699072232
Ge 22.147160387910883 16.078666336828125 16.982526596174168
Ge 7.075419609162272 21.466859108655036 17.097933280921353
Ge 21.900100124650006 19.49586328379403 13.407975111638097
Ge 19.058482929724818 18.366610542543096 18.65006758161026
Ge 18.322295693682104 20.93627713507973 19.18461040627014
Ge 14.652509915257266 11.00991219608792 20.352909199273643
Ge 16.140994099451543 13.391385741126241 17.35580042223069
Ge 17.333428408178847 19.097151214905807 20.27454529424297
Ge 14.892871523908173 16.37133405719788 14.268347478244422
Ge 14.934707972356522 12.107999430435763 15.090036958141376
Ge 19.8240106805274 15.917231992740765 18.25335081822199
Ge 20.06335353713725 19.097550219445388 15.543242510649014
Ge 21.587435775314244 17.238280873679564 14.65967566656562
Ge 20.05044839620724 16.409940479203822 12.68716801987184
Ge 10.944696280617945 13.273785163416997 20.42432732014011
Ge 21.621779153109383 21.341008091023962 15.22286969701489
Ge 19.83656067082664 22.57336104440789 18.141674589881937
Ge 21.100849023538906 20.38464466747041 17.657962524079757
Ge 11.301821413684042 12.583306875528292 18.01262705359008
Ge 12.09641763435721 11.023843904707938 20.194746129968426
Ge 12.208428310417629 11.23484884441449 16.055375275124998
Ge 13.602692466443852 13.745240533643312 17.075011612044438
Ge 15.549924707778581 16.046850333637977 16.772069538340947
Ge 17.73468088670705 17.45677910905833 16.527431873853676
Ge 8.697419621661208 20.41021513790931 19.5131445941487
Ge 13.910926590154794 11.013912678307111 17.934753978130086
Ge 21.63736208203065 17.94247850149798 18.62712701333905
Ge 9.144376972316953 20.420982108742795 17.23652517508587
Ge 12.597908462129585 13.651716486732472 14.736929998278478
Ge 17.601630839576554 19.632427629159523 14.813682753249752
Ge 17.600581558838023 16.82534947950023 13.88340266005416
