32
Energy = -127.96911722 eV
Ge 7.500795686431661 14.422617087892021 9.212563412597307
Ge 13.413584503881033 6.300883912057109 11.447941651679129
Ge 6.765944923615917 11.977575020490965 9.89316473483745
Ge 12.542422382991157 11.46737398667672 14.757673976706926
Ge 10.74363234756567 8.139785325526411 12.376377237742483
Ge 12.34761809516685 16.989326072007458 9.343998677420537
Ge 8.162952796413375 15.681093824325806 11.58273324068701
Ge 9.310841757510277 10.336227778564615 12.049700365705712
Ge 13.229567263797069 16.164676203108897 11.686311452081481
Ge 15.075702847168916 8.163133221907872 12.948832913834092
Ge 11.963861596700186 9.464519331233115 10.12894106676357
Ge 13.954328632514182 9.315140729083192 15.42197914438618
Ge 13.988234026060717 7.878851593495199 9.513071716695581
Ge 12.569336800938455 7.398326379506085 14.187215170718291
Ge 14.736743861031492 9.99098815051646 11.069068637145358
Ge 7.212408510987203 11.734488053113964 12.445583204233683
Ge 14.484961646104793 5.696253456589921 13.54832420854627
Ge 9.546394067907235 12.952635583378852 8.37153487753958
Ge 11.761628129019723 14.827763869474545 13.452518448689599
Ge 12.737389180186863 9.848544078414783 12.782911199886104
Ge 11.652678012438264 14.270982090561573 9.343421139151584
Ge 9.551354208446382 10.161363298302211 9.510927069208392
Ge 13.232780762750313 13.309030839068893 11.45649302044739
Ge 10.61641644416143 15.862826428706917 10.949919692287072
Ge 15.122665142464788 11.050452419389693 13.727397080794846
Ge 14.087293895421778 13.47781688498456 13.872091321576743
Ge 8.900074743190531 13.837240914767166 13.402879855618572
Ge 11.3069184445757 6.915577071539585 10.176813093779865
Ge 7.946118558490459 10.974570267934801 7.7958805586299285
Ge 14.15551718050418 15.007346006071126 9.54278368820521
Ge 11.086254257211818 12.223403396891419 12.49562602664052
Ge 9.017882556870719 13.13366959501904 10.925016446495974
