37
Energy = -148.63384927 eV
Ge 6.737887529757305 7.961326052029238 3.9737402638892365
Ge 7.423410908066584 5.665161804910993 2.6157257697384138
Ge 5.6610955425711325 5.443537462584609 4.590676028703146
Ge 9.335760786664547 7.075100006341058 3.962686059730465
Ge 6.2837341739614505 9.948773921774489 6.138532287939487
Ge 11.029029758326235 8.899524460440988 4.861701931579567
Ge 7.738699630737277 6.4366130939257955 5.888657724896838
Ge 3.9037831637086677 8.451893375291945 5.432004807845259
Ge 7.091734665832231 3.890406277238954 6.31045168937419
Ge 3.1451978092065485 5.897588240662084 5.754383506639753
Ge 9.08487212788522 4.506406449159105 4.495702101490327
Ge 10.479901559036227 11.865922337288957 7.60846123231282
Ge 11.960399709256704 7.092956597408753 6.518637138557617
Ge 5.0797235890534616 7.054392008760151 7.289469933481773
Ge 7.908333201104161 11.645455383448448 7.725625888308238
Ge 11.207509956624968 4.508375322814602 6.324559285747189
Ge 9.744370715479995 6.2896233097840435 7.699265643273393
Ge 7.743089322426884 8.444510408546549 7.64571357569375
Ge 9.304611549257688 3.7950761276199385 8.210653478615201
Ge 10.046513812319517 9.332884584248403 7.1766416584212696
Ge 11.77719276822949 7.152474681903104 9.200674418138238
Ge 4.398162304743171 9.507974299477329 8.176481215914965
Ge 3.245252046308314 5.293915229637668 8.443105794072276
Ge 11.763189483277547 4.4848062267669775 9.039234541968845
Ge 11.561697433522552 9.783760120700238 9.349674657527265
Ge 7.169914753795128 6.971497742578661 9.840089128268247
Ge 2.3683026447425983 7.79573802296779 7.702503916359986
Ge 9.544142496327126 11.958508165123995 10.193067206813863
Ge 5.570432805066249 10.487634947240895 11.209059798730827
Ge 4.2755271129642045 7.4030357379914875 9.827132821658159
Ge 5.946171158227497 4.961923353818788 8.5192696566701
Ge 6.8078783952191735 12.557459139998198 10.089706407409404
Ge 7.680706235013365 9.958705434394453 9.824221685655948
Ge 9.767807207353261 9.446839263255253 11.367609685734818
Ge 9.543710042613156 5.700418930962356 10.218358277434216
Ge 7.999057604412205 11.408490294608237 12.332828356188642
Ge 7.313716866171261 8.563812053557687 12.086213294478348
