32
Energy = -128.32123766 eV
Ge 10.778529088162228 8.708619702834309 16.391914376651815
Ge 13.307842553246877 12.039614544439916 15.288943465010036
Ge 10.65695431526931 11.187376414670432 15.903907287745474
Ge 12.974353462825295 9.438970337784948 15.327740432143688
Ge 10.518028293936956 8.932558898131726 13.854823090311731
Ge 15.060598108806909 10.817286847098204 12.385171783823465
Ge 15.585119172879388 12.578172249066604 14.21671903692095
Ge 11.48333769963343 13.69235800224315 16.16941172460085
Ge 13.186877198008517 8.993699930319648 12.731482923957985
Ge 15.473756402542627 10.534866374024597 9.9765014906302
Ge 8.216795816144481 9.59335810811109 12.74522265742506
Ge 13.945540296392839 8.438680349825697 10.135736258895179
Ge 9.59155121312035 11.631318886505188 13.449472975604381
Ge 12.079789358352398 11.377401881342335 12.918008663238485
Ge 9.258365243345919 10.609132852440178 10.640747247815254
Ge 14.539023837543725 12.924465707479259 10.467095425546782
Ge 11.865479991568373 10.005333661479478 10.281320276379846
Ge 11.70822201116956 15.078195911255623 13.831343726552404
Ge 9.316891860601073 13.940961085751892 14.445094300934173
Ge 13.592979290550161 13.537280814311496 12.928351626221158
Ge 9.835892260804993 8.437292075296018 9.303519420423719
Ge 9.77711624172595 13.143993961538554 10.467604064714779
Ge 12.139199845177629 8.13704956442029 8.163156660308134
Ge 12.244596178441572 12.412712274628563 9.421630826681866
Ge 9.615262206474142 15.227656759802738 12.120195795878217
Ge 11.379982604160652 10.511333055813502 7.525113426440491
Ge 11.85383583033717 14.903503504278298 10.867911880386481
Ge 8.527335277048005 10.535522880126852 7.984982582150647
Ge 8.185182828104088 13.238984840721567 8.40506511891349
Ge 12.435853648975527 12.893475676669723 6.883885336610154
Ge 9.780450023867216 12.286767607032084 6.434261813640894
Ge 10.598128954920913 14.34806278413672 8.108466257879869
