32
Energy = -128.01908642 eV
Ge 8.881674756292048 12.589355310191825 12.034477837920726
Ge 15.930687169848532 13.947740588366504 13.683869475764482
Ge 14.247953744339084 15.858720483565621 13.435133521580793
Ge 12.116557640401913 11.147336030474722 16.540534712771432
Ge 10.064821922364452 14.80466138092668 11.545003250220068
Ge 14.097033312013483 13.148757805325781 9.986029642108168
Ge 8.952471404277532 10.923485977039054 10.157186367399527
Ge 13.1149349852127 13.312677446504432 13.96603982425953
Ge 13.132802871016205 10.107118915101971 10.948780454701565
Ge 11.009837975088603 7.44701758670783 8.726018040929711
Ge 10.019617018530518 7.735863774718865 12.905553307164567
Ge 13.080400747777329 13.56147774874048 16.712402869283952
Ge 14.091714291649076 9.836081172406372 14.411992372665637
Ge 15.114693892771143 12.476651453824154 15.746145528658047
Ge 10.445181977723758 14.653987851290257 14.085708101983531
Ge 8.738596453833996 12.840110912553238 14.618889265659043
Ge 10.138243350472054 11.99304956172421 8.11809163763557
Ge 11.80840713094173 7.6063580117371306 11.127807081366267
Ge 13.625843434694103 15.586439697701959 8.873238714587698
Ge 10.996646289118488 11.740472369017462 14.282109308781788
Ge 16.55027770273856 13.014307773117118 11.400903898255068
Ge 11.508156843037716 9.941365075115424 8.932562130341328
Ge 11.78680857715999 9.616029461979819 13.143450088907908
Ge 11.325549416193596 12.12816768584398 10.880142127376093
Ge 12.838153582534908 14.866438633068892 11.45995648479732
Ge 11.317256244390894 16.524710911655504 9.937358259826773
Ge 12.40334278325209 15.720026399238645 15.367561049770732
Ge 14.51829261990465 10.203580245077923 16.84089997820102
Ge 14.667206411304054 11.542010482274042 12.52792659533747
Ge 15.562495577379893 15.424301060581685 10.901807869206825
Ge 9.243425926986275 8.336149061507017 10.464337301318189
Ge 11.381148630749667 14.090151909110443 8.98951587055707
