37
Energy = -147.20136135 eV
Ge 12.264295384846715 15.192084666821053 15.758005289111207
Ge 16.19633605944129 18.49231084698886 12.599477753865424
Ge 14.409765598455994 14.29612031598718 13.015447403656061
Ge 14.657490339942214 13.65794294582125 16.804379768464347
Ge 14.288846200259014 14.579532735701408 19.515031325979947
Ge 17.582390364141663 19.80544623813284 14.441537442789116
Ge 14.620468718265677 16.776019200191016 13.930741932807026
Ge 11.428201984421753 15.534388128236905 18.202594954624967
Ge 17.35155044817066 14.014134132446971 17.28377619374265
Ge 18.391254685555086 17.447279089792893 11.027647928962898
Ge 11.64424931117535 14.36567090135478 13.399111551126493
Ge 18.84247273037226 17.613270308067403 13.765639577808022
Ge 20.56560933434172 13.491230381118179 14.951728565671445
Ge 16.729812522805766 17.406533493572855 18.05707074457237
Ge 16.89911528722483 15.739084419416756 12.677215289334622
Ge 18.392836213584932 15.121920003515037 14.990759535525367
Ge 13.848156299986918 12.129263272581255 18.747332461788726
Ge 15.882519034730587 17.510375041228805 10.17946894060261
Ge 14.417274275755247 16.28559247627161 17.52714800734996
Ge 10.660470986982817 -5.276663923241827 17.49231483469964
Ge 17.259126735380523 15.149747892239414 10.238678283006244
Ge 14.54030796574156 15.190698753544853 10.50205676091495
Ge 13.04268296863075 18.26411011725897 18.40406286251544
Ge 19.641110129382096 14.732815089342521 19.179613001305164
Ge 11.782443254583148 12.916232500892438 17.31602264317697
Ge 20.661741151540628 11.049428873840519 16.125606944086716
Ge 16.398607169386786 19.735914111410832 16.923418964633157
Ge 13.163660735125276 12.700223556331345 14.914646149035685
Ge 19.69872314397762 13.038582042853623 17.328098286420296
Ge 21.647723973375395 11.587111217715604 13.936191751342006
Ge 11.853083050894245 13.679735437390065 19.929394078566045
Ge 13.894461225491092 19.895923785902646 16.513302044825227
Ge 18.974884450170002 16.31228754472845 17.24212659335195
Ge 16.610003316284548 17.465060355060086 15.404104025445992
Ge 12.814981477453252 16.350947566990154 12.120881862758186
Ge 12.58099180572745 17.892112441540707 15.708623294976222
Ge 16.98943302638908 15.215522430985308 19.556553210916473
