33
Energy = -130.43366856 eV
Ge 10.680131737252168 10.22595911424284 15.84409226942023
Ge 12.570527258943349 7.987582776072103 12.637423136026866
Ge 11.389466214181324 16.795534382107736 11.793271489854895
Ge 17.058190855247418 13.440942654052783 13.070863222766471
Ge 12.204557060591483 10.21523360449851 18.01844739848472
Ge 13.436387191081531 17.531018497975957 10.269640916009756
Ge 11.47250127165459 12.329500071166061 12.43160249254895
Ge 15.599292404227059 16.646972770041206 15.703150396970923
Ge 16.688752639885607 13.219590981152992 10.084774007400567
Ge 11.86053735541158 14.88020882913017 13.992521903955227
Ge 13.745045814056088 13.424874978556408 17.47900178860258
Ge 13.765548538901522 13.044351046175176 13.996010675735178
Ge 11.977605043402438 12.500012492957394 19.29743115824544
Ge 9.028431772701838 12.550205906872977 15.667191766537679
Ge 14.296462861372815 14.248714630715044 9.91665758310432
Ge 15.736831997560971 14.086267408599303 15.502822732371618
Ge 12.28947937454917 10.26710141322121 13.738171835624371
Ge 11.274985530461601 12.634402269069634 16.881659460825023
Ge 9.546526049503461 13.838899040821207 13.396270034326275
Ge 11.588968639204326 14.751684711688744 9.91182781457527
Ge 11.127767609619905 17.036728669677945 8.98489032934776
Ge 12.016842257961738 12.264242077882846 9.930254612087035
Ge 15.069226063695464 12.010085862233053 12.078942626265988
Ge 13.626177162545554 15.397075082283784 12.040639399665775
Ge 15.751818478054814 15.948857701078534 13.250371325494841
Ge 13.308651483801961 15.588485466141728 16.12346184184431
Ge 14.765276319443824 9.516758951821581 12.779088487048847
Ge 14.832013388028196 7.216929170032451 12.071645887343285
Ge 17.416628348608832 15.34493401259226 11.397992958387938
Ge 14.507866924378856 11.507067301201896 9.64810193966758
Ge 13.360999926195552 15.911044662712149 8.116355024390243
Ge 9.392268368988201 11.061024360394333 13.527101219692721
Ge 13.449178619987782 11.219434415204592 15.973775704467474
