33
Energy = -132.80241163 eV
Ge 17.85215408493297 10.960862604068664 10.950071154868263
Ge 16.516211180216743 13.180397051662968 11.211263223514482
Ge 15.929240602849411 9.216895519125313 11.621131989355929
Ge 15.726815280583216 11.153205173144817 9.400429246742682
Ge 16.89819509441385 11.276673391530828 13.371261037237065
Ge 13.970526268604251 13.039112928763897 9.828117851464125
Ge 15.07107744578318 13.253691607036068 13.60128093480479
Ge 13.625205814431283 10.512033233102652 10.847336909086938
Ge 13.72162634332258 15.06762371031748 11.638044655655547
Ge 14.359162691307109 10.566065515413301 13.330088096294231
Ge 13.117460890486464 9.280160960466027 15.224299020376607
Ge 12.627653252572788 12.66190917479694 12.315563927039332
Ge 11.833972920480221 12.764445703004093 8.2784304524709
Ge 12.471232889594887 15.528659410568466 13.925943013706457
Ge 13.521229302389715 12.000212170725455 15.657307303406125
Ge 12.375316960012192 7.977802416565521 12.781322420543246
Ge 10.66481508430096 17.25730260687012 13.23181279616532
Ge 12.094681674674984 8.587691282407226 10.20897556398376
Ge 11.244596757541618 15.76069594550477 11.31895132369269
Ge 10.345346047426583 14.705640547808482 9.047289622139063
Ge 10.575162041965553 8.670291839874734 14.602995778384413
Ge 11.345875264271342 13.092223658842842 14.437887598293472
Ge 9.56925863805131 14.972017342611208 13.751182173211602
Ge 10.291750664343123 9.676184778862622 11.765764580850776
Ge 10.67642392453127 12.429158715446748 10.640184189774015
Ge 11.033239553078639 10.880629949393324 16.04254536305973
Ge 7.708759432143793 9.447476049402717 11.371172797928779
Ge 9.708077303823416 11.103004326706175 13.713182967365553
Ge 10.430356313798095 10.48176861943466 8.904111477794725
Ge 8.685628497650487 13.81922667436364 11.580450890500016
Ge 7.479596072005339 11.690411338126157 12.636090699930838
Ge 8.141140927968806 11.397235333706485 9.808586468574047
Ge 7.816153870655562 13.974352801772365 9.210256842387023
