34
Energy = -134.5969756 eV
Ge 12.350133392169438 15.219430566920432 12.48885129224092
Ge 15.088044073716254 13.319639949776297 15.605583410582861
Ge 14.396219685157577 11.771834286460487 17.50017312986154
Ge 16.018800144995787 10.931079490551204 15.325119683243273
Ge 17.550810250825627 18.259990881334488 13.386613197171581
Ge 11.864790507733472 8.473910532867713 14.394930860695158
Ge 16.660450011015403 14.879563921311162 14.405461108469447
Ge 15.102736187490981 19.65405487891298 13.792640987710003
Ge 12.760141653898657 11.110906022035058 12.719548085868292
Ge 15.968939846937818 21.240624616999625 15.626621298590635
Ge 14.547358669457068 9.438391601925526 13.702429120861062
Ge 15.536692619002054 18.82541074506482 16.541168932933296
Ge 14.434489428364445 8.675587098963115 16.607896925964045
Ge 10.218306943696987 10.797731935773347 12.69233464600931
Ge 12.744619575479359 19.277519005436247 12.78867150907995
Ge 9.694349130750526 8.433542866309871 13.2361540072625
Ge 9.779448088450867 14.305680182058737 13.365885190632943
Ge 17.786965773049204 17.16064892767498 16.001944049638848
Ge 16.24625246715849 15.853462529005984 12.089451483102277
Ge 10.3520394481535 14.9319765623612 10.925972009824491
Ge 16.415352562294895 10.031974905256972 17.609064819945004
Ge 9.02083743355749 12.77393603534581 11.518099759796682
Ge 13.944486698172835 7.062670694330448 14.6359186556006
Ge 12.89345335855118 10.512077518357417 15.766517816172405
Ge 12.624948919596344 17.169886400075594 14.357531694551929
Ge 18.49843610660886 16.91158422610756 11.494944888417328
Ge 11.415725768337104 14.851953619151656 15.248306990867896
Ge 10.99222977854344 12.057408031121136 14.818120825172198
Ge 13.283337421069781 13.330373956949105 13.824783314069128
Ge 18.996462410689183 15.879202358470089 13.881964469631578
Ge 13.976065088835032 17.172921164917813 11.998520197407458
Ge 15.187496076169545 17.007110719169177 14.644999626445092
Ge 17.339833828646373 20.830420882122826 13.237665316392336
Ge 18.06291985278541 19.77707382367158 15.66486918356497
