34
Energy = -123.0255221 eV
Ge 11.91662194685677 9.904140248523445 6.408328672792022
Ge 14.427088789457668 13.516604617338652 6.103194256939798
Ge 16.616591782774808 12.526591757312781 7.976870851111743
Ge 9.286458680198207 10.847350340327356 7.608684292641899
Ge 13.616381566500726 8.08725818314166 8.19773029497512
Ge 13.227249163189963 16.117972542035048 7.211484771212667
Ge 7.5505355464046175 8.472408214649072 8.206682291283508
Ge 15.744956839631314 9.970932390394747 9.437097037586456
Ge 10.631317579897358 14.425900407739137 7.0809168059264715
Ge 12.608812448954787 12.290856957897466 8.145989388375003
Ge 9.159970453156932 7.074571862978173 10.43510516628568
Ge 11.910357845212724 8.479683940403783 10.67103003388345
Ge 15.853964821971829 13.898028046064061 10.719284279046695
Ge 13.884491204903902 16.1515938368234 10.176871283852334
Ge 9.195724536170077 15.495201677104054 9.551442812649295
Ge 6.012615789967272 10.539967511436712 9.889107241399483
Ge 9.973561726772115 11.309645983601385 10.628910695750845
Ge 11.59653765098861 14.359128298492847 11.121487596314948
Ge 7.9520488416441335 9.439106551217069 12.03948210282691
Ge 7.5685130530351 13.143252073991942 10.780714272407476
Ge 10.965340922452405 11.093945415200375 13.946683805939122
Ge 13.930389648225503 11.622772311928975 11.403185439791327
Ge 14.900941984169556 14.82022007492848 14.010640503229682
Ge 12.78250989806902 6.48214494689288 12.828774196409121
Ge 8.215898399378782 12.690896598052504 14.610816750463663
Ge 11.882701643872815 15.290513334471195 14.02498145931072
Ge 6.842065723343121 10.388469142962931 15.978610264792694
Ge 12.76183647590267 12.873010485232257 15.72440330562142
Ge 15.232046303064584 11.79649643170532 14.224235174787994
Ge 10.262900463263474 7.428963551287645 14.17249493419631
Ge 8.204548653584146 12.53264777691207 17.612999324498542
Ge 13.155175847148088 8.822333356319046 14.794026330431597
Ge 9.809699520811522 10.042893232039505 16.640736247026897
Ge 11.570117863093524 7.314471514662065 16.886971730307753
