39
Energy = -156.63651039 eV
Ge 12.506170685357578 4.977975032701793 7.4821646762948095
Ge 14.144014446632488 8.399964280604923 9.084771595062975
Ge 12.176361650132625 8.703875928207276 7.347859829374789
Ge 11.37990951088879 6.611018278227835 5.801640154932101
Ge 13.049743243060213 9.265019790179814 11.323445762685013
Ge 12.45465367573565 7.686724088209757 13.335553734090299
Ge 11.44920497778543 5.75561162274453 11.692399489294646
Ge 11.641927037231362 11.263677690416765 6.631050818569095
Ge 13.085799981222847 10.971996360522086 8.946777676771209
Ge 10.122794484123888 9.231587955898874 5.506452227671441
Ge 10.032540551873176 5.175187860138549 7.829546138489093
Ge 11.965080835236213 6.814075240810019 9.280718320400315
Ge 10.480645205823835 8.826022144394196 11.63278245215854
Ge 12.155314725737886 10.6132021327719 13.701292547443048
Ge 9.851417029889287 8.878803382983442 8.844017715100772
Ge 12.581845991306839 11.91564000841438 11.34630587268585
Ge 8.084627064353478 8.28003973985741 6.9912663239260375
Ge 8.918053389266236 11.554546065974527 6.640961084597963
Ge 10.472204252165517 13.409936963528686 8.059273755869604
Ge 8.807964363758122 6.131757309202851 5.812471878365782
Ge 7.520182128994911 10.098059389334367 4.9148214958006315
Ge 7.901004146105065 13.90361559552355 7.298917212985823
Ge 10.13515647115531 9.118084640818399 14.405000244637737
Ge 9.293161397557569 6.409622298711587 10.145200510377732
Ge 10.385706879618352 11.362920410643605 9.830309933126205
Ge 7.540276920613323 9.315388856678743 10.620405171906034
Ge 7.441573536959482 11.1761639060248 8.70608571056563
Ge 8.4677442704311 13.467879095241123 9.917397676222063
Ge 9.638407745123585 6.834105637339642 13.217697663216011
Ge 6.451876108383705 6.949537299191702 10.119531917601941
Ge 9.8845782984089 11.473179992880272 12.485765109762102
Ge 5.768615826927475 9.375821153361379 6.886005560606844
Ge 6.082710613670718 12.120891324004011 6.155160769872132
Ge 5.911237168128876 12.947523182127668 10.149569472516195
Ge 7.551873367220432 10.0032285682314 13.144294471127857
Ge 7.149507387995653 7.457140902266399 12.567160809249446
Ge 4.906709861685833 9.156236628805509 10.098312582753337
Ge 5.640413706936243 10.928492326535887 11.780732933631015
Ge 4.749435188207282 11.361634267552015 8.378240610246882
