31
Energy = -122.74084188 eV
Ge 17.20842452568946 11.590496316945533 14.755948643535937
Ge 15.888857917916726 13.701726992185689 15.32124099783263
Ge 14.110786043743301 13.356685681247885 8.777978384259727
Ge 16.350486143390956 10.222360439583547 12.45840420827127
Ge 16.020660189400324 9.144578720101253 15.125569074908386
Ge 13.438636008766048 18.278429668638857 12.257995067872749
Ge 9.5741075967912 11.138312996045654 12.531943618553386
Ge 13.127131903929639 15.436798585044844 12.309459220961736
Ge 9.512392840815354 13.54294223932796 16.04774165169226
Ge 18.33302060716501 9.495507999940006 13.886536574749464
Ge 14.984237438018507 12.447297943951817 12.87728782824658
Ge 10.8799336015381 11.763808953862899 10.347034947055736
Ge 11.59802967471743 13.00607220892109 12.560002305590736
Ge 11.989862950273556 18.38982179758828 14.501316982110417
Ge 14.151493423123403 9.432890209117334 11.1069984828691
Ge 9.838029767032621 14.622003368276378 13.743241024496346
Ge 12.769080458510425 10.094056658420765 15.823975561822845
Ge 14.930441872963476 14.674947136659107 10.66570530896796
Ge 12.211646249086083 15.889606775099747 14.889720629850109
Ge 15.243437942484627 11.182676496991455 16.690538565877596
Ge 14.715800545157174 16.58948257852873 14.2449925789186
Ge 12.040990669320864 13.955399823617768 16.54890297303737
Ge 9.207576787064049 13.448680401573277 11.302568003630434
Ge 10.981474984177709 16.921535101909598 12.592520760828362
Ge 13.96479966532988 9.793499342544079 13.635658144413684
Ge 8.681514135488207 15.918823112539418 11.83123703647736
Ge 10.805017411134727 11.710909475297708 14.84409154699946
Ge 13.497678492363073 11.88572667820733 10.700094256287757
Ge 15.598441772236624 16.963399815168646 11.819333450493849
Ge 13.533505002351394 12.513420491610292 15.031781070748018
Ge 16.654983496404753 14.57614468149966 12.714261555416266
