31
Energy = -123.66780768 eV
Ge 13.898906187151429 9.70884931373203 10.007456818123908
Ge 12.472521252514898 13.826332496381843 6.560206989791414
Ge 14.229328174078775 15.634753177481844 7.25812576675803
Ge 16.079570973326152 11.33722300602819 10.50280054307466
Ge 12.44801087447302 11.892111874633457 8.463045051114525
Ge 15.270022129754013 9.651676994645525 12.317487346328855
Ge 14.531199170546685 13.393092735823938 8.43024728338857
Ge 13.635207631973348 11.837602815492199 11.634365131953064
Ge 11.784226432272048 9.482015888979365 11.484732570053644
Ge 12.042968625714705 14.766988005342306 8.900291389761396
Ge 12.259099134791605 8.900304094652842 13.993982776530327
Ge 16.311685005649615 13.841212852575874 13.559574477911273
Ge 14.726160543859633 9.306155898218602 14.791508189075703
Ge 14.173964377279916 15.255761215208913 13.58502008690334
Ge 14.156006727745334 15.808439629944273 10.00970530541361
Ge 15.309560245659442 13.787060032805686 11.148000112862922
Ge 12.834231568526187 13.329484772888549 14.749790570416677
Ge 9.648594575625673 11.023202996403624 11.30637803993868
Ge 11.271625722523677 11.253211690797032 13.613371107971478
Ge 14.746819918350239 11.7842605925746 14.011414622082597
Ge 11.381518562311015 12.849792469753476 10.713039646846694
Ge 12.808638324457139 16.824279296510788 12.153317553444458
Ge 9.72159323685278 9.166187859731009 14.853668395318076
Ge 10.153563581314465 11.116119791221601 16.285875244309654
Ge 11.635762462300736 14.61068996593316 12.562609600817094
Ge 10.032109536527306 13.722551064366057 14.442943874019278
Ge 8.642900317691007 11.494414045277969 13.761608413095196
Ge 12.169594824170986 12.392685139872668 17.30949582394323
Ge 11.330834879457582 14.169250724442605 18.84977700087146
Ge 11.423588878184017 14.997277180602381 16.35058387155744
Ge 9.45725716843983 13.32537192915822 17.38954821501074
