36
Energy = -144.34906368 eV
Ge 9.99860610386791 13.299943186343784 13.361839408105562
Ge 14.37593557704509 15.39087250990634 9.721239602877276
Ge 12.64923076364047 10.241168119385232 16.940574607173186
Ge 12.721104407532566 10.869090500263948 11.061088046402423
Ge 14.317148571285424 16.16412879747066 13.977100482152874
Ge 11.573387404104064 12.970097866343231 9.619705344416237
Ge 16.73657498230884 10.097021653601535 11.65137217854242
Ge 15.75617390229089 15.214615226135205 12.057815381204042
Ge 6.675598048431627 11.80080356018415 10.79665910980214
Ge 13.031144000501833 14.317001999471765 15.254437574165669
Ge 12.209131167282587 14.582816515305227 12.476777499947682
Ge 13.480851583926434 11.804402280481925 14.908127201872809
Ge 7.568326146250624 13.876899032584449 12.230938403443357
Ge 16.342066034351298 14.322963322118945 8.241086462709584
Ge 14.59879837824437 10.916632189530237 12.796801174374984
Ge 12.809432983251002 10.800428859151888 8.439729569387884
Ge 11.288727568606797 12.492211069539513 17.922984541350925
Ge 13.890892109694818 12.029582341435889 18.62677952561448
Ge 8.5639586894491 9.948589782571814 10.840023002208028
Ge 13.33383947043637 16.917098556509735 11.66895964677368
Ge 16.838758776359033 12.678525306530142 12.521010538869167
Ge 14.501350554277249 12.660538560149124 8.969596971569443
Ge 13.294348333615428 14.559647664462549 17.978506703115936
Ge 17.749943407357037 14.416458471972165 10.58372943607351
Ge 11.709237195909813 15.534531170694954 9.9733633788313
Ge 10.871637626285738 10.961776566452922 15.196138766140104
Ge 14.11475321340692 13.220052951769247 11.559785924088928
Ge 10.972327846887381 14.95237383207036 16.623406168480827
Ge 9.394451051824078 13.000692127854911 15.911756044823154
Ge 15.189885340566619 10.047670618431614 9.45930804047476
Ge 15.244071110252134 13.342901780131477 16.601839783702953
Ge 9.172491022398711 12.53053791124194 10.66679470709082
Ge 15.209184475508406 10.719798681807664 16.57856779858116
Ge 17.056134629535162 12.031533430643606 9.720873081675316
Ge 7.914755368952417 11.307132695382215 13.08108121488207
Ge 10.550355313186179 10.79054268628616 12.528515992216885
