32
Energy = -126.84506245 eV
Ge 16.946019649121634 8.293778489255416 14.165874490433035
Ge 14.637673089182655 14.470641671767103 13.393787491396797
Ge 12.543475651065313 12.388615572614393 18.402418887599808
Ge 14.61243028739685 8.305124534358292 13.259722995274942
Ge 14.371273301433158 9.850009248202028 10.973203630435325
Ge 14.263014124548892 12.33626235146391 10.275063435136754
Ge 12.964917716197629 17.850834209461667 11.912619104803959
Ge 15.69535573981197 12.242587769513399 12.462610278749288
Ge 15.550753604588694 16.11844867533803 15.260887626916944
Ge 11.693899862290884 14.453016890261093 13.365906440668557
Ge 9.606967604564774 16.188752799902886 9.86665895596929
Ge 15.579381209600433 10.5520561851502 14.51159451058198
Ge 12.85857748122233 7.853517346901985 11.3266127199851
Ge 9.882845222759158 11.20712958648012 12.414770110104238
Ge 16.74845584522055 9.680496178480476 12.01110358826934
Ge 13.501693389947162 18.083579601354558 14.568823471114822
Ge 12.968525761951893 10.348629524134646 14.25944348282424
Ge 11.707002826961947 15.60926111221226 11.189101153377345
Ge 15.192657800437003 17.818747832083048 10.528555665789158
Ge 10.608756610749797 9.155497256852403 10.951361450778219
Ge 10.947623234090713 8.92057394249215 13.545416962409515
Ge 8.252213734471367 14.40769513158661 8.79877913126898
Ge 11.784028956644333 11.482095798573487 16.22955084380526
Ge 14.267271430747622 15.426670922987476 10.926648074123689
Ge 12.910528344258827 15.717562036770673 15.205496392693837
Ge 10.17180860237959 13.311253922336599 14.991908143586738
Ge 15.39150605524256 17.159298036518013 12.943278285077273
Ge 11.673858535330599 11.574949664045636 10.376350403587624
Ge 11.702606010895638 14.114763600577811 16.831460408924404
Ge 10.211602140734279 13.636482622495208 9.918087870722234
Ge 9.4982494874143 10.763798682587856 15.027706101780248
Ge 12.798007122811349 12.278105085479828 12.639731508441063
