37
Energy = -147.10273725 eV
Ge 19.11517031595699 15.683774381960239 16.581387420971538
Ge 13.06440361758831 14.897007998485469 18.03102926796219
Ge 18.485535652409155 14.810932717589798 13.83766814282915
Ge 21.802130137510684 14.803965472876948 16.130827384614683
Ge 15.415097840534928 10.324096196117695 14.988157608493177
Ge 12.945825085497805 9.805634721585573 14.516099058134373
Ge 10.86584504850204 15.568821345817412 15.599643321708573
Ge 16.549560310195215 19.72977459528868 11.814109780393883
Ge 19.660341609377564 13.173101363786845 15.489943837305773
Ge 10.926390656464802 16.559071745277414 13.269485043048862
Ge -2.8120545680450486 15.73614674954095 11.933372486257461
Ge 16.697393757034646 17.3466824089473 12.804254925701086
Ge 15.900986884534127 -2.7571450132515345 14.335010837384496
Ge 14.601121609400922 16.461392475674796 -2.2188064673409023
Ge 12.391094461806507 17.949159264182057 14.79186971986871
Ge -1.1409168060218593 14.327544141300626 13.356379370769575
Ge 15.521448671579071 15.032283022025812 18.48948243893705
Ge 13.546514600340503 18.55953574674266 19.350586860486942
Ge 11.909621782303663 17.280056086515017 17.288158101465747
Ge 20.71501000572357 18.20791126832781 12.624436174536072
Ge 13.394166540705465 11.079824992099454 16.765115650020714
Ge 14.98319746740423 17.039014844682498 14.764643791955823
Ge 15.80113129340095 11.114143944071465 17.499061382509613
Ge 10.974095109177354 18.499821872082524 19.31203819165143
Ge 16.622038756297673 15.13961827738376 15.486785369917381
Ge 15.352251657400178 12.868606664963862 15.387631521428618
Ge 20.46983410489398 16.560712953572136 14.536240075284484
Ge 13.149669013884752 15.364371575596984 13.848700808999107
Ge 12.864911934193664 13.626231276066015 15.785050410852646
Ge 17.283219057693653 13.39399363231946 17.506537187587725
Ge 11.315981782565435 11.648442288751733 15.229493358270359
Ge 14.637631168621647 17.12606518049669 17.370937649708278
Ge 19.076487113265806 20.173493083337416 11.584702226564499
Ge 12.030082011198589 16.27029320780135 20.056137007874053
Ge -0.5415263248729354 12.504839638409383 14.87232179051954
Ge 17.844370556799067 21.487742641508227 13.49117570415613
Ge 18.385816265151885 18.937195526702112 13.911672341311178
