43
Energy = -174.03455979 eV
Ge 12.42407099129336 11.593288149205012 14.800834415502653
Ge 11.77607476932887 10.506945770571143 12.485141150807772
Ge 11.880402738569048 14.193782546600035 14.158184133205996
Ge 13.455663780122695 12.697467755157431 12.543612977242972
Ge 9.929555563401323 11.906168956184683 14.1161460368886
Ge 13.710727476885253 9.793550004177854 10.354116436763338
Ge 14.187748101241867 7.6592915655518885 11.633936109895082
Ge 13.034206040982067 8.397180487773195 8.318569820670104
Ge 11.456580647041225 8.573497462988938 14.055430406142507
Ge 12.809352449040517 6.419786974825903 13.334797419584067
Ge 14.751132586193203 6.629470944284383 9.415617318783113
Ge 7.793598681280128 10.539162491672252 14.8712549258765
Ge 9.39334163705613 14.248948188948765 13.150793915210338
Ge 12.830599328526654 5.345781061181537 10.7802517791657
Ge 11.477916723950539 14.35408366348968 11.468984926275185
Ge 8.988547542398084 6.153913032382312 13.14251297819753
Ge 10.931349177269206 8.954362934359446 9.818647009291066
Ge 12.07123944941997 12.086532247354778 10.189020904501266
Ge 6.8365933779837675 10.449308347980232 12.511635112426626
Ge 12.161217607480397 10.284766513361435 6.677490553482119
Ge 9.751377481916894 12.097051366818658 11.423422250449365
Ge 9.762315161306008 10.686782598956245 7.729785459007333
Ge 10.871581136305815 7.077706828871369 11.571398506533463
Ge 9.027277206988284 13.289236754593857 8.253581777401049
Ge 7.8998471122793 9.089964996364902 10.413918896198163
Ge 6.970308622098043 6.785238819654465 11.710595480366068
Ge 10.501974154772514 8.309383308418708 5.819594860343496
Ge 8.531874839847756 14.668467862735296 10.541417982553957
Ge 10.885043590539624 12.591107232725628 6.175420182195766
Ge 11.556802792362019 6.302346272332679 8.666245027803186
Ge 8.9276524469693 8.518523592667382 13.978820986121107
Ge 11.624606466015273 10.004045760228038 4.153508598619321
Ge 9.273182192833259 7.491823270007396 8.165493599434285
Ge 7.267015512511296 12.443384255734658 10.902317908331565
Ge 6.77911513389461 13.13379929069734 6.9679709512589145
Ge 6.952046429154302 6.945484210727139 9.161920851330088
Ge 5.302106197792523 8.73445531866351 11.488877717141373
Ge 5.475769818210404 9.084099319277716 8.88632352314909
Ge 7.006294516518519 11.234680622750165 8.659367421742319
Ge 8.39335701958392 11.734332633092672 5.5424138445044795
Ge 8.910651250276441 9.449462342162045 3.975212954794713
Ge 9.974439030467025 11.952383701371701 3.594245135304402
Ge 7.874850433614171 9.279242878872891 6.4476275278850945
