49
Energy = -197.23976512 eV
Ge 15.303704642583181 9.699820465642205 11.253579755000828
Ge 14.404056981434799 10.222308650325902 8.656958224751728
Ge 15.063101172694843 12.309812373438351 10.056629147320342
Ge 14.636926644297631 7.495295813512008 9.826022421476493
Ge 12.62939884898803 11.553450427004723 6.8392399341927765
Ge 13.34084723852345 8.053207032247423 7.587410913989393
Ge 13.350245354450081 13.762360073666986 8.432575333864879
Ge 14.06946627224598 11.93764161470528 12.670516377984846
Ge 12.94275620787199 9.567137260631835 12.493342944219968
Ge 12.444098533854323 6.138566491197103 10.800094146295136
Ge 12.225477979308435 8.850541247229794 10.081692562530959
Ge 11.515015137973428 9.150021202919953 5.913599593412093
Ge 12.52053855845885 13.371595318289643 10.996295342193537
Ge 10.918367274317022 6.5426492442024164 12.821687585636683
Ge 12.055026334426287 11.437509174868914 9.417081911590389
Ge 11.257589940012044 6.504287965629373 8.356824153564446
Ge 11.484475905748063 13.942990040624037 6.278448343317123
Ge 10.565649571454006 4.414118562391957 9.972512180009888
Ge 10.250241681404795 13.65786827506953 12.512102695483692
Ge 11.615253752108393 11.663277725705209 13.684879281748115
Ge 11.708151017435588 8.42584694822284 14.453509328022
Ge 9.70554706497837 11.127990639929308 11.672502075206754
Ge 9.344408156719906 8.557877696202837 12.387711026780096
Ge 10.062317006184099 14.499874562556275 8.45012795629613
Ge 8.016676234614856 6.589058064571775 13.812770891302062
Ge 8.594746837176219 12.49354168564367 9.155722182509646
Ge 10.154908108716729 10.087040967479625 7.978969037310614
Ge 9.37036915350265 8.010227140592374 9.651797636605128
Ge 9.15945207112783 4.715476174833331 12.28016068105098
Ge 8.406412225122747 13.579428498684887 6.408822392176152
Ge 9.276112828183836 7.624689877693086 6.859847945910801
Ge 9.594493473913852 10.134518719923024 14.464514586737186
Ge 10.276360685448637 11.654086311663018 5.406808064676285
Ge 9.43394541571145 4.729836541043155 7.628579223384177
Ge 8.715263755582907 15.011960000137675 10.71657788721535
Ge 6.740745321240289 11.110303776589918 11.864889607712584
Ge 7.255831949451861 9.610087710046649 9.671559446204414
Ge 8.119983972981375 5.719136970310499 9.706907818070848
Ge 8.238709185090038 12.23419948187453 13.65793581409354
Ge 8.007699778884202 10.762664212062544 6.573196601181251
Ge 6.6724387720838285 8.418438423572436 12.413148896849467
Ge 7.307064949215754 15.1595155149333 8.346570453721483
Ge 6.468032085004912 5.765553420714023 11.762703524973858
Ge 4.718874515205336 10.332963008265835 10.19598106096819
Ge 6.130615085648674 12.763924097768083 7.795480491870619
Ge 6.536866924638545 13.545611465669923 10.411605040373322
Ge 6.813202990809383 7.510479715633752 8.008341323760579
Ge 5.30146861932749 7.736313827084408 10.234646570790707
Ge 5.569636071701754 10.107467874853125 7.669691873521123
