42
Energy = -169.53961299 eV
Ge 9.011745255476479 9.063511613617857 2.99720379776818
Ge 11.671316294167875 8.989722580062743 3.720332989075157
Ge 8.333938708178914 6.868446445464069 4.158556969796472
Ge 10.304397743516066 11.382527216955475 3.802946949538969
Ge 6.2978102461538255 8.810910365940467 5.670286445929721
Ge 11.67761470510019 7.228629079303906 5.881300395110842
Ge 7.649168584748187 10.837144325819889 4.564832025916571
Ge 9.69700379847895 9.169813991489558 5.691948273222921
Ge 10.075059452868143 5.1862850509685705 4.949756177501372
Ge 12.10182144748194 10.771820124562204 5.664767278130884
Ge 5.8531116895954725 6.597385294100436 4.432219349483371
Ge 6.4989348042389885 5.454634486544813 6.652052223912196
Ge 7.637679833108362 7.938295399343551 7.713933951917245
Ge 8.432291162512913 3.757379379180929 6.51112081046805
Ge 4.832106635004715 9.309643345773408 7.72530682143125
Ge 4.352933787888644 11.964803954722834 8.007081451080229
Ge 9.678090218529395 11.737679000443332 6.420616118967628
Ge 6.762367180625287 10.673787466117316 8.904562625845024
Ge 6.687124589203959 13.115679916013569 8.321662133799093
Ge 9.466574347570807 8.880507284260672 9.224463702176662
Ge 11.787169530736584 8.296893656034182 8.304146477672782
Ge 9.205109113413545 4.053922979053751 9.05409315974742
Ge 3.7305124008860275 7.3977910741891435 9.185497689248104
Ge 11.678718338765355 5.5020768519255565 8.563434295677274
Ge 4.865433477322301 5.004653844364907 8.576110960944515
Ge 6.33223318943497 6.975621174786007 9.63016537213521
Ge 9.329603683942679 6.08929254365643 7.333027923874574
Ge 6.839342937635949 4.520773733105592 10.292308239424411
Ge 9.35217283347411 11.208400613739466 10.28115310016537
Ge 5.308551671697205 12.47317384439637 10.493253108225913
Ge 11.472865171687742 10.91553400827536 8.373539896960878
Ge 4.803730357776952 7.973191887262604 11.572910846273473
Ge 10.837364253329596 5.033625113110577 11.065617645494266
Ge 3.6065967569142994 10.517701088707302 10.09510667846935
Ge 12.575095000304966 7.182937803129405 10.52376103812889
Ge 8.307590469421712 10.758127404502547 12.754308007271755
Ge 9.133008725120076 6.969840444003656 11.006615744941417
Ge 6.285316869345976 10.042743161266676 11.34553982366384
Ge 6.776688413622257 6.3246539758861555 12.34221831141673
Ge 10.637025175772703 9.417351011629018 11.728145411341702
Ge 11.204379871025031 7.245527271780219 12.953873822256838
Ge 8.71872642931677 8.165885349906233 13.31854711098982
