43
Energy = -173.45942223 eV
Ge 6.474296298713918 10.108068815575237 5.925961064459204
Ge 10.09520469376734 6.383851367109772 5.4137920753344115
Ge 12.819465797913205 5.775996411116461 5.608387045602993
Ge 11.996018114475309 8.433398897563714 5.7342869910853835
Ge 7.782122771496312 12.294633390990159 6.657978038980423
Ge 8.195713703931238 8.121748693154728 7.22450533193753
Ge 10.225132281918963 9.829677588061736 7.2049117784968155
Ge 10.3250102326821 12.158041729187326 6.1504068738484134
Ge 4.539826456736489 9.755137144708398 7.71725796016956
Ge 10.957615138330043 4.1272796267929435 6.608543266829102
Ge 11.48919709728585 13.48826398674166 8.175943980177117
Ge 8.816842789407842 5.467396776705623 7.712318133161304
Ge 6.789052702242629 13.230989628516424 9.116146383328717
Ge 5.1465221852558924 12.327507248403926 6.924101161121733
Ge 11.40145348261852 6.839044706430016 7.893345206362969
Ge 7.0894348884567355 10.691986246327147 8.586536406682807
Ge 12.878308152631144 9.906164022286413 8.017130959919053
Ge 14.099832843091745 7.447804103882644 7.684233999322915
Ge 13.280042325605203 4.805482135791426 8.061130520753297
Ge 6.278950242955269 8.425521431337947 9.396952397988727
Ge 13.515046732999453 12.215640542983358 9.456793613174149
Ge 10.92749921963032 4.625850171521886 9.380639648437512
Ge 4.704454440412737 11.688042597692705 9.624877382214839
Ge 13.337975792979172 8.390360315191343 10.196853963573234
Ge 10.816636392885732 9.351531692932468 9.783306284341926
Ge 11.322450515192886 6.764538173578609 10.914332967983038
Ge 8.91837419668092 7.34880069527463 9.780785462388206
Ge 12.556491199935913 14.524779870441133 10.480495399901024
Ge 10.851457630597142 11.969431552629148 10.236540137840228
Ge 9.163188216811092 9.573781886315777 11.973095398191834
Ge 9.816651194468564 14.44301785817211 9.8993244133906
Ge 7.932150810120562 7.219675202864266 12.235640558163237
Ge 7.8308519041442795 11.821593149510903 11.502875888680313
Ge 10.365852508643709 7.29365349766277 13.269340213557799
Ge 5.908490170792201 9.91604021213733 11.578992622397399
Ge 12.873051340898032 12.014755602849462 12.050151610297613
Ge 11.654844122812083 9.619530138142565 12.929010989959448
Ge 9.795480672557707 10.934533522191078 14.276600612099848
Ge 8.454649730113534 8.636894905582198 14.813556995253155
Ge 10.78495235206406 13.607350196654787 12.289280030326285
Ge 8.569594309809919 13.16144116602103 13.717440341174457
Ge 7.026747868568295 10.81841748763773 13.964561868674254
Ge 5.990973408973331 8.240252542935686 13.629540954023296
