47
Energy = -169.84641139 eV
Ge 8.82333214162185 17.025845683581423 10.810912355449608
Ge 15.9648053855272 6.205745994926798 11.501333638567413
Ge 14.931987682794563 8.38218784757649 9.42871767425229
Ge 12.74537886502843 8.579544896179202 11.651145663386615
Ge 9.745974833175087 8.975173247083825 8.977364154053154
Ge 11.502594721482254 18.26636904391069 11.572495524289142
Ge 10.122010588616549 8.96196448048379 14.135316765309804
Ge 5.597135618605448 13.81899944617168 6.543372018286056
Ge 6.048673723418615 9.869768241274615 14.632673133851595
Ge 13.36564346015877 5.5004676673104544 13.033460927653856
Ge 12.127186872432738 14.352113981505918 5.528712048463117
Ge 11.670895090701757 11.472829984987838 10.687562789413954
Ge 13.535740030273221 6.638041319243698 7.093651719846737
Ge 15.453014910422882 8.93268498766067 13.089490488858262
Ge 4.67819879822635 9.003652768543832 10.24370262536842
Ge 8.921740649742137 15.333666300184914 13.285189307800627
Ge 14.860841869763997 15.290188514237398 9.739723353948692
Ge 8.540403871801196 12.511241075486973 12.089549834419484
Ge 11.452382923266885 6.390466867708452 15.601160646614254
Ge 8.489860783455578 7.097348652206049 15.885203629748275
Ge 14.61011241974846 13.712039365103523 7.187811602024153
Ge 16.569016238023146 10.71497736209519 10.952873143266656
Ge 7.141024054254885 14.659918117496659 9.065551736509741
Ge 11.919818495879898 15.348034096539788 12.554254161709343
Ge 10.537986917613381 6.422233112979234 7.44810204655069
Ge 9.359046791568199 4.815082723674476 14.061070966136244
Ge 9.697783919964964 6.176608020552391 11.283392906019477
Ge 9.435459146968256 8.84297253146394 5.955421152600717
Ge 7.570490232656711 8.984765329431653 12.160267962200262
Ge 11.782913801271404 13.022994804985572 15.425739012780534
Ge 7.206263615383795 5.2940514392656235 9.708021772754792
Ge 8.58888472835206 11.556226963328115 15.028925706020281
Ge 11.785317630563709 11.255972706096689 5.482627302798895
Ge 6.939202564047018 7.997028412926772 8.171102494701246
Ge 13.573994618834488 15.365487580300952 15.197724694062584
Ge 11.948840826979913 16.226165255014145 9.415194601467618
Ge 13.378543540029215 11.02958521082505 8.12835107815276
Ge 8.152666447146649 13.402406374905658 4.871806014748776
Ge 14.388536556621803 12.75779414407614 11.46975826179439
Ge 9.49269284241052 12.253125766339254 7.397221154584347
Ge 9.44633601024617 15.334382139744436 6.812542804458174
Ge 5.617835935570477 6.6460865819160935 11.949789917973515
Ge 6.481785173456326 11.741692324483017 8.542781429587375
Ge 11.78559824969164 3.9446616759102247 10.97801016735895
Ge 14.187373543366666 4.678753965338458 9.210619013626964
Ge 14.589966690691236 12.567124170100355 14.55309366894809
Ge 5.485869096510741 11.494771864155677 12.060706168810759
