44
Energy = -177.68975157 eV
Ge 5.043870293176832 10.369582614628099 3.822911100769393
Ge 6.970762079889678 7.769780798962772 3.1177496872117145
Ge 7.739382766722922 10.40137133900838 3.6358405972611294
Ge 6.89092964648248 4.66289775490622 4.19584241152448
Ge 4.2611074078295506 12.078944955103596 6.1420475759579904
Ge 9.100336210099288 6.279111732892099 4.12684779764556
Ge 4.915900778126011 6.744561727290237 4.413640279983394
Ge 10.381799905388673 7.937047665044509 5.973251489149169
Ge 6.520006740960564 12.440924959958718 4.82368602799452
Ge 6.72013608257852 9.916031242367737 6.011765999741854
Ge 10.218539952016744 10.555179862608922 5.3896616901537024
Ge 12.929517445254726 7.334898432990619 6.814694613037256
Ge 4.165049696646498 9.465943187848746 6.0780141084252
Ge 7.203084243157488 7.235615623134794 5.694644904297671
Ge 8.596001311511596 4.817923062473911 6.380683774664247
Ge 5.721216238626377 5.063384378416859 6.480578886071825
Ge 3.419839977524272 7.089696513229483 6.6358834859373586
Ge 11.01023801216439 5.983740855345562 7.932405168303001
Ge 8.84715586902355 12.412523088926273 7.272429733935506
Ge 12.271967932798441 9.887380395221498 6.896562688134641
Ge 5.2431643194610205 7.52192668984042 8.52570969169426
Ge 6.328504805942754 11.893635732828015 7.794473670821902
Ge 10.943139787106265 3.5156225517881814 8.658471634857266
Ge 7.274190552271271 5.75630338692967 8.659467850269502
Ge 10.035776686201405 12.249957325347143 9.667704523363016
Ge 11.818397600293883 4.8504276483711966 10.732800878414226
Ge 8.959164901451539 7.650526506017904 8.264538374365074
Ge 9.709070114918793 10.079280071365346 8.009099828486972
Ge 12.942965523164244 6.965650928814376 9.609962471810201
Ge 11.933962774305892 10.638340766797928 9.356887678072301
Ge 5.048649151359831 6.133720712574251 10.84576604513847
Ge 8.544371997775043 3.934530648631059 10.017086954527601
Ge 5.936614500590848 9.85214584689655 9.299861681628997
Ge 10.412297403280684 7.378424760917656 10.432261318109854
Ge 8.777879011836928 2.4925697003731697 7.983345062833547
Ge 7.932857919763161 9.212558803383073 10.684547781581955
Ge 3.9232602832859746 8.603593887026841 10.703970050801143
Ge 7.353703799810609 6.985425441279252 11.794475766508034
Ge 9.460624008333992 5.41676473422092 11.949314965346757
Ge 10.003251559858446 10.359420894319483 11.601902926351974
Ge 12.343139567232807 9.00654398751403 11.311889914989726
Ge 5.087665467521473 7.820853854797377 13.030866219664386
Ge 7.561837495085158 9.051707638765906 13.360620314094469
Ge 5.652112157005714 10.336971268677365 12.01927635390536
