47
Energy = -189.14501262 eV
Ge 7.8458733491000885 7.303437306067174 6.071928661043032
Ge 13.377926014827025 10.865156238981783 8.737920231609264
Ge 10.378763592344674 10.43031444427436 8.751761598060916
Ge 8.146235377284338 5.595306561913707 7.968490209504798
Ge 12.167135139988654 8.17069364599007 5.284426457050777
Ge 5.563912486621428 10.287987129933839 11.471131115630836
Ge 11.856879168992872 11.02515150812968 6.3521429192781955
Ge 5.154026507912666 5.6551581552856325 11.804093779259437
Ge 9.80251335840445 5.254653210295007 9.988777401292621
Ge 7.558192942544698 3.978965322588802 10.897028810669457
Ge 9.719804515847635 9.053368738427904 5.734795241791103
Ge 8.541345810449167 13.01961200577232 4.848896214119234
Ge 11.565825088223272 11.91034284504893 10.694962547792997
Ge 14.051556921074525 9.694983902714489 6.354576406608435
Ge 11.448840022071726 12.88901614048642 8.15151605299005
Ge 8.683365822578583 4.99621243985888 13.320087854012218
Ge 4.527573884403845 6.522878078624967 6.752606308793593
Ge 6.372051544597471 5.843878382102038 14.644579467286224
Ge 9.148975660841943 6.84801814791043 3.8331122561829383
Ge 6.031096563038292 7.445026648481399 8.97893206279054
Ge 8.228775028919177 9.291588797006867 11.414538889246609
Ge 8.759698530809843 4.748296606011665 5.448376704165761
Ge 4.038397568108108 8.587755576908616 10.259958662257091
Ge 7.544126292229921 10.28139313191873 8.956897931253776
Ge 5.7351834497651515 7.948755277903469 12.892637784981762
Ge 10.74318840336849 4.481861251802203 7.402357963718112
Ge 8.944828138372218 11.796060166622889 10.987768749846586
Ge 5.69885765589082 8.562978958268147 5.426326908132479
Ge 12.131562989998235 9.236296371327718 10.589841084569503
Ge 7.558575407665754 10.622473800147953 6.224041764029056
Ge 9.94665313320468 7.870838791356303 9.728036593285584
Ge 10.548189606101134 9.305159298184355 3.181909573541658
Ge 6.288010918400301 3.7152152024189147 13.1289099320856
Ge 4.9169149643420615 11.013846839762179 6.481299543361469
Ge 10.720607686637319 11.83244956794945 4.178257632474985
Ge 13.447305929529797 8.159922776772422 8.545514169637336
Ge 7.638916663993145 6.628281004022415 11.290512460102562
Ge 11.240965788483036 7.033212969897011 7.579737507485738
Ge 8.310738483367047 10.604372398247316 3.719609181020897
Ge 8.904435335291994 12.70611097545071 7.446899228019724
Ge 3.6626968878712645 6.047984500481672 9.72357196998505
Ge 5.222422292708731 11.539502620300345 9.082215912402729
Ge 4.021283007572683 8.886583364531862 7.6618657635236715
Ge 11.309604550536653 5.692672211562894 5.061726054207883
Ge 5.687177032015752 4.78022787942167 8.495656983165993
Ge 8.242948245000218 7.571005613246349 13.787774037618219
Ge 7.340192331063175 13.039143287983018 9.4361415125073
