42
Energy = -169.69256342 eV
Ge 7.918105136017912 10.730211421834687 5.3363487048942275
Ge 8.628862993091841 8.025395187327018 6.312179616313915
Ge 8.01203447339932 13.45031614187139 5.619333053335809
Ge 10.382531889816677 9.826227513011094 5.378376572680559
Ge 5.963770943920128 9.444033346393354 6.697660728942973
Ge 13.57883571176058 11.455686954677672 7.879473539559808
Ge 6.613682987786496 6.9011943472785555 7.707583152348879
Ge 6.586016727302951 12.101596323140758 7.589888649999385
Ge 10.265998805756421 12.41698628542649 6.43482674429115
Ge 8.193675666066847 10.031291320704648 8.239527391285066
Ge 9.193797838558561 6.409847786648657 8.581645543834313
Ge 14.482476314794 8.94490874250523 8.51233926453966
Ge 8.592360610545134 14.036326232660999 8.050497628013748
Ge 10.981814874657992 8.387570206378436 7.712400107166652
Ge 15.809304774141307 10.97757288673345 9.416450760195033
Ge 5.634776021410766 8.939821393091208 9.31392467495464
Ge 13.876631949978323 12.856521553085217 10.168218326695028
Ge 11.158898376517444 14.146313289247988 8.216325728272881
Ge 7.262212174777462 7.034537265082619 10.315028038257244
Ge 11.035260463107127 10.831411180399316 8.447934669123223
Ge 12.944106219861913 6.878649126342084 8.371601485372063
Ge 7.517613171925069 12.577108336957364 10.04003914293494
Ge 9.699732886522531 8.400959243570739 10.450464916288466
Ge 14.895731546201137 11.428793176857448 12.236838617294286
Ge 12.96048111259831 7.841573257502303 10.80598862185082
Ge 11.712631620382327 14.214778096242107 10.7370599761373
Ge 12.944204755518417 10.409483162828622 10.511878691517893
Ge 15.350977383411056 8.92292798500773 11.148384219204475
Ge 10.079381436674385 12.302095402499125 10.287814445644694
Ge 10.49993300173749 7.019884414417508 12.441146312890897
Ge 7.9791245139674585 7.877433890103415 12.823768986360857
Ge 7.526486603684734 9.795047235332953 10.930515062036523
Ge 10.28001624690406 11.291484510619101 12.687573707843972
Ge 12.709832983783857 11.16322578368234 13.766608690931252
Ge 10.86601290607402 9.056036408538613 13.93236642519158
Ge 12.81396243401519 9.338862008564325 15.696749453609721
Ge 11.229216924357491 13.275179801679537 14.361133126977764
Ge 8.610922639332523 12.80692922002737 13.993378195709251
Ge 8.560420763767123 10.177230537917227 14.573176912638232
Ge 12.074682384412512 11.7562965147895 16.453877927085834
Ge 10.254543455758256 9.574438475344543 16.57413547347535
Ge 9.490769516346912 12.11564727432256 16.417369954944796
