49
Energy = -197.68077858 eV
Ge 9.443367464218163 10.589162827484685 3.7570468487999826
Ge 5.964007069211403 8.582052924233478 3.611514500726588
Ge 8.513716187766317 7.990247237021163 3.818812272781349
Ge 6.253451982115953 6.147584560728443 4.828866974609276
Ge 8.706812571651191 5.424027831195647 3.962765878486766
Ge 6.911406725579798 10.925001720861117 4.44864250123159
Ge 11.247104789211374 9.67584261699168 5.581428346909327
Ge 3.8887287210934325 8.783898204102746 7.070194491442559
Ge 12.040213503405324 6.99044264828095 6.254623321953956
Ge 10.376740101439903 12.657938168791334 5.272513686873892
Ge 6.5221696932330415 8.807157968666102 6.18993266480203
Ge 6.001440685504501 6.666393992750854 7.618565228801807
Ge 9.303600671090456 7.221111781872355 6.21400917283779
Ge 7.99047513131437 4.91527372320349 6.6165351246553765
Ge 6.170851950646645 12.861872591478804 6.040095547976751
Ge 13.393196430857918 9.177632606756788 8.535879824675515
Ge 10.557934302343247 4.845419972806113 5.8175635591170805
Ge 8.522701909852184 12.792150992941169 7.189022621381589
Ge 5.380689862222945 10.977245979232716 7.591937342803449
Ge 12.568945313310557 11.712059451773463 6.494195503095265
Ge 11.690143946870789 5.786389650407652 8.607524298190038
Ge 11.123359962854819 13.121248865079634 8.214672684562935
Ge 8.775400261025506 10.368640002160808 6.389784788144991
Ge 8.191083908722048 7.64733752035844 8.8258297934429
Ge 11.023738776494646 10.162440990535146 8.26381186753862
Ge 11.281755597487368 3.76173245419257 10.42519491725739
Ge 13.134923947057521 11.730655765558842 9.477508267628531
Ge 3.10901549631196 10.486571406859301 9.019869715735876
Ge 9.173442172660273 5.057894054754353 9.068836717695511
Ge 9.204817102379737 11.51892207533742 9.47098981839143
Ge 5.0684777444398454 12.176637095575593 10.051391379136321
Ge 4.771359713032435 8.396824676369407 9.578375957364154
Ge 8.715136166035622 3.355209897433905 10.887529651669473
Ge 6.9636761080384515 10.113515530816517 9.479154508721159
Ge 13.116485907217598 7.185965370724107 10.336322401986559
Ge 6.729197285365846 4.794954469870147 11.98206754514338
Ge 7.357225246445936 7.3626503095424685 11.397022310930568
Ge 10.452222822284792 7.605746213957625 10.348847696310663
Ge 11.023259595825051 11.810047184276955 11.381653638782305
Ge 12.880980265035067 9.715090116773224 11.23933783051904
Ge 3.9074091151554033 10.164601265688535 11.584056671215908
Ge 10.302633350805863 5.564683786080723 11.964146970559716
Ge 8.301649570987959 6.036815070656012 13.556240873073238
Ge 6.558230265586229 10.951071792020791 11.920002814641599
Ge 4.815367710164422 6.678554093293293 11.475938747583262
Ge 10.30779046569967 9.38666125200205 12.178597446841026
Ge 12.087796521982604 7.472602574756287 12.786605093545898
Ge 5.526891220571448 8.643955420733732 13.111677918809283
Ge 8.147301968193714 8.698390573812588 13.561189541417702
