48
Energy = -194.19017013 eV
Ge 9.107712689643204 9.3234811927782 3.4404323426607912
Ge 7.860939689908665 12.781666348399089 6.238698082432784
Ge 9.872876203021681 7.147629512817427 4.849483517796017
Ge 10.308101478240507 10.892878506865799 5.058853303514586
Ge 7.323471715559949 7.716805510689812 5.365208885626995
Ge 7.417138697301102 10.270087963839469 5.312698624251733
Ge 11.674038418214167 8.832210118871657 5.708065100462681
Ge 10.92122852504156 4.73481724126617 5.4397111712392885
Ge 9.262378260588235 8.791770756106338 6.951730221414638
Ge 6.96951654695512 4.281024928069889 8.7797093001583
Ge 10.462930063723478 13.165882237183363 6.16411126631954
Ge 12.908426894779145 5.486991175748507 7.213333215264259
Ge 5.780615086556808 10.23707692565128 8.341913749698193
Ge 6.699641888433484 12.61618195683735 8.747607075763387
Ge 12.356539385774816 7.9416129098520925 8.050476586903693
Ge 11.560796977426556 12.139444232881036 8.337672364495958
Ge 10.247215051731494 5.49447269233288 7.735517727454979
Ge 8.937423656483466 3.285305660969719 7.165558192032155
Ge 3.9989633911572424 7.026687408095482 6.741739307934934
Ge 9.058075249944768 11.26645631234775 7.9663852712815
Ge 6.403690864087904 6.525788183734507 7.637082858577199
Ge 13.796221478843368 10.440395643546386 8.431055167533888
Ge 4.028638692316021 9.757787711381734 6.521232108149786
Ge 12.066259328972947 4.794196146845716 9.603332890377898
Ge 9.774993085905681 3.605275862242967 9.589930968432325
Ge 2.3470520092124407 8.237912858826368 8.34384764716806
Ge 13.617837323726706 12.64223902119616 10.083999150285338
Ge 8.328113786260213 5.638906080910881 10.515933788740394
Ge 11.61086715790449 10.472540438192006 10.432529218572096
Ge 9.647267168961749 7.4825581239785315 9.180880075002943
Ge 4.275297513044319 6.456090495214326 9.406736117974631
Ge 8.43881934282399 12.089172269402008 10.659235089053592
Ge 10.83016247612282 13.28851567868795 10.610745658108153
Ge 6.5091947676499595 8.146869968785552 9.556172313865465
Ge 11.824489017869055 7.129677888949411 10.698566442998391
Ge 14.133224694065337 8.00911946523067 9.98327385867403
Ge 4.879678560705612 11.640483292879068 10.568112260357914
Ge 12.33172312498685 12.015561206683534 12.481568042748165
Ge 3.127289449751757 10.794712376740737 8.754148999048804
Ge 14.259628239223899 10.416587598472928 11.180821348501603
Ge 10.211529744545608 7.966719636977813 12.525337111917326
Ge 8.909385000539237 9.579298164575299 10.90664443661627
Ge 3.991585275268998 8.836431279116901 10.461108949538925
Ge 10.231996376760435 10.404792340229854 13.308701136245762
Ge 8.173121112941402 6.418978700028953 12.983047020331272
Ge 7.650257678680205 10.998938958576016 12.881679430287972
Ge 6.82644406025998 8.496211729592241 12.11991880935749
Ge 4.744988097953976 9.979540587266545 12.663239094697918
