45
Energy = -181.11750734 eV
Ge 15.001627105247307 9.936732953844613 9.58404714460978
Ge 15.16339256003812 7.980372609555595 11.44911335899954
Ge 12.71819359645007 7.239937964033123 12.515153647892067
Ge 13.021029038894477 12.409900790403285 8.00555755115408
Ge 14.630286865034774 11.261713908308145 12.038849373256966
Ge 12.82724224937008 12.46960654657111 10.669124802411531
Ge 13.81739232897168 5.574012986750474 10.454789888461848
Ge 12.781661579916054 14.792562976901847 9.391424808222709
Ge 15.288439408802 7.325466201013672 8.817092570765183
Ge 12.418434321606394 12.758238918169145 13.45883029768916
Ge 11.283444518443781 14.426432680125583 11.675047396933927
Ge 13.463893596906606 8.933580494958102 7.4832969244335095
Ge 10.702439096369385 13.990330388902283 8.051529607196393
Ge 12.89800851002622 9.785342959729272 13.333328796431239
Ge 10.960498355283322 11.076781370054372 9.327369098397956
Ge 12.824887784111038 8.453634568451728 10.07657784575227
Ge 11.073890042386791 5.339686743878056 10.633250760945753
Ge 11.06891911837502 10.936878057001596 14.883883147531746
Ge 10.931590068381102 9.825835617004678 11.694229670571781
Ge 11.18704286679477 12.053437141097731 6.075748799614481
Ge 9.519358136707655 13.151091228893302 10.183777336976068
Ge 12.698189293195888 6.448135254212033 8.17634568422519
Ge 10.551432146202908 9.441701110619196 7.289742557117444
Ge 9.36062015548788 14.044004336226596 5.85665819685464
Ge 7.245741219056275 13.369380354141889 7.462170211178913
Ge 9.846311709078057 7.608362322914592 9.212039014548518
Ge 10.304366008555279 5.194599022529484 8.176691318833733
Ge 9.910267781920714 7.42714110741103 11.867309394209068
Ge 7.958488477813155 11.096951947913933 8.955539665376993
Ge 9.712588522428046 11.976208806958784 12.762994225377042
Ge 7.6988155896919945 6.523790885551511 10.690346863416176
Ge 7.863555836038619 8.665629250159094 7.206364520469572
Ge 6.1339696176276615 11.071284108809444 6.388422676582931
Ge 8.684279110665123 11.3955418547098 6.238576900534702
Ge 7.88969279619582 9.992051194851523 11.898087978192963
Ge 6.986872104814672 13.599009051791985 10.100667202096853
Ge 8.376889680491354 10.150505396926206 14.703781911366919
Ge 5.878587270263311 9.405979230097412 8.812207377023787
Ge 7.67080449627263 7.7777891423205965 13.549699166737913
Ge 7.879440897822404 6.187547033419303 8.093678001925754
Ge 5.218632799446944 11.944998821588333 8.908015232227722
Ge 7.089050601371447 12.163188768166721 13.473006671447976
Ge 5.779700424526734 8.294945519682132 11.628719557484153
Ge 5.428890822207231 11.075070104690667 11.654618509155132
Ge 5.756894687090507 9.768514009303765 13.974726356953692
