45
Energy = -179.92720427 eV
Ge 21.94310772223547 18.506460999449132 18.314521868851074
Ge 15.568243577541978 19.83932812965826 -1.4388203521241534
Ge 14.662324750440625 16.33247251327909 19.9695747521386
Ge 15.59812143305726 13.839171538768143 19.87263145855665
Ge 16.182431593897228 14.679072825869397 13.795014768146324
Ge 13.630582604961782 15.974569516199042 14.536380134955975
Ge 17.4225026989191 21.422536864942284 -2.3485015265102898
Ge 13.919344596715627 13.961759268064037 12.856745571072949
Ge 18.344112022579367 14.714514579478045 12.343129186008493
Ge 12.328204340759356 16.8325948582378 19.011897152092978
Ge 13.475761599100771 20.17291574796701 12.515099639628678
Ge 20.28103937881147 12.278149908226117 20.105261094738307
Ge 14.418755917520839 19.668494178183956 16.844078390669832
Ge 20.740492159463145 16.65736541394307 17.117719065715338
Ge 16.2334911496465 15.499816194820394 17.78731272039117
Ge 12.486345049310223 17.929184175460218 13.178246125025366
Ge 19.514113966847997 15.27471618627452 14.823118617467223
Ge 17.424693517389397 20.354823977466197 19.86302365561069
Ge 19.714887407529805 20.0753235578891 18.324426995454743
Ge 14.943091553747989 21.09383361506424 20.81019251835848
Ge 16.95827828111 19.39768218211674 17.496003434668964
Ge 18.048148365949896 18.80082456941314 22.001116024316428
Ge 18.12868756168905 17.129699828558724 17.5718474209595
Ge 18.329656849335215 17.557942162017728 15.060717581009692
Ge 18.70139969449595 11.1134421213902 18.43712403005202
Ge 12.771802517562932 15.159650598764115 16.874732658078635
Ge 13.421653769504301 16.146696192595044 11.704192116086261
Ge 15.758761141329552 18.461666654994843 20.883297231605543
Ge 15.932973174878352 17.329626501744556 14.187314616602745
Ge 18.097429019519264 13.571073477718814 19.135911978163833
Ge 20.485618948901024 14.49105051732327 18.6328593802014
Ge 13.54921254711193 19.252961793925465 19.264033455321513
Ge 18.953025088241567 20.006552626323355 15.738509557161947
Ge 18.686081488685993 13.21677351481562 16.652970866018823
Ge 14.98433497102532 18.151196895082126 11.855824735860738
Ge 16.428487060016515 12.850562624480915 15.532414332366185
Ge 16.77528097496677 21.322800401582946 15.673429923630465
Ge 15.172309192618554 19.802957724354656 14.350735410862955
Ge 19.52511315003832 17.811065045068627 19.674609656324023
Ge 14.366243987748003 17.181766210364703 17.330807352149968
Ge 20.75867627087893 15.534215702469437 12.6429393819516
Ge 19.806927939609217 14.935336786759457 10.429814841350534
Ge 20.952150308658634 12.193890150896808 17.440570686880534
Ge 14.710624150087677 13.451987124147886 17.417985189144247
Ge 21.663195428854547 16.47484836216076 19.919160835877662
