46
Energy = -180.66592166 eV
Ge 16.833951518646316 15.69283559136311 17.78690204664717
Ge 16.146142337174467 15.892535708756943 12.319196359689773
Ge 18.109834749693185 15.139221089528855 15.610395322268229
Ge 13.236616477193241 21.25286678374394 13.711935193124162
Ge 19.376389591744086 19.266934140366203 21.293424089480457
Ge 13.989422838332732 18.71141247548206 13.406397734761336
Ge 20.082002254091748 14.069743800495454 16.850118102347828
Ge 22.437159065498026 15.45306783997169 16.343994733357132
Ge 12.71873655110459 17.06013021285266 14.973453120166571
Ge -2.937309209735457 12.489175199440714 16.446713431670577
Ge 18.06624953987458 13.836905182156325 13.178458494517727
Ge 10.526317289679781 18.133645967517833 18.324630185987004
Ge 19.561484766799538 14.144616570413636 19.357958273402275
Ge 15.973884926062723 17.441940805044528 14.587565698942408
Ge 16.697833510423752 19.340474583287197 20.39818250982436
Ge 23.230712688835027 13.641510224495061 18.690906402340843
Ge 20.009998448943307 18.226414729150317 18.93692622374409
Ge 18.217248533314912 18.942825352485247 14.74831378407349
Ge -0.6179358474341909 13.795351118070775 16.501094844350735
Ge 15.704240491413174 13.369008557587687 12.359134178988525
Ge 11.214846098486525 21.34702174425013 15.41323471230985
Ge 17.085795389947585 20.543192821570397 17.881360599764516
Ge 14.71603437383401 16.582663210101227 16.67031632211724
Ge 15.66331761845233 14.491660365209874 14.652192690095415
Ge 17.21892746523497 14.769624942475748 20.157177942321578
Ge 12.242289841704912 17.556309481516948 20.307909090191583
Ge 14.50913551915375 20.458647994146343 17.945007410780338
Ge 13.388617064737868 18.20947183401951 18.10630331580718
Ge 13.825181667158287 8.064446719966808 21.49187933033784
Ge 21.32635225308284 16.02837075196135 18.629321497571688
Ge 13.43737941325955 22.21102827094148 16.41164299137237
Ge 21.828686901670274 14.504939283863992 20.639702494212052
Ge 17.41590161384286 21.4336455420191 15.394719850953
Ge 9.778140553957474 17.56340888327654 20.504273125987375
Ge 18.334379710621523 21.28414337829507 20.075145537890062
Ge 21.09246224582747 12.081838134173305 18.95540195490446
Ge 20.22357790756919 18.144956464388247 13.11339038655286
Ge 15.05282317179047 20.181954738114026 15.415176275529214
Ge 15.157556490900909 22.79916978602211 14.610361359339601
Ge 20.30802115016579 16.652746687965116 15.27473487216514
Ge 17.720544430118814 18.131822038749096 17.474929799184164
Ge 15.425960097967867 9.866414891434491 21.225093410424257
Ge 18.048320865818674 17.186730769413316 20.264866411157648
Ge 20.23778361677024 18.90870460365223 16.41428944508028
Ge 11.703391588591822 18.953364827853978 16.22269195453028
Ge 18.569476858046766 16.371458768039293 12.903002870282416
