40
Energy = -146.53139687 eV
Ge 10.455589841099709 5.929749965552625 3.8116354908692465
Ge 6.302961460525085 7.87507673949289 2.8362943075359204
Ge 9.590472586202784 11.750979017816272 3.404735697746256
Ge 6.9091530751476045 4.466645934756728 5.224940200891668
Ge 12.754419286321024 7.35150649814859 5.304095935722527
Ge 8.086856778555125 7.261556041349748 5.233046165418465
Ge 9.821724397621212 3.6046006130146293 5.705628993630458
Ge 5.392404171331293 10.646164504262371 3.754931726177358
Ge 3.846309677263481 8.168780126452031 4.586797096444028
Ge 11.991809377289563 11.75236774873277 5.313453963226859
Ge 8.194966842004105 13.786860888065622 5.239313912240409
Ge 7.796210492916836 10.789694717538731 5.63295203020085
Ge 5.323230424544962 4.5691596259627705 7.82850691277094
Ge 13.067937449300702 5.427142213131756 7.648143820689615
Ge 10.041671038160118 5.546682484156414 8.003807726435559
Ge 10.616424207161879 13.84917974479076 7.1141192259013115
Ge 4.135071307428805 7.408992891805948 7.539690668865997
Ge 11.184152160964963 9.349408055832898 6.997369285520983
Ge 4.559414077812871 11.572792742479528 8.054425130673646
Ge 9.091444688207226 11.872881567959945 8.937195802944348
Ge 6.615305514083898 13.711755847348575 8.712957276222923
Ge 6.37972708299653 9.158392605762424 8.706658105707872
Ge 11.060664546336666 7.762174711587931 10.949072886460566
Ge 11.434869484123295 4.724981264192458 11.878208132716935
Ge 10.748110211975233 12.983369513889821 11.396872279755394
Ge 7.137348598022424 5.8347850700619635 9.938665005088634
Ge 12.596205864789253 10.688971857510264 11.050651786593912
Ge 8.0158837642811 10.405661485913084 11.74455957861773
Ge 4.286782945295378 8.860906393077714 10.936823004035364
Ge 4.489385477859466 12.993207453195284 10.755471140413402
Ge 13.81349449605721 10.047388137236544 8.330791457051385
Ge 13.949145353534892 7.384403828747287 9.830368322039684
Ge 9.22627816131807 3.5213783162575987 10.1538467410669
Ge 7.974391036833453 7.423309937234339 12.898618164630784
Ge 9.966913772536035 11.257048622623845 13.868151728123038
Ge 5.206935565713177 6.266657971116607 12.332147461945489
Ge 5.318627350820501 10.973996451802002 12.895882993363987
Ge 11.696899935525401 8.666271420938388 13.8312020822634
Ge 9.26472079334839 4.793433217011265 13.887389948942142
Ge 9.469312691661614 7.37490976016109 15.543803798026497
