42
Energy = -168.78450828 eV
Ge 8.572201103935527 6.444296059360119 4.906313437137967
Ge 7.316319831523088 4.138070649039628 4.3190742136202305
Ge 7.7923662695993965 10.847125656400763 4.057828676005461
Ge 10.242497913719198 11.911023131531806 4.936658043548352
Ge 9.98697310814509 4.022067989439177 4.42754941754575
Ge 4.862309566304674 7.453667454939999 4.868734678998695
Ge 5.7886163831551345 11.63383805305926 5.717463443170331
Ge 6.971271399063219 8.862787501636518 5.716644949531643
Ge 11.002179048954671 5.922173222304097 5.950100798984732
Ge 10.11273183503569 8.129619590107511 7.367885345079189
Ge 7.893011907524299 13.282712384103391 5.349301341586074
Ge 7.758949276345731 5.176991729720585 7.001807511466467
Ge 2.635371984773904 8.30557936032405 5.847921349684715
Ge 9.838059167096166 13.084910486140224 7.403829876649968
Ge 5.302325881146474 5.091644471025256 5.703002344724269
Ge 8.353134993533493 2.445599707014555 6.190142392804843
Ge 8.691755197805325 10.613466552401409 6.702040516559555
Ge 4.583575246944797 7.442968507290435 7.569555860048465
Ge 11.364714582198504 10.4804331473865 6.894191803747459
Ge 2.7756218542594833 5.720027368632031 6.224507674407646
Ge 10.84684528485512 3.094271906572448 6.786384694434469
Ge 8.669495179235643 3.343570047437273 8.63598109393372
Ge 7.2118538307540225 12.539417819726989 7.944895496920733
Ge 2.827844213395064 7.771690753588093 9.860987913484598
Ge 5.819037129984285 5.453781674454531 8.785192775869973
Ge 6.011580946592067 9.983653346756231 7.890555970566928
Ge 10.42028011795211 5.209049167941447 8.476883517576704
Ge 10.199388027829576 10.932072705903652 9.244071416779923
Ge 3.2310437911452925 5.325993078746251 8.758936823419601
Ge 12.043695795770802 8.409856015710375 9.178023172453583
Ge 12.623236243401822 5.90827711098737 9.721137421891687
Ge 8.59679582942534 7.7746167763279646 9.473678131390596
Ge 3.3904668476183297 9.763557434700832 8.150486120731388
Ge 7.35411196769735 5.898378253739403 10.85585750107834
Ge 4.875649903160888 7.009929040704104 11.331456096128946
Ge 7.650500087106093 10.22236539301451 9.97934384916377
Ge 10.226169470920048 6.126789882613347 11.13264720496179
Ge 12.142821890353328 10.24692824771371 10.927686828512988
Ge 12.40935276541134 7.558658563292402 11.777888875244718
Ge 7.10170043030009 8.417952914378425 11.89921787150011
Ge 4.832068878063557 9.545522618193953 10.716403220546884
Ge 10.00553438201334 8.788123789688253 11.651189892157193
