40
Energy = -144.66843967 eV
Ge 8.978972087954931 9.898075087475577 2.9717314393781504
Ge 11.077195240216563 8.20959564757811 4.638903743516389
Ge 7.154474930517822 11.702540636778542 4.618253766433518
Ge 11.739777129539174 11.006372303540898 3.5287647847957984
Ge 6.534149702510091 7.566664704899053 4.437935661978193
Ge 7.459140159454084 9.469747242986013 6.718384673254752
Ge 12.540273939848586 5.11282823714715 6.736211518062445
Ge 8.991389495771944 14.0385712783833 5.208602253088143
Ge 5.143804971639376 12.774053477338013 8.327501989822418
Ge 8.103265098800657 4.920153404787294 4.669306756011881
Ge 7.3442851709282255 14.881435108843045 7.636128931909792
Ge 12.88047904253894 8.844886563722715 7.0915732514785805
Ge 10.755732661399945 11.76029996412482 6.317146879868757
Ge 4.236294598856854 6.513361396193364 6.172811170659081
Ge 8.269341807127889 12.444446972970933 9.166572738069352
Ge 13.824879188016837 11.729089657411786 6.658636321775697
Ge 10.43510970650863 3.210051088695703 7.957748634905727
Ge 9.559290711763838 5.995846364429953 7.118884739169377
Ge 5.8347398163722906 3.745497839099679 6.356242393063647
Ge 4.5727087022849116 9.719796778588758 7.558271605540797
Ge 7.059359633839276 3.6030636949910613 9.180416738307766
Ge 14.058744866374704 11.364775013946867 9.703240944080521
Ge 4.572091076571404 8.614140789216858 10.720258705870089
Ge 8.939337992200942 6.333917977634876 11.115415126852541
Ge 5.835160888519655 12.231646338127657 11.424242915619587
Ge 11.502742940639026 12.911162697140833 10.095615955813917
Ge 4.531206428503035 5.993592778780824 12.72666168064546
Ge 11.418492289252063 9.699486675001689 9.761174882689692
Ge 12.057542993852353 6.215597577132582 9.620750310455266
Ge 10.710257000679041 3.8292436990656684 10.994086162948134
Ge 8.286629534716868 14.113476108593424 11.733638511152977
Ge 4.30238868460032 4.370216409576677 10.170463196106924
Ge 5.889847119341951 6.613898479292961 8.737396571031217
Ge 13.35131706776091 8.208474892181007 11.627964320372099
Ge 7.36554268153225 5.915587209230036 13.743824312708913
Ge 7.37731488922509 9.586519693166437 11.248840235962094
Ge 10.52833474685098 12.437808042503532 12.93868306070525
Ge 7.060727092495584 8.934734404257009 14.188620364583343
Ge 11.047028857646884 7.106553363290671 13.314708943623216
Ge 10.010144507803865 9.71230585633142 14.403899262145652
