45
Energy = -181.53057056 eV
Ge 11.76757956740863 10.107278848865144 4.638322184400206
Ge 11.675991355238287 11.674650505419851 6.653197290770615
Ge 9.453383749338073 9.917303077777486 6.09526922281301
Ge 11.29465924550958 7.809890921635275 5.86511705378221
Ge 13.621983300343675 9.583608874383353 6.497879198823898
Ge 9.394477482374857 11.90864652841461 8.004911221670271
Ge 14.690972926926355 12.055963340703967 10.194146173525848
Ge 12.806426645794284 14.013537011947458 9.2493550948508
Ge 10.519471929472722 8.7713176665875 8.286313060928414
Ge 8.386511834033442 14.336005067235854 7.996852040872926
Ge 10.59423047920855 15.301129028457234 9.030166001415493
Ge 15.678727185821682 12.8723079261286 12.594964159104228
Ge 13.98089675393919 12.372404103942518 7.669490204552108
Ge 12.4720789530969 10.296613519134167 9.076421278513896
Ge 14.19349145321882 8.651304398088527 10.172475616038039
Ge 8.238418566474452 10.124784648010452 9.604051849509737
Ge 8.678206684139225 13.986439067053126 10.532130654051036
Ge 12.948486996232873 7.523830718659668 8.005464081586139
Ge 10.230117611703323 16.06091598344185 11.479848803947986
Ge 13.262606431467624 11.083334374584942 12.362613435989028
Ge 14.039332405843808 14.603536278384805 11.41183928502218
Ge 8.51615820903592 7.357900217655796 9.579809166633455
Ge 11.103342860322046 6.571245851495977 9.818496965780364
Ge 13.82387609438101 12.83173892818644 14.446623463836069
Ge 10.805042616885741 12.508838991241431 10.15225806643255
Ge 11.832531341305561 14.415541256140079 12.787561415733169
Ge 8.226310577248691 10.939395182598677 12.127869965190143
Ge 13.60862049929789 10.410250311599961 15.190798323270037
Ge 9.96064703599751 8.938366752303741 11.37530153203274
Ge 15.90057094176596 10.247173047477123 11.724848155593907
Ge 12.706033251959349 15.019405414743515 15.189418685473026
Ge 7.784174318705503 15.38504463312859 12.547361641985514
Ge 14.328319232047061 8.779394555366103 13.282996058424047
Ge 12.247438973108578 7.866487953585619 11.820063053682661
Ge 9.683114244736052 14.614332429224865 14.225545228677635
Ge 8.089819420508206 8.829353143653284 13.576269612459141
Ge 8.436267724195952 6.704952253508644 12.182317680038349
Ge 11.039953350613619 10.714293325423244 15.11098947321319
Ge 10.502679754994134 12.079289910395659 12.98547740909464
Ge 11.904632568072333 12.666900339351853 16.73293402627289
Ge 7.713490012129483 12.898224325578575 13.634454461766024
Ge 10.504037780209108 7.229483127754904 13.679729602977345
Ge 10.429438245165237 14.784473280902573 16.670088301410253
Ge 9.167278099630597 12.401206290379127 15.975683303943544
Ge 9.641997737600658 8.635733036950038 15.646102941414796
