49
Energy = -198.04484599 eV
Ge 9.276927150092872 9.346889225354865 4.796111859182518
Ge 7.017930586159526 8.374035693418781 6.883343512728378
Ge 11.030442822748977 11.3455656067609 5.080383235631175
Ge 10.086638582786117 13.26540905845296 7.15538882408566
Ge 8.390385158217978 11.235453453863705 6.43299910513421
Ge 11.73319215994947 8.451993882090246 5.005298066176643
Ge 13.160581562752599 10.313870893769183 6.083517652155754
Ge 6.076658667072491 10.88885745875456 7.918154243416479
Ge 8.859725406513014 6.644138484011705 7.587488960803954
Ge 14.444550157770195 11.999322443933993 7.648804097898348
Ge 11.911205828380888 14.44501536810559 10.39919010836432
Ge 8.547272340252038 12.389224422940869 9.012499007111902
Ge 6.003860058317821 6.256358879452126 8.12262020694677
Ge 5.240758176951558 8.602815146466135 9.143160161291405
Ge 10.525563937072889 9.594185220252529 7.276795893009753
Ge 13.075301526429904 8.107103656350757 9.435425152534862
Ge 7.92163867110198 8.250456674920086 9.450421587044493
Ge 6.041372921806219 13.076092529031875 9.286903106570335
Ge 11.922753361449775 11.69469290603026 8.21954616376972
Ge 11.582336691628164 7.194498377239894 7.348383268292922
Ge 15.068020718666057 11.504188531735482 11.881378997809836
Ge 5.133662503933338 10.948078715181 10.777303657023099
Ge 8.003895714873567 5.3034966451223315 9.708160913951597
Ge 14.480467408844977 13.646716097106841 10.167009490472005
Ge 14.426415542865891 10.336728997670303 9.587247562697648
Ge 6.296127370575783 6.944091002485578 11.209208334486169
Ge 9.171337466571472 10.543611184153544 10.598272293852835
Ge 8.495729686121281 5.580862232583606 12.364805540395247
Ge 9.838504704823741 8.029958405583583 12.230694587975025
Ge 12.555738046125118 12.180451605372118 11.430863865038386
Ge 14.048538238765577 7.8872736894307245 12.058672862356302
Ge 10.501999869599535 6.326265324778416 10.522483596947245
Ge 7.17713566155672 10.020045587793492 12.086003951793376
Ge 13.75083395248683 15.634101497582014 11.89387468140104
Ge 13.042001187526187 5.763600455444152 10.888542927879438
Ge 15.816806191251455 14.002844881857003 12.494904947486933
Ge 5.516167131896251 13.56608380552275 11.824792825776852
Ge 11.681674054085411 14.112117624991093 13.12566266507212
Ge 8.077811397519959 13.74152355898325 11.382671684786377
Ge 11.652718983253834 10.036295131689924 10.404480908468138
Ge 7.007340266854283 12.275831614518541 13.550365715681293
Ge 13.442591764856362 12.01703654659685 13.94268817800637
Ge 7.6513708830740415 7.902678708543419 13.559412077899207
Ge 11.818137932429678 6.2524760658136485 13.16721059661446
Ge 13.9873526627114 14.505420900814002 14.374640141217885
Ge 12.002303438063624 8.96133270148273 13.10575367032506
Ge 9.656692808124788 12.02504008382158 12.761654463740845
Ge 8.387920535935576 10.421612780544933 14.660162417284917
Ge 11.169527248361529 10.762175380805253 14.662561370619553
