40
Energy = -161.10018673 eV
Ge 12.114449235283038 4.605540508322533 6.536926826479859
Ge 4.353830360911776 10.580659514648213 11.482030153896982
Ge 5.411686741695299 8.566956623825215 4.405848981073714
Ge 9.097489287980018 6.426809426328831 6.46608754402154
Ge 7.264174918649027 10.944872543215102 8.416882555814487
Ge 7.391607733024729 9.514579716529651 12.282047599459068
Ge 10.098433645183007 12.094847865712277 8.328557511763286
Ge 11.533903721040064 10.857097758124997 10.154725871499144
Ge 11.730544200151506 7.008986288930001 2.86204387781542
Ge 9.983190969823832 9.425371070380152 8.596980235737929
Ge 10.978159884299295 6.316695024711667 8.20797626880231
Ge 12.463148590830817 8.562347217703547 9.273198803444648
Ge 7.724957194267014 5.1860882208886565 11.889637090651034
Ge 9.853739165326914 10.535053343546345 6.188876179566784
Ge 2.6838261224516913 10.964477484339636 9.258038382154615
Ge 9.205070363099345 3.853370974320874 5.845170915489546
Ge 7.883411333190059 6.202296533795132 9.354931551246112
Ge 10.771918143414394 5.206347371805488 4.298690893036883
Ge 7.045802777863926 4.568276120474808 3.9629102119768986
Ge 5.1089936710963135 12.173143936791925 9.493161230657858
Ge 6.8398373071809 4.676325437128235 6.651244546834711
Ge 5.915570509237458 7.475104305658669 11.627557373823016
Ge 5.14812571697769 9.370035157933362 9.225849370702795
Ge 7.83857189289304 8.72477757205812 9.84362772687943
Ge 4.946117442526935 6.678749396732448 7.8018800706163765
Ge 9.846612526986133 7.9134173387658615 4.414493933107683
Ge 12.526342304214413 10.883477513931396 7.642135230384901
Ge 3.015006083731074 8.51855043567453 10.471560127948935
Ge 11.689929776655935 8.556384410075896 6.627924865108076
Ge 4.4382940948985485 10.8714825074812 7.133407163064522
Ge 7.387842132816502 7.125395837987116 3.8246836962200397
Ge 2.9916639630383335 8.615361170649553 7.719631157985592
Ge 7.571151819704653 7.135970228418417 13.73174460971818
Ge 5.516542277653323 5.400454464615899 10.185130690275942
Ge 6.908204699413046 10.374411618245386 5.836783252831798
Ge 9.324011825710722 7.544428973771593 11.93805975189634
Ge 6.909713542414714 7.888823908077039 6.69131731750206
Ge 5.061168159112686 6.0358714579583514 5.098437136015046
Ge 12.846058542169661 6.704518261289772 5.215850327786038
Ge 10.172946260003329 5.504691396072948 10.606007903631614
