44
Energy = -176.92295874 eV
Ge 10.003266662501938 9.37842568465962 13.727216479018852
Ge 12.205563103843943 10.078606839934906 12.418490002347857
Ge 13.430419751067433 10.743138207203629 10.107787491022306
Ge 10.365636638256229 12.798063031200149 12.827785460170746
Ge 10.43650713714879 6.8042952136557515 13.566890963479965
Ge 12.268003515169111 7.560897708168946 11.866281319279492
Ge 12.805829669267741 12.701257221647072 11.988402194342038
Ge 14.092816831787482 8.291642799694044 9.142347260672128
Ge 14.169899769520075 12.07430024328554 7.944669999262375
Ge 10.864106529018732 14.381344548232619 10.58594030277841
Ge 14.034124276273758 6.162528682585224 10.610736443464306
Ge 11.581134000349188 5.069093378339717 10.143966645177798
Ge 10.296533617028011 13.408677287112221 8.245750947984948
Ge 6.9259317350697644 9.490775587050585 14.116683820579317
Ge 9.047060576308716 10.525360377778911 11.624642542226356
Ge 10.21073303637675 7.650173381071149 10.257569786085021
Ge 8.710116930327883 11.466082099994548 14.510607232072951
Ge 14.355787277072482 9.72276192276103 6.966300419866179
Ge 10.915311597655386 11.590832127244653 10.17107673337004
Ge 7.761568335389853 7.494460136130252 12.868396417751827
Ge 8.665906899560554 14.689076436500281 12.187447037465304
Ge 13.117959103881654 5.919157000210498 7.981769443003586
Ge 7.297256265428442 12.40701792922516 12.121245239666266
Ge 8.119658351478659 14.0017714099814 9.73338744056929
Ge 5.536402450109697 9.67736555560272 12.020648164679507
Ge 8.99108619546489 5.659979295244469 11.541731624542932
Ge 11.806829481113672 8.423542331910962 7.863360375746599
Ge 10.324963381363808 5.980375068322994 8.100751382784768
Ge 7.822531256812651 9.243228732253524 9.528930275574206
Ge 11.48088819536802 6.695250123763366 5.752796487559656
Ge 9.563153604751358 10.013137393565332 7.4648728722434265
Ge 11.943251875569356 11.358537576887976 6.9634909491339165
Ge 5.035166318920009 11.921385630038221 10.85989730432289
Ge 7.014992084206015 11.690971389706949 8.970307425021634
Ge 8.552678154178384 12.271398460589241 6.621325444853105
Ge 5.930435140545465 7.675552086398427 10.569298180685854
Ge 7.8785089025457005 6.552052849765845 8.998553510515423
Ge 9.419062618996572 8.4072580038493 5.260447339094573
Ge 12.524166574504573 9.054144801893521 5.2456718337368615
Ge 5.295195016522064 9.12162356917597 8.334530512613519
Ge 10.376189306780423 10.814550461980147 4.89297494629912
Ge 7.311786124775527 8.239953351940303 6.925822667334333
Ge 6.3702695137458925 10.837576027742065 6.355416277929546
Ge 4.508334720298756 11.57522212109135 8.201105393639748
