42
Energy = -168.27489681 eV
Ge 12.960580250261849 7.411151166831878 5.56135490827297
Ge 10.58709775825794 7.505491924120868 6.656030177671169
Ge 8.198336462824946 8.696184264645325 6.026527621240799
Ge 5.478303592185502 9.472179053902806 6.288703235610982
Ge 9.923685683038064 10.834765365649899 6.082427621423255
Ge 12.584940037113803 9.80788344017208 6.380539022350545
Ge 7.268944005966315 11.53028487967415 6.29999399859569
Ge 14.457482263903541 8.095081460873987 7.846616521772885
Ge 12.659413941860496 5.920329069445573 7.788586340167293
Ge 4.4147366373279775 11.491089852925809 7.759819388059415
Ge 10.095140634175635 5.7208489845532435 8.59640734423882
Ge 7.651159058160166 7.132800524732178 8.113758867374507
Ge 5.02175069173186 7.857439647219351 8.307362133244029
Ge 11.392872963995021 8.074248008393345 9.277361596380429
Ge 9.084969659298336 12.81474621540722 8.012118268793467
Ge 11.858663108776504 11.998428830376652 7.737020814130696
Ge 9.148982457829565 9.588574970812635 8.501082883215467
Ge 6.5200802273617295 10.166712444398959 8.8711478922456
Ge 6.452816999457639 13.219261148299791 8.182475269603144
Ge 14.091590036573828 10.736777938881922 8.298373798129846
Ge 13.627436725713862 6.796565166105193 10.101657153945995
Ge 10.874238093122063 6.269657470625841 11.176352284346846
Ge 3.923272757635527 9.84237745279777 9.893751937195344
Ge 11.244799559857254 12.349306526493827 10.358159365515657
Ge 13.848992582182152 11.870243576027686 11.070158804672472
Ge 8.532300107302488 7.335500806713753 10.649242992958177
Ge 7.922551604996817 13.40755100686696 10.467457196536046
Ge 5.3136438169307985 12.271668475821937 10.596523477874698
Ge 14.786594489802743 9.275187081522974 10.92938067400369
Ge 5.9654427868174205 8.014904950410624 10.752415475215459
Ge 12.213632724311186 9.821746141586411 11.370163064793154
Ge 9.158916678227758 10.960090043019282 11.028280843125208
Ge 5.123397791559389 10.122398988501802 12.283954964952853
Ge 13.570318804366135 8.065410176627429 13.08294936467155
Ge 10.802244354021681 8.401653109267858 13.025483251003848
Ge 7.830987126843895 9.213060219243893 12.574122545427564
Ge 7.1869732986574135 11.949331903397955 12.661389709432667
Ge 9.931551463306496 13.182993953646319 12.58349683395601
Ge 12.374794951171438 12.20680737823631 13.398005175162332
Ge 14.550881069828133 10.588585305699953 13.44577621475136
Ge 9.83407403698206 10.882626252156173 13.948005977756944
Ge 12.309502105204123 9.87614822285452 14.793658389122719
