49
Energy = -197.2405147 eV
Ge 13.695416411171685 7.828241142099986 13.385116477368458
Ge 11.611520470774739 6.315104400984943 14.705800164053525
Ge 12.009133762669643 9.145116998761761 14.876227074442918
Ge 12.081047638778385 11.932111668142083 14.51776483911886
Ge 9.552661790714323 12.209925387197032 15.329451711133437
Ge 14.632228913968296 9.611221891891507 11.399180835798612
Ge 12.402458099041315 5.855989084053745 12.105632875553399
Ge 9.559288707907694 8.223113581799963 14.636014350455708
Ge 14.3502838316588 13.1179433153106 10.346992436875782
Ge 13.561779901285027 7.3044089881834156 9.759096868450275
Ge 13.111137610051635 11.578438355611684 12.157374941994583
Ge 9.724319506654044 6.182931949251004 12.823710190219805
Ge 11.203259687587877 8.308428791941092 12.449657966324276
Ge 8.91118918904787 14.49360763599138 13.968066412220884
Ge 9.912570925085022 10.917960424872241 13.012011429194853
Ge 11.146433388910044 15.224923306038438 10.82570497696647
Ge 14.148820316368182 10.908083848221494 9.084213785926964
Ge 14.499247734871352 8.814033645932275 7.639173385288938
Ge 11.421441167399234 14.221768392494944 13.18888350968757
Ge 7.386202051908385 12.095153534750018 14.014241511028944
Ge 12.747531595648708 14.659839322462556 8.892436534889413
Ge 11.621364313716459 5.820455061963397 8.448885800168279
Ge 12.161580053771843 9.606998624580791 10.397215937709904
Ge 7.666966803790533 9.667789005943618 12.230848941194562
Ge 9.89147348941523 5.1769609448112375 10.283993853405804
Ge 9.525947388951758 13.121584716762403 11.5608600724499
Ge 11.68470401555838 12.283956581139106 9.886931525361552
Ge 11.775292305970341 8.463206162745404 7.982033506230311
Ge 7.113334913998819 14.20664314646045 12.029526259071657
Ge 9.425269214587296 7.687557067572299 9.425442263085202
Ge 12.760297049146079 9.97375827434611 5.974004121425377
Ge 7.165099652483401 7.114284278593459 12.282566094778863
Ge 8.667077212510565 15.238711048147954 9.964281769842035
Ge 6.155864013928742 11.681036883914881 11.488928087714593
Ge 10.393988236550564 15.009549409450273 7.771801723257122
Ge 9.92336960230515 6.728724256855093 6.732961392793645
Ge 12.021817688395998 12.667900896049483 6.941294135542976
Ge 8.202768115698142 10.555989658122815 9.775197376174706
Ge 10.249534309483257 10.72743208155557 7.655532714114176
Ge 7.306778679595139 5.921326846173313 9.857195325781683
Ge 6.208383822439927 8.377263209028735 10.027816845189887
Ge 8.319565863575024 13.037497563331163 8.616833764197128
Ge 5.939959542501558 12.066452171866272 8.903323272933488
Ge 10.374765380173184 8.86285367165401 5.1362752338251525
Ge 7.446719000675238 7.200537903891113 7.588009820938353
Ge 10.915326380827683 11.481492147889341 4.741538724871452
Ge 9.249031354644908 13.024458760424782 6.190451081649392
Ge 6.5489843320542125 9.774466300894183 7.8357240801984025
Ge 8.369471647980768 10.350308698728323 5.8722556704980775
