44
Energy = -177.88233985 eV
Ge 9.347083901503234 9.655380580847899 3.249113373028125
Ge 7.158441042809346 8.68735358592236 4.8870056727087965
Ge 5.986521075297679 11.07609997720712 5.150865041375847
Ge 11.582631411124481 8.538856279945401 4.332600794478996
Ge 11.082929499181686 11.179717354112501 4.362541332463253
Ge 9.327538386058258 7.146939931248265 4.420663939636308
Ge 8.619065129674354 11.192526205196597 5.546835956739142
Ge 8.021003827424407 9.200860440468558 7.357808186381745
Ge 4.252792731310701 10.455929748292505 7.207691287682453
Ge 11.787635297371269 10.381531131091222 6.771673886771781
Ge 6.127039887446449 7.044604257302779 6.508950131965063
Ge 10.367626220498378 8.071281834039814 6.796598642364168
Ge 11.348202238029701 3.8683746162729857 7.423794215744605
Ge 7.11072566945562 4.951894159207089 7.534085989826353
Ge 10.454712598716382 12.562392825328534 7.174145380279546
Ge 6.317678741452198 12.259908669786663 7.665683102959111
Ge 12.430829463529463 6.104487733373776 6.531352680724082
Ge 9.4541879923949 5.461727684821713 6.683230745064479
Ge 4.2744585653711695 7.849472012958725 8.038775575160212
Ge 8.672577949982173 11.361161742539915 8.625085537431882
Ge 13.932186867513623 9.7331082648081 8.06434766923359
Ge 5.975446923886738 9.494397546115033 9.06068675944014
Ge 12.334342945866332 7.784087269903384 8.505894008007468
Ge 12.60137680627352 5.281116984025529 9.282904668484788
Ge 12.749733728299114 10.71569407868231 10.156858223998547
Ge 6.055159474326461 6.522171922722627 9.60646108859953
Ge 4.410896857247741 12.021418610085481 9.35278829721203
Ge 8.590215299371197 7.001564023578494 8.910626745950609
Ge 9.95514854507578 4.744706566464405 9.578788335874819
Ge 11.170362437262764 12.800822981509212 9.926838932169911
Ge 5.044758688429707 8.27672078886745 11.965194349685847
Ge 12.225966935492687 9.074560883254907 12.099991228192465
Ge 6.43433154703845 5.967516835598517 12.348775735834005
Ge 6.691208213684498 11.44006633920858 10.554168603077871
Ge 10.176314078400585 10.270911460060102 10.573306400013662
Ge 10.832786690565596 7.111558418415224 10.500243516187293
Ge 7.825187432478064 8.361155351259084 12.053926091476058
Ge 12.28765039327884 12.073536979245155 12.393236608568337
Ge 6.3740301561629655 10.240551655363044 13.271351129522161
Ge 6.151571528880022 7.691621377970678 14.303412546145701
Ge 9.564517111292812 12.606946465929859 11.924909553154196
Ge 10.319290680937238 10.42592001080488 13.221773257750344
Ge 8.60872828985262 6.596948150610056 13.833385981002609
Ge 8.415251426207764 9.162540952011794 14.69177348408964
