42
Energy = -168.59666458 eV
Ge 14.057873634943757 6.828170833678567 8.604344930608557
Ge 14.091363644597408 8.197823794638966 11.503187881948929
Ge 15.279781116074519 9.750762449878398 9.49881204499821
Ge 12.700965375060356 5.939060056384714 10.862125050200806
Ge 12.039294533234356 5.01018117195111 8.30279433780128
Ge 11.732819175047581 7.662557019192299 12.953087260950287
Ge 12.25728366450578 6.890617684421299 6.394028800692863
Ge 13.828071563155456 9.138787719832877 7.242700725984756
Ge 14.729043108072823 10.973378952265755 12.27633158440846
Ge 13.92166230776682 8.998143566735473 13.98154723852617
Ge 11.608025606178748 7.886284419270662 9.067901394891848
Ge 9.215275962772406 7.800140789705078 11.93039218474917
Ge 10.045124577371679 5.8521719160052035 10.10142320416803
Ge 12.657664618278792 10.227454443567085 10.611500215499541
Ge 12.363690634175185 11.808700817422539 13.275178414025609
Ge 13.4389167974094 11.548166949805122 8.606603820057146
Ge 11.242382809584281 9.83149365656742 14.477888172737842
Ge 9.816719374313085 6.4589518139970705 7.52381697248478
Ge 10.436684151088254 10.055439563449458 11.921925080479474
Ge 10.354925112143922 8.9079851255531 6.046852927406139
Ge 11.865750470247875 10.978866115281773 6.5367818247044545
Ge 7.513063760170619 7.5232296584593765 9.737735661164091
Ge 13.353443246628954 12.927831450216688 10.97306723879484
Ge 8.476554417428913 9.927846405235453 13.715265765162615
Ge 10.168924981949486 12.638527894276454 7.771276339088072
Ge 9.841505643137591 10.087125962740526 8.47900641503526
Ge 8.998732321130296 12.59929264438232 13.205277146565784
Ge 7.439267845736196 10.515243819960865 10.054666874648602
Ge 7.923702501258644 8.64203689187031 7.186618702073027
Ge 6.164349150526544 8.79877874573001 11.732559932517663
Ge 5.365487319531244 8.941355832421367 9.030074533641724
Ge 11.135369273930255 13.989109747126493 12.203940959052451
Ge 8.004279962875929 11.565623894574216 6.833802163641351
Ge 11.226050353203606 14.407043357560124 9.49097983051756
Ge 9.484167017780164 12.581506556160823 10.53536246208984
Ge 6.386087495627033 11.454368721476712 12.592760375684719
Ge 7.273846969592041 14.078300106333145 11.852732112980219
Ge 5.626519801047084 11.583342231878733 8.197943244269386
Ge 4.547805346686002 10.822633704517203 10.717858827597189
Ge 8.883755513528602 15.365635333401485 10.116732534373979
Ge 7.499395747587388 13.63427719033907 8.808783311887469
Ge 5.209908726100085 13.371441658685294 10.219821131044096
