43
Energy = -173.95619648 eV
Ge 4.56173233740246 4.189850534791567 7.127655340161091
Ge 8.367069890508208 7.220062577814917 4.556256034982901
Ge 3.724904622409041 5.939071470338235 5.271890556207862
Ge 10.713750802932582 7.232761999030833 3.182435875489243
Ge 10.386400140891329 5.987269455892834 5.7203610999856345
Ge 12.005003374837797 9.5978878181832 3.7393506898787474
Ge 5.39938221631794 11.459159352937037 5.491738568420382
Ge 6.291557364152777 5.594455449237961 4.185127683292549
Ge 7.911077199527301 11.946112411937312 4.372410711345756
Ge 12.727530553315386 7.162527264317871 4.8828103201383355
Ge 6.884692751660856 13.60229004168822 6.3838707029203325
Ge 6.076138063709646 6.469430595303744 6.637209186906531
Ge 7.603218849238221 10.850327416744317 6.920150155065727
Ge 7.027006728576954 4.021781495444141 6.254223970250455
Ge 5.141216255276291 8.972876229210756 6.6760450786592855
Ge 9.364362481836935 9.563161820068679 4.1029151478321095
Ge 10.776913609910627 10.233699597247012 6.191795883148665
Ge 8.906828251544944 8.31625706087226 6.860597500498007
Ge 2.668989494932446 8.092412063805453 6.435641066447051
Ge 13.231422588577612 9.453426814173802 6.1675303693235755
Ge 8.334419119043128 4.98010540590846 8.27704534408969
Ge 11.473803336482819 7.785560631291203 7.306135843678824
Ge 10.723784595075239 4.726931604603815 9.475714068824402
Ge 10.599722541649642 9.501182069789717 10.404248222746839
Ge 5.518432199696858 12.140001861999094 8.107868848136178
Ge 9.593998895504715 12.626261038589174 6.39108015646684
Ge 8.172839526495085 12.91952086841482 8.653523519070946
Ge 7.5240399229695 7.253949599832993 9.177616630930409
Ge 3.874205123857795 6.655824350489652 8.0805130724208
Ge 8.221072897380804 10.362125285351025 9.738869058178825
Ge 8.675881625276409 3.307640980297043 10.462639440207905
Ge 6.483050698306906 4.863468181343277 10.180567773219453
Ge 11.835943212414362 7.19983455399823 9.81472581823018
Ge 5.247741408111178 7.208852106991409 10.674609157164898
Ge 9.32158562171898 7.220269599734186 10.877929464513384
Ge 10.060810668091948 4.962221916745778 12.122056646612307
Ge 5.720282527321355 9.360254880258385 9.200178713930805
Ge 6.408478693133138 10.427591405076862 11.586781573911747
Ge 8.854491195422312 9.40901250227373 12.535241687623948
Ge 7.3984156820073785 4.587091255277374 12.625977041934089
Ge 3.9918375346166504 4.612036983778849 9.731282937507958
Ge 6.440160759981585 8.091095991798383 12.85153548987893
Ge 8.710530522572517 6.849071341805013 13.51856943445562
