43
Energy = -173.23433032 eV
Ge 11.291735138248356 12.83463129723843 6.25453205557746
Ge 11.860244330552513 9.058668205186459 7.4050420504224865
Ge 10.17584863810711 10.922343127653834 7.570516880039298
Ge 13.04281550595586 11.32404181006477 7.410090864026314
Ge 15.677020232318643 16.30319562028647 8.618730848274945
Ge 7.912919392292591 10.464124525195706 8.713307385058856
Ge 15.574605478414295 11.515833322061471 8.216352018867564
Ge 15.977952118776594 13.825655963865032 9.264413380990188
Ge 11.623907441301398 13.768495697331018 8.601508241101934
Ge 13.561793425507206 15.2696334179542 9.473906919138834
Ge 15.510653710293287 10.040308949482435 10.417252285817524
Ge 9.213005081909754 9.391663774347247 10.69975801563435
Ge 11.53455305057182 8.798569713071789 9.911689908435575
Ge 14.945063857080688 17.358173311129782 10.959203301711124
Ge 13.620292048100515 12.315783840697764 9.8411824721307
Ge 13.255705156626943 9.811649299471156 11.484043580229365
Ge 8.37018763033841 12.107254653970323 10.558215929304614
Ge 13.028459672690246 15.831632515976423 11.957934714516341
Ge 16.98372815662379 13.666677003495941 11.633231371043546
Ge 10.286462827874741 13.715730042669744 10.785924519312337
Ge 11.076977903602437 11.274441277949109 11.285064965976652
Ge 15.760810389419376 15.679459874623479 12.750860970661602
Ge 7.359443250822551 11.579453574108959 12.89497786325288
Ge 14.298640658234829 13.483881473167575 12.070674024846817
Ge 16.16038703118345 11.420723667072936 12.458121377667783
Ge 11.55343225364017 13.774736128340075 13.144431132155317
Ge 7.912593447789632 9.041812236124818 12.970967586393057
Ge 9.189227007955884 13.234585140591891 14.423533497104518
Ge 13.735357391401644 12.117652195976667 14.316834995839562
Ge 9.9146528281597 10.819404120662092 13.56708262989295
Ge 13.672822541359327 9.48325634128799 13.97835626912599
Ge 14.789671342252664 14.686164972241128 14.915253967772262
Ge 6.700671095933488 13.025346905275702 14.882132074671418
Ge 16.060193857715884 10.398654136972596 14.766468079813292
Ge 12.281499162956838 14.937418572827012 15.385046945141617
Ge 11.563512634317343 9.798209881800368 15.378540163064402
Ge 9.072179631754832 8.937097954143274 15.281517643331565
Ge 15.861888290042005 12.696165415359474 16.143109088032144
Ge 8.05729807041898 11.233583230699532 16.18711863354024
Ge 13.460014468725888 12.575487362994693 17.00271674694218
Ge 10.270285056406786 12.353064720373672 16.80788871189224
Ge 11.726569686046366 14.312325598866988 17.74576593641835
Ge 11.91538165301467 10.65347167413033 17.707162501569627
