47
Energy = -189.78770421 eV
Ge 9.038276122863653 14.75357474191181 11.447208114333245
Ge 11.33534987989442 8.347096759281802 9.66071580609264
Ge 10.233376075439745 10.642791143475014 14.67009796228862
Ge 8.925265990361932 12.989563581320947 5.707768337199901
Ge 8.730361047401408 8.300690291712847 6.605923846489968
Ge 11.310493180448674 14.70213965522275 13.01906864368842
Ge 13.180570643604275 8.70510486195638 6.327667601676359
Ge 14.096054711147929 9.878200556124183 12.288560302746077
Ge 9.547054967072004 13.529286471615277 9.08906762389134
Ge 13.528942821564772 5.577175798771458 9.390716279915733
Ge 11.43839934416725 10.524492278844198 12.282542973760211
Ge 8.768656487522712 11.286127133534812 10.124187786523757
Ge 5.972719374615391 7.445060751244413 11.545984574574295
Ge 8.513625956156567 10.587720070001746 4.616067628327186
Ge 4.1185262327948475 7.114484411575091 9.750171973233886
Ge 9.74660937178164 9.873293910248393 8.314656522549955
Ge 5.763698412188036 11.04424959821723 12.89291324382469
Ge 8.707390706817192 6.005129547126328 7.963944565518246
Ge 8.542799142696962 7.690558579390997 12.427920150890486
Ge 12.908982492751383 10.944677751838256 14.555365711333236
Ge 11.35276163954763 13.29605816872394 7.038226815120819
Ge 11.030828277158957 11.651156601403125 4.726438066951271
Ge 7.61429409542443 5.331566191874522 11.352176456658482
Ge 6.340162188044015 5.917300597003258 9.183681327917101
Ge 6.893373343052241 12.94653449506002 9.047064023858121
Ge 8.194686393085805 8.009842069195821 9.763769775923821
Ge 11.830000838384755 10.707343445597997 7.123618346421293
Ge 9.221711734619936 13.011252773251751 13.848683473999106
Ge 5.753706077654292 8.850779033173065 8.859094357226093
Ge 10.002753935099518 5.903284036706919 10.278408478707215
Ge 15.060684698541952 12.148809654162555 11.097842784862737
Ge 13.04215983373839 10.521556866590174 9.933254399192942
Ge 7.66233583784317 11.280373502149354 7.165823176201827
Ge 13.887479041411742 7.129669434886892 11.653448736621622
Ge 11.381142876907209 13.094278754498648 15.239717934851146
Ge 12.135367434503875 5.1659637737629795 11.605090653501973
Ge 6.0351819130206 10.930646386242762 10.375348861170739
Ge 11.942149820844497 6.843524214430503 7.716342928111404
Ge 13.303488645463796 12.945227309487725 12.883555040959553
Ge 8.282315258442702 10.514211699859407 12.542019594535542
Ge 11.278990813517453 12.843438983571806 11.029950873597015
Ge 11.319804873591591 7.775278997414185 12.152536713718165
Ge 10.733789088685242 9.051492064973273 5.0420894573705075
Ge 7.1233566470090555 13.230566042666057 12.406891884374499
Ge 14.060355819711473 8.169369362171093 9.029329686916327
Ge 13.247610158841066 13.00410605703177 9.349354437567802
Ge 6.318560890301517 9.24115672643322 6.331897200542686
