44
Energy = -177.81900515 eV
Ge 8.68056946097149 7.169141538528073 3.756033141110158
Ge 6.056568529672435 11.312475213582225 3.701868152840467
Ge 9.859505184313344 5.07991426295435 4.945298627259293
Ge 6.227318657384387 6.3890265914608495 3.42044466552651
Ge 5.254108007981191 8.743069108539258 2.8223368266500395
Ge 11.490617527010972 8.938323581655254 5.851205813556197
Ge 8.2624375432401 9.78929751329704 4.019416468015658
Ge 3.764247323187391 10.209029986488586 4.687041329953006
Ge 9.326809809497911 10.828516704961801 6.131797543361983
Ge 12.243939906610319 6.419317519543033 6.477025188961211
Ge 7.597859587125577 6.354150594634603 5.947307901958703
Ge 4.190869386162903 7.5910697463817645 5.035794668476311
Ge 5.672992801612356 11.875090951667358 6.242216778935942
Ge 13.5685771920619 10.144108801580861 6.838893429539206
Ge 5.045046904836704 3.5551056046146083 8.42713638064117
Ge 5.510975840267907 3.942949562831712 3.9041188906014574
Ge 7.67611065965034 3.693945907042103 5.297413743855978
Ge 6.240203744739125 9.185904168670577 5.579406093974776
Ge 12.588209897348499 8.442882752580191 8.469172445271543
Ge 3.6800307381900033 10.990415646094702 7.669281590707374
Ge 9.415732503007472 3.1805012228791893 8.953721851239694
Ge 10.19863532751723 5.298064589275777 7.665561521935132
Ge 5.3257098489440375 5.17772436844059 6.169150791978954
Ge 9.831211724195345 9.064771242674668 8.05632443775896
Ge 8.188826863772192 7.069933734572283 8.328435327005732
Ge 7.304111688826643 2.5192993249883004 7.5650147088879125
Ge 5.799448769504216 9.570824869083728 8.185777491971582
Ge 11.41390593371889 11.447202812131339 7.461726385377573
Ge 5.411103963812516 12.125339532522599 9.320274811119946
Ge 7.247536823246011 4.776779144018467 8.988303368624157
Ge 12.414457831849074 5.845278258427964 9.07189640848527
Ge 7.6091322987617005 11.397504010882926 8.130306370928407
Ge 5.8587578871334145 3.966108292869573 11.045287784055304
Ge 8.648539256756662 4.344964388945201 11.232488302646347
Ge 4.15651732730729 8.538210374247507 10.640344909683039
Ge 5.381896273552599 6.480600893292041 11.586641992466365
Ge 9.89202428834594 11.31969109592893 9.553932961429815
Ge 6.9330253349379785 8.156095604657535 10.372359525311396
Ge 10.002376115524257 6.435493783116174 10.190370083302149
Ge 10.887512589744084 8.951872993375403 10.426614836109183
Ge 5.793879260972803 10.430838233097345 11.336629486523165
Ge 7.681351162369976 6.991674119270068 12.738597973265342
Ge 5.526241052860307 8.597974413178928 13.294610678624656
Ge 8.050740981609092 9.56919075114981 12.372092120207554
