40
Energy = -160.50423577 eV
Ge 12.804116579990806 7.531621067033834 10.666294439645892
Ge 11.519135373556233 12.703637257699636 8.491005255666579
Ge 7.452150079312362 13.104520679871372 9.29610635491263
Ge 14.647837218124003 15.54504675653443 11.575547261082633
Ge 12.971503939720579 11.560632299619783 14.9836612101074
Ge 7.877343180147521 7.838991590761584 9.572196878360367
Ge 7.1537683909897 9.638322281355109 11.840973895066236
Ge 9.486529278730673 15.662799098587529 12.38451499070503
Ge 9.969724950631472 7.549052087976116 7.985837932719327
Ge 11.937445833144409 15.968796062964579 10.65121573495209
Ge 9.1132036113141 13.653391189408877 14.252248396934462
Ge 13.775652830453668 7.935173734786269 8.28830562869015
Ge 11.526543483097734 13.141110591319654 11.170661040529387
Ge 9.321898747189618 8.710983930544874 12.862896166245026
Ge 9.121459292025746 11.559422336705287 7.958827900384932
Ge 7.578264139199456 13.948750979130498 11.84495401665786
Ge 11.620162332868667 13.328965181305872 13.700819885815575
Ge 15.217208065211052 9.062510532035475 12.467814704361956
Ge 13.601358729010318 13.90454090591483 9.715806832830562
Ge 15.202714818795487 11.442545035707157 13.582140446511845
Ge 11.504271754264794 10.177743470048027 13.265413009645348
Ge 8.994936449570721 11.518678253577912 11.064726787907865
Ge 13.517630330815015 11.149088863040848 11.340527370765043
Ge 12.343974253725227 15.869773762967384 13.275844137689504
Ge 10.34073769309036 8.097809914859488 10.568653949943725
Ge 9.738270156970737 14.561185079949501 9.88409027821024
Ge 7.037721123434745 11.882915544120532 13.371889360739068
Ge 14.274566887297802 14.164492216761035 13.856900676947479
Ge 10.950337283697834 10.194040253130801 9.349427464682238
Ge 13.004062565626237 8.008091414351743 13.189265425560464
Ge 15.650348470037413 13.061527247102664 11.570234496979333
Ge 10.74575810797801 9.646343051931321 6.649867702350336
Ge 13.106126871819928 10.530937283292541 7.836498001620801
Ge 9.154489076919297 10.889996554560092 14.553290078347867
Ge 7.941350749331215 9.312033888300933 7.25609625592812
Ge 6.787410444855357 10.428827910860248 9.356172731561902
Ge 15.05192056964079 9.403613026976565 9.89528179961373
Ge 15.335651918907208 11.873721939964442 9.147177778301504
Ge 11.064132743778615 10.004952230466426 16.017207160997316
Ge 10.888300787132296 7.653036080905099 14.660181639745323
