46
Energy = -185.63299082 eV
Ge 11.840061097495969 9.564009800770544 8.381607997446368
Ge 9.749197350855097 9.77319672746815 6.0633356418150095
Ge 6.7988538574394015 5.377610350667048 8.197950231792477
Ge 13.545078133039967 10.38684253334478 10.449826745273365
Ge 11.008680959470208 5.956076792605643 7.724877460465012
Ge 10.582716550176944 5.32185923536599 4.936172039908644
Ge 7.547580635849094 7.502370487640342 12.966588365009686
Ge 9.464864258624841 11.388792432656004 10.070383878836344
Ge 6.691486365863348 9.325273608929981 11.255915658020466
Ge 12.322742942797648 9.340761513127518 12.602763549216615
Ge 9.415775395219148 4.3763775527005535 9.563311349847261
Ge 7.121204043720444 5.485231824458313 11.257735937147825
Ge 3.775158148105549 10.495000148360344 8.626316005735768
Ge 4.40525932084682 10.64566700374814 6.019942129557296
Ge 5.890225746222918 12.019214890966943 7.958102197971099
Ge 8.83488639762901 6.972590720344623 8.780819764376872
Ge 9.643094414128841 9.74661149615212 12.49887408389032
Ge 8.90260631610664 9.962017691159263 3.6024992774869453
Ge 9.65881697764599 6.362707666717146 11.498411418019115
Ge 12.650873307209453 7.784130543412458 10.438801895506476
Ge 11.575167562015297 7.841795479997959 5.542178656628174
Ge 10.481746951331296 3.5160406813380467 7.013875808675538
Ge 5.125700301108325 5.85025985364156 6.1446591176037675
Ge 6.1609389049340795 9.445657788872461 3.1965272863965617
Ge 11.615804023320962 11.745788450782126 11.799818328019812
Ge 10.052478634570189 7.401966376597418 3.376601475614712
Ge 8.777317205126387 7.292484239308859 5.946429171823656
Ge 3.8542268902644787 9.388495027778227 11.084084487717483
Ge 7.448429106631715 7.210094687621563 3.515280870066502
Ge 6.129390560817506 4.951432090555504 3.8842442329900395
Ge 8.081724058624543 4.704419910462183 5.7001209251160505
Ge 7.952180375724431 3.0510503753630345 7.708498251415318
Ge 7.854078534770336 11.718582507380749 11.995766662932796
Ge 6.9267888341861035 8.784378566361926 8.798156550293474
Ge 13.174229469558076 7.401760468374109 7.71950659760926
Ge 4.617043563805568 7.333217399069362 3.8362976633742996
Ge 6.168097727608357 8.487927484799899 5.893877860752125
Ge 8.185628260326055 10.740988974576071 7.917326073103696
Ge 10.21968190303256 8.642428172316343 10.210628155566338
Ge 4.793847148038263 5.4811448915051155 9.958989803152114
Ge 7.0446185151717255 11.001149251792995 5.277773827018264
Ge 5.086048490581866 7.136921820783811 12.030750145541598
Ge 5.331747768065023 11.591989679247135 10.67317939152055
Ge 3.5361625264445378 7.999354610439722 6.329445609402399
Ge 4.551376769673025 7.866444021346008 8.837469473788842
Ge 11.869485052795334 12.090985526065037 9.177379303528172
