47
Energy = -190.55944768 eV
Ge 12.412646605700818 5.8359360971711824 5.831316036348415
Ge 4.91577989427012 10.91489401568441 5.302364204021148
Ge 12.933095613395427 8.250178798975647 6.933799641947015
Ge 11.449366866419544 9.20223275988425 10.725291987985054
Ge 7.471094323895994 6.1039027965008605 5.255822267035696
Ge 3.6163977549411945 7.518138958413959 12.462249775641833
Ge 4.955811690313619 8.773575692282055 3.993486587033631
Ge 12.44169792105826 6.329343288512885 8.776962639847419
Ge 5.345170829726405 10.177248854896257 8.413378175111157
Ge 9.869961100554521 5.249103926077029 4.932262492025781
Ge 5.943123368190441 6.221152170166557 9.709204207884422
Ge 10.024912886817074 12.54264177200538 10.400244823282053
Ge 7.9572225425837155 13.980951514503051 9.503844919976592
Ge 10.010712849303218 14.204002822937111 7.929984568096041
Ge 10.760867573422576 9.385969261116713 5.977247050377909
Ge 5.611591362815668 9.301472051231302 12.739045353595218
Ge 7.141534380261051 12.083960289445963 4.861808517473826
Ge 13.957641626596928 10.347019867140249 11.628088998071373
Ge 3.1450241315070535 10.419333365033044 7.090714018803032
Ge 5.600571640360573 6.1317634650869195 7.130448704386994
Ge 13.694065350403408 7.669359115912139 11.223246626597845
Ge 10.512775477818046 4.413222270786014 7.473051142115726
Ge 4.175092381894979 8.161004502479148 6.361112795946595
Ge 7.365499505563531 11.426465493206278 9.65918677727615
Ge 9.982105311757886 6.008440117751144 9.652014567972437
Ge 7.443167606531288 9.501768602510177 5.1191314642670935
Ge 8.01856086125197 12.429999911602968 7.27222570376017
Ge 13.072136261896956 4.121745541254012 7.651392953847651
Ge 10.180745126443165 7.083222839304865 7.0348517750569926
Ge 11.766134667699523 12.080749090138516 8.499113915093488
Ge 7.47042565588043 8.031862292388869 11.463191303003072
Ge 4.88724986596456 8.593336948187089 10.334945228208067
Ge 8.649985236610384 8.190585951697644 9.126378214577892
Ge 7.469206034146921 5.336502768729746 11.563941360241419
Ge 4.701173056177937 5.0116793644176685 11.823281919152866
Ge 9.89314889544853 9.090393921179427 12.852412520130066
Ge 7.152487066809936 7.635223378029067 3.1576449708844567
Ge 6.868262032385036 8.41571177481499 7.351583498718957
Ge 3.363210186067164 6.47793791995858 9.97623037987434
Ge 13.273972832481366 9.95694319746265 9.046703419853316
Ge 9.565185427140266 7.895848666926228 4.201544165275455
Ge 11.298497868060466 6.885160940268793 12.066029979801238
Ge 10.48840678989792 12.001314252376538 6.250680309251832
Ge 9.609193337727389 10.525127298846797 8.509915918677251
Ge 6.090242560181983 6.694803547084099 13.448022367360576
Ge 11.508333644627202 11.239785018273452 12.547085509704075
Ge 12.617771268386106 8.83024277873574 13.41877551579462
