42
Energy = -169.74594037 eV
Ge 11.315688889221141 6.003775647141041 11.584945981675542
Ge 13.784831524080278 6.579278338452619 12.176053074828827
Ge 15.98935959330931 7.803561672787262 12.642693182781233
Ge 8.577123700453694 6.31838522720343 12.599120071874921
Ge 5.990215314988494 6.9220509967992685 12.51630288340005
Ge 12.353718199552938 7.992418686100541 10.187762992062009
Ge 11.60893056749167 8.10401108164079 13.004052129954802
Ge 15.022289200491349 8.175915634800461 10.076637470591372
Ge 13.843609738489107 8.551591175795727 14.293014848811042
Ge 8.142361461195211 8.720589484381403 13.876624388596401
Ge 7.452702585487236 6.306197386823638 10.224535172347233
Ge 13.146269291282136 10.2787846300857 7.283684324005652
Ge 11.589952886098784 8.217215431718957 7.48910279168597
Ge 5.98279828322876 9.705995099265541 12.619128540634106
Ge 11.648028983849954 9.677291082461316 5.006511693222958
Ge 8.203565713630953 8.624914312136886 11.256971542969813
Ge 14.801314326449575 9.97292645574564 12.017249658938702
Ge 12.805825986056488 11.08827326577987 13.821683069610115
Ge 5.144846293932201 10.886803511553191 10.184216944259909
Ge 12.081377093110154 10.3429584661018 11.231358953430023
Ge 10.21642119300774 10.725543899952811 13.182238617831826
Ge 5.762477650215416 8.295053509494426 10.250470685129077
Ge 14.514292210471426 12.548560503938948 12.108482900298704
Ge 13.146226121187157 13.669452358848476 14.056674256718726
Ge 9.3693030254457 9.07257337890674 6.265712639889035
Ge 10.40625167400034 10.540010681840771 8.139690432481535
Ge 15.096581460721497 10.690602931231238 8.93026780399504
Ge 7.342746761420579 11.970209058167978 11.750454702121655
Ge 7.352522285298198 11.662251025675506 9.001389370233452
Ge 10.579332746518142 13.40754477468235 13.534870955980475
Ge 9.974429504947107 13.402244453876056 10.908160700769978
Ge 12.605104920466749 12.194707918603891 5.556131246984395
Ge 9.428697923360595 10.890353116939247 10.503066029028572
Ge 13.136829590258744 12.172589573436964 9.774583225122827
Ge 12.41432261317896 14.33337156561705 11.451795163511768
Ge 9.891365943178304 11.63550713523527 5.637588086419862
Ge 11.53293441302773 12.83392579858437 7.786294804497441
Ge 8.092367745177036 14.340382874352429 12.57875195580315
Ge 6.226549443829157 13.881567859998928 10.193119773105437
Ge 7.964548227344482 13.972774483304987 8.053312104162869
Ge 10.4830633311657 14.971195490434567 8.902597607884754
Ge 8.302639032490587 15.609244519270119 10.233543070735966
