43
Energy = -173.34555024 eV
Ge 9.461319210649854 9.990142676450068 4.691761345647175
Ge 7.046360678782005 8.08052726127582 2.988980495662495
Ge 9.437733234316239 7.248376348084226 2.4179404165281073
Ge 11.320533870863201 7.941725490897661 4.430419899984439
Ge 5.341765735381635 6.215179696214437 3.48452075209865
Ge 4.829541970310593 10.875944186666812 5.95241885184069
Ge 7.7973000870384706 5.361207009155959 3.278677728625366
Ge 10.158983537399363 12.144397420082948 6.519583960438429
Ge 8.484164011930865 10.085796088332366 7.290646224351132
Ge 8.848758236753524 7.243077885222316 5.152138906883386
Ge 11.002665121601513 5.839812630970357 6.03545792293413
Ge 6.883445718822769 9.029639554528691 5.45087717974181
Ge 5.2820338867487475 12.390003429076812 7.997959529213834
Ge 8.76338613833815 4.485973840078898 5.5621581435425735
Ge 3.2648466915534424 8.76510095142984 6.669611247522719
Ge 5.358114361672202 6.979037550982665 5.999374890540071
Ge 2.7179436458041555 11.322613799685932 7.759577241500031
Ge 11.304389580022814 9.737288252882822 6.640265875028381
Ge 7.508306215353414 2.92130475365696 7.3285680254936985
Ge 5.276343674814901 9.636152846216975 8.286042956719974
Ge 7.054082426187701 5.600214320988514 7.338793802427033
Ge 10.914014207609474 6.7674228697014875 8.420657586234439
Ge 6.218897845758792 7.587529325742923 9.932786768915516
Ge 9.355664888180053 3.9017343237232427 8.894714015927951
Ge 11.859797646050783 4.252275903039537 8.92767386585959
Ge 5.8037722059367125 4.0463364660337415 9.072667905979852
Ge 4.4661677041551195 6.36097865523874 8.506798659311569
Ge 12.09929236153294 9.008585092041717 9.197025389804736
Ge 8.18444087235256 12.507375121762358 8.221898520811996
Ge 8.514455528404104 6.572358015210541 9.268431376569218
Ge 2.853669159721887 8.962657765407613 9.29990781004439
Ge 3.94749284346458 11.283876592446298 10.112234995336786
Ge 9.48439058171211 9.190021680723353 9.507991522023259
Ge 10.884139292842349 11.59874742565253 9.101919114120257
Ge 10.357064210068227 3.7129510611110836 11.446421831177728
Ge 6.351254494086514 10.474126427510454 10.721642768469758
Ge 9.368194380713447 6.322313106601255 12.083640668435844
Ge 6.29237256079916 8.458441722735698 12.326744437061096
Ge 11.725952799862458 5.948481993776377 10.925713093610996
Ge 7.8212582347047395 4.608189271881794 10.874850163136424
Ge 11.381723419408736 8.437283951683064 11.754673519331835
Ge 8.763038758665848 11.619268446782089 10.741214087555548
Ge 8.823714864894622 9.098315683583236 11.997403398827108
