45
Energy = -181.78185732 eV
Ge 12.09601549822853 7.588809497378488 11.586045593879565
Ge 14.821955089272109 8.333912621306643 8.676359681727217
Ge 3.4561155498535725 8.515106915814478 5.245167839565744
Ge 12.107182914358507 12.12756702860662 10.345546614707144
Ge 7.50176142070684 8.350884477365666 11.433995981884905
Ge 7.765703408336389 12.304830333486073 6.66474968397117
Ge 13.179550749106026 9.014666153055083 13.492895993879964
Ge 10.400390822487715 4.350147429804576 6.493944568274824
Ge 8.804478537704407 4.538906438376321 10.663572568219708
Ge 6.760807371770989 10.811647028773505 12.408794952980026
Ge 5.845064917148486 8.987663220351576 5.751324198904946
Ge 7.148850009681848 6.81915044126763 6.959198905517185
Ge 7.295504624471207 13.75014147904009 12.149696875571577
Ge 12.217294291807086 9.64763744328499 9.02870619091889
Ge 9.875904389102663 13.880031229125086 11.391977742173982
Ge 6.523414814887104 5.940479004650925 11.069741408991241
Ge 2.893096033103909 7.689540918821843 7.793217559376356
Ge 5.131995359558389 6.721847599499619 8.93445017824362
Ge 8.26935941908079 4.55169986159888 8.058350667657384
Ge 8.65281628434319 11.640197683697702 10.503433593864296
Ge 11.205241248725159 4.541300198396763 8.95702763394155
Ge 6.001801502270789 10.813309614003911 7.869784439253872
Ge 6.105282804039088 12.225883303208581 10.227360496984277
Ge 7.079466344432084 8.618378187784492 8.865134781049692
Ge 14.040234170944226 11.422993205288455 12.218061377989807
Ge 12.890917470966084 6.590553531676453 9.337398875035472
Ge 9.217909774760189 6.496802787268251 5.356545773826542
Ge 10.835521893250299 6.844818931164288 7.37734155599611
Ge 14.47089549884834 11.046603910347693 9.593675013468316
Ge 11.398894629110359 10.626078007270092 12.41771689982143
Ge 14.635656733210586 8.973010178083548 11.327710470083089
Ge 9.075323257392132 11.932744496349192 13.126798008617106
Ge 9.997123419447524 8.993937770991396 5.239335757216087
Ge 7.980899264608319 14.077418488015196 9.52373638255011
Ge 4.308439625890234 9.107824410716852 9.639589847975486
Ge 9.64541068053202 6.755283102832131 12.035096846705978
Ge 9.18980587962301 6.852786911138957 9.403493589353253
Ge 12.898627635019166 8.356505431811993 6.819780497995602
Ge 4.713413410095243 6.280731869054879 6.2435617565628485
Ge 3.5393388501913874 10.290650863818778 7.335309176585511
Ge 9.048153916876672 10.065758415141701 7.48081094060519
Ge 11.642564080593985 10.655219037022496 6.373165995384994
Ge 10.156864373757456 9.210554612401593 10.575350514281181
Ge 10.310527497880468 12.312206639253347 8.113469789031077
Ge 7.900454834435424 10.379809593563195 4.927603081285142
