46
Energy = -185.86000949 eV
Ge 17.62155231700227 15.697352073340351 15.071958646864363
Ge 19.415328280836547 13.729231297884947 15.601722579483308
Ge 14.978019448655926 13.81305500675817 17.688938881993334
Ge 16.853717567390202 14.633175636682797 19.250963055667405
Ge 17.145186566583956 19.16001575817566 17.10762429558383
Ge 15.227675431913925 17.549334435345088 15.99971020213478
Ge 13.737445638086225 11.726914326829368 18.910007751707838
Ge 19.910219270431146 12.364788540906753 13.30570733711912
Ge 17.640191848066053 16.378656891348292 11.794966508757163
Ge 17.02244607504749 16.529504851090667 17.510384165734447
Ge 12.460142235270332 14.288638033120382 18.266295050717364
Ge 17.88715278460543 13.01446138161167 17.566250452285892
Ge 19.462059342624407 15.02735547648895 13.134857128446594
Ge 19.109581039895865 17.634757411706797 16.31527291456872
Ge 12.775624482749258 18.348736435922877 15.996004548982995
Ge 17.205703508863415 18.242306839576848 14.56285643558927
Ge 15.489470998272434 11.117284209838642 17.153446749441912
Ge 17.933173032742637 10.450532778766874 17.334147024719115
Ge 17.89183550416356 11.446152391535268 14.927622386855328
Ge 13.761882992397641 16.776552341134998 10.27209351611927
Ge 14.104699937491658 14.19935736184577 10.65537816650229
Ge 12.026423966961904 12.757172500407776 12.34483088827866
Ge 9.463647761499614 17.478716613235786 13.488023287871806
Ge 11.368845673757555 18.03348052233445 11.517499759361394
Ge 11.683168529066833 15.984788498225093 16.348907625229547
Ge 11.73901177225598 12.27003408874225 16.80758040422746
Ge 17.790505327500853 13.109139843756735 11.753241061631174
Ge 15.357791923234876 15.401564765828752 12.473827588887916
Ge 12.160905323960451 15.702852313905801 12.311063801052963
Ge 10.28202818476786 12.486047454276603 14.50819444318658
Ge 15.634475442286973 13.96934560906609 15.132797373375354
Ge 16.713239034313222 14.762125152402882 9.972838095549763
Ge 12.957071849872854 18.313373482024524 13.460022373093816
Ge 15.062145505814033 18.04338351455014 12.088674357742775
Ge 13.775214318894855 10.533948275622844 15.430538043808975
Ge 13.793348502422532 10.818587474439058 12.934654864420194
Ge 13.140245330659118 13.010539964738625 14.661685731619094
Ge 15.968434076527787 12.151646477622016 13.279767340597896
Ge 12.432103528862875 9.904900705946604 17.510640186618264
Ge 13.581337371721407 15.844158661138765 14.61814808754863
Ge 17.44783793038479 18.953909025255797 12.100873862044114
Ge 18.067493036321498 10.593277321994426 12.439911829206913
Ge 10.344886373200701 15.054581371753958 14.178214719785181
Ge 9.074332312815491 16.645629577652205 16.1492306031643
Ge 7.7609226403727405 15.6880153300763 13.94395653762236
Ge 8.408808077139486 14.027950072798436 15.786001432507248
