44
Energy = -176.80445345 eV
Ge 13.39812356512339 8.409660295530289 8.923851425841699
Ge 11.939457983438508 13.221161365944802 8.432373595272352
Ge 8.04797776495898 11.750036588920388 10.632714454428475
Ge 12.628320241085591 15.990072250891282 11.273838954393474
Ge 13.174398314455509 11.634883370757725 15.161963863323363
Ge 8.117207701400496 7.765251724507069 9.776897729452491
Ge 6.5764081869060975 9.34316863247898 11.062648289628191
Ge 8.788128295284805 15.815661950940012 10.978259910375943
Ge 11.179692906837298 7.134121841620276 7.8741114436614374
Ge 10.884701834840286 15.517850592843985 9.33692943863473
Ge 8.323439245185284 14.360083626394132 13.478606142294739
Ge 13.089541253797051 8.177547120927528 6.258783567814844
Ge 11.76300050852211 9.639339100741877 16.037218179781195
Ge 10.44554324271303 13.294449178357514 10.874489434779633
Ge 8.921985066765862 8.035228866373219 12.389521115120573
Ge 9.67821863454171 11.456836187444194 7.896920676554545
Ge 6.699310423998213 14.053658985045441 11.298658570235705
Ge 11.406151619388913 13.610636505958007 14.966128002408244
Ge 15.023201745909528 10.00411768554565 11.178487354089961
Ge 14.148641016499665 14.11471504276512 9.456684952876595
Ge 15.78856321964923 12.382801684201487 12.421716263222189
Ge 12.114200363751216 10.077351240579725 13.28025839154115
Ge 9.467121487820606 10.613334392490637 12.584383246698268
Ge 13.10910339890037 11.855756443567024 10.734688758967177
Ge 10.797656149725027 15.159809831657366 12.872064852948782
Ge 11.019309867170236 7.9563637782709575 10.449517896402265
Ge 8.40798144925934 13.896488601023869 9.124950631329455
Ge 6.906284480477612 11.94487451302746 13.172118572714332
Ge 13.517908242218846 8.042151835739885 14.68436808112694
Ge 13.094024420819993 13.438324354461509 12.742520807600656
Ge 11.385521440792377 10.344465875895391 9.478753344581195
Ge 13.20866294686114 8.015616546698633 12.02760651158601
Ge 14.990081847963875 15.054642240250764 11.748037365413623
Ge 11.06493981005637 9.704435627594588 6.47299477700526
Ge 13.340914873197152 10.779100258833063 7.466211442178138
Ge 9.283366156083705 12.066939896933238 14.706425005332283
Ge 8.860620265903936 8.426239827871832 7.3984792621110875
Ge 7.278600561595927 10.22798331123484 8.5640128431254
Ge 15.590025167133119 9.763319533308433 8.511798885984897
Ge 15.83227508555045 12.149347097054727 9.74552867154567
Ge 10.863269657625347 7.728826068122827 14.26825701127596
Ge 14.983755993500836 10.256856005862284 13.926860321106174
Ge 7.159029719250856 9.2954571429107 13.774945462040577
Ge 9.170440372401087 9.505851711950626 15.5580756536173
