46
Energy = -185.67262214 eV
Ge 5.8857762885240765 7.092282144252906 3.5510156917298104
Ge 9.171031672800138 10.06111718977752 5.909946686619512
Ge 10.113319522947677 4.827917417639167 5.730917743604635
Ge 6.639631389434017 9.616319664092517 4.01022449281912
Ge 11.58847145993418 9.209431850609612 5.414448062012805
Ge 3.457954492704001 6.422672475018639 4.645450413435012
Ge 4.019366139957846 9.050507212824078 3.9904274125766834
Ge 5.376190019309063 5.680316127483105 6.183746588506608
Ge 8.588045256996319 6.631703850884763 7.00447107207374
Ge 8.77639411855391 9.919915794076356 8.644299245187781
Ge 11.532500191004589 11.6985988695509 5.945181957488477
Ge 11.30416678836089 9.926984801208189 8.081732994396148
Ge 6.58710165194608 7.971015715951386 6.064451604913755
Ge 11.105930328075585 6.456297091851926 7.685825327195127
Ge 7.326939101777852 11.779903874979889 7.509419023362547
Ge 7.641037691089996 4.2174118976499635 6.1341416748904365
Ge 5.246088186497542 10.228256042807818 6.220884922653199
Ge 5.306891887183787 6.145760465532776 8.917222439121058
Ge 12.187923027909356 12.295997358500827 8.72250403469865
Ge 11.161124567981542 14.05034690955852 6.831843200296741
Ge 9.016344484868313 12.66923223963793 5.497882668325063
Ge 3.8034324544423934 8.090912284911974 6.653473807946529
Ge 12.980236575762968 8.117177732708507 7.340667907396804
Ge 9.517317920313058 12.853218651242363 8.367705864103897
Ge 7.535108677794662 4.613068236736782 8.609220698219215
Ge 11.649166852754703 7.629718295200277 11.18174464534746
Ge 3.2823144443595953 7.842265768322016 9.142380242070546
Ge 10.513890893189519 4.00705071035185 8.25313442580951
Ge 14.10308186905014 6.684560313885959 11.340575328661446
Ge 13.820331020350856 9.002814749459768 10.143370368241479
Ge 4.977358809565928 9.742918938587508 9.551713143837556
Ge 9.49673001274276 6.5995387004610695 9.798609715015955
Ge 6.825582502411 6.288375028908059 11.29847606069379
Ge 12.027350992035588 10.193882415930094 11.652571966201918
Ge 8.791376827824148 10.79977771931092 11.055219813033993
Ge 6.978369886561132 8.09905808949844 9.278234653663006
Ge 6.508430677737755 11.821106372357672 10.316227963559736
Ge 4.598829256596759 10.961209443902016 11.964099856174421
Ge 13.813805502993553 8.759723225476074 13.01723996358365
Ge 12.393121229727042 6.54967456040227 13.492377512610343
Ge 9.08358392837721 4.140421983159587 10.50175967313615
Ge 5.618677365030026 8.534376477034629 11.962024320584574
Ge 6.969870223764685 10.594121168636278 13.045836151319635
Ge 11.010911836178744 8.754510539850168 13.56610550166965
Ge 10.8269458059015 12.397890090591247 11.069838357074218
Ge 8.35721903674343 8.485912379252673 12.216627674203627
