45
Energy = -175.56800132 eV
Ge 10.243978693709106 12.684297629099577 10.807291517080587
Ge 11.191295692623456 -0.021045169961831246 16.40915787299256
Ge 17.321334575417485 18.11026842137179 12.793301279658307
Ge 18.443160112392224 12.711184941439129 15.825626796888045
Ge 13.295118493004765 -1.1030239391823382 16.35892236120638
Ge 12.81236439369555 16.194493190244867 20.325104399354334
Ge 23.2346957789241 11.622985911263312 14.982981987420668
Ge 19.09738450995734 12.417254472477522 13.263608405843977
Ge 15.493363185643128 15.92578672077936 21.029568411830148
Ge 16.31400551148145 18.75085744810786 18.128694734251717
Ge 21.58203538868619 12.176819067177505 12.95275406254652
Ge 19.893421072468144 11.413827539467741 17.548477922713623
Ge 17.918645253412222 14.397824163833684 17.719227537268804
Ge 15.934414059853129 13.046798283968633 16.140657814450694
Ge 20.561674469835747 14.147054202287837 14.978786531562411
Ge 16.74823221209025 10.932975767636819 20.37295958017884
Ge 19.529380693762533 17.939324546722446 14.474829073488795
Ge 16.338506422698252 15.625114909640935 16.00454891914427
Ge 13.863351732562094 18.262602132723707 19.132549669078415
Ge 18.68993035737188 12.48859366973347 19.706778523854748
Ge 14.771229243114698 21.980221190560187 20.18718287678408
Ge 12.920885166889793 20.1786745123553 20.610118764406284
Ge 21.059882385244638 10.514815816788479 15.41429923013863
Ge 14.126305894951336 13.880701196453234 20.22997280844457
Ge 15.410881184397846 22.01722738294648 15.722202211879347
Ge 17.599655778304847 19.3891117948881 15.243055217394723
Ge 9.292166237201123 11.262708188043991 12.530910050192489
Ge 15.719532295064909 19.589528519437273 20.70755548289811
Ge 20.711352526162585 14.609267515275471 12.457885333974176
Ge 21.961095068852664 12.865183119069275 16.810930154279216
Ge 16.722283562801977 20.62240635765209 13.036464986923985
Ge 18.200744462008387 14.474774738518303 11.88555474238287
Ge 14.0861278580401 17.94486687458494 21.96664174570744
Ge 18.62862046447136 21.69222463875584 14.716581810468515
Ge 14.639915670193284 19.556264067159383 16.242359258334893
Ge 18.433406079318548 15.635766140327313 14.153910513781328
Ge 16.025598417494955 12.758684139366602 18.66827169094169
Ge 16.308263990393886 21.349747340537597 18.044368105144436
Ge 16.622075910473793 23.064259974284454 13.716752838692749
Ge 17.26136626508563 16.59292884510952 19.141452871649797
Ge 13.469911595845307 21.043717324073683 18.02738571774516
Ge 11.238436228633631 -2.1517190773830617 17.69350269265511
Ge 19.333267367581126 19.95525591257025 12.855681359092616
Ge 14.795890936437814 15.713685969958345 18.275946105967567
Ge 17.785116974695352 10.214321409875383 18.23160928659079
