42
Energy = -166.10313337 eV
Ge 8.809157198545867 15.846080008100346 12.903936529701399
Ge 10.137688744169116 15.087288273943507 14.994165437244172
Ge 12.058467807230658 14.96428581585898 17.65727201975509
Ge 14.000456820183985 16.087650321527825 19.367775688642134
Ge 15.34416050312945 15.080181883421886 17.433555954873558
Ge 17.829807194434558 15.792191142690738 17.27170714358358
Ge 17.932988077191315 14.811344758943802 14.721209245603397
Ge 19.178767487937797 16.068872510283615 12.611224380447316
Ge 16.126662374321867 15.807448177184334 9.30734478133171
Ge 13.715485587727292 14.963124921962315 9.953704327076403
Ge 10.773566655220144 14.853062676073149 11.27455715532319
Ge 7.385645382465959 13.82864165337148 13.831492614808672
Ge 12.4602473019372 13.94336229229496 20.18876281224228
Ge 15.365841659287257 13.960423836184239 20.146490066956687
Ge 18.061050139097365 13.775403507850973 18.935004913089095
Ge 19.73473894830138 13.89469848119088 16.697276727031365
Ge 20.432078988693345 13.989082717788113 13.986231756350918
Ge 19.74427861571034 13.925732458231177 11.114020074180795
Ge 15.357477069222245 13.874362078864486 7.6289615589171555
Ge 12.451882711872187 13.857300534975352 7.671234304202756
Ge 8.082985422857917 13.923025889968711 11.120447644128225
Ge 11.646802065543092 16.078829982563917 8.930653827606942
Ge 9.75667423206208 14.042320863308326 8.88271945807047
Ge 10.703624773117214 12.874652530963067 16.234570365009144
Ge 9.98791717672474 12.025533228468706 10.546017227576018
Ge 11.691061996837579 12.010276193974965 18.510379589827892
Ge 9.881746913509883 13.927350800539227 18.978080747109942
Ge 14.102238783432153 12.854599449196984 17.86402004408304
Ge 16.17092230561621 11.738894388595382 18.887070543552646
Ge 13.817267550975313 11.730074049631622 8.449948682517311
Ge 12.473563868029995 12.737542487737413 10.384168416285744
Ge 17.680035626990193 12.73043609721579 12.823558933915274
Ge 17.044157715939154 12.96466169508615 16.543167215836398
Ge 9.884736293968125 13.00637961221579 13.09651512555605
Ge 15.759256563928934 12.853438555300318 10.160452351404196
Ge 19.00856717261372 11.971644363059099 14.9137878414579
Ge 8.63895688322164 11.748851860875975 15.206499990711983
Ge 8.0734457554491 13.891991912928413 16.703704296978795
Ge 9.49726935533455 16.06176526720142 17.28398288273114
Ge 18.32045501582476 11.755959103958023 10.53374148842845
Ge 17.935977457649713 13.890373570620072 8.839643624049657
Ge 17.11409959804209 14.943071840196524 11.583154006150446
