44
Energy = -176.72453058 eV
Ge 8.20940322756513 7.983713047610902 2.960955944509939
Ge 7.379207664451965 4.2246390740100015 5.401381999483755
Ge 9.698225819345524 2.794957915659157 6.451348507046394
Ge 9.767162090585568 5.268386855643962 4.741618034115653
Ge 5.632580990181181 8.749571586520092 3.3654429080691513
Ge 7.5251827085284235 10.66127365254918 3.304500672424662
Ge 6.565750204277033 6.814959142777772 4.919124971942367
Ge 9.778726163586407 9.485551799654166 4.374396567476252
Ge 12.270427463295098 9.470620031675704 7.077971501730662
Ge 8.858646857063246 7.542187399386362 5.8083059274091235
Ge 11.618068040192197 11.042444549338054 5.093314358932077
Ge 5.930299365685323 10.499790634191665 5.674406929914238
Ge 11.4098399472574 4.996545322228589 6.899890004307885
Ge 8.892536158796462 5.09674464344843 7.661060696343578
Ge 6.3729464282648465 12.595962802218244 7.419175049306209
Ge 6.270930851694064 4.557496373043299 7.680606035220697
Ge 10.869288709995683 7.453791055451418 8.075389601565282
Ge 4.272169111581457 8.442857968229887 5.737211288365997
Ge 8.743007791037614 11.960201888202386 5.337353837697553
Ge 2.8186007940584137 7.336817645836441 7.7948573962868615
Ge 8.072950853530973 9.81663227789685 6.920692870721256
Ge 5.557804381371517 7.0171827174639345 7.575401060970758
Ge 10.263052146809683 11.28751343032968 7.4645315957061
Ge 3.9488883306755254 11.78090190396861 8.322262998658568
Ge 5.623763323841391 12.708033815199279 10.140883467331445
Ge 8.07183753767581 5.017214809314497 10.295872304579406
Ge 7.703159314063283 11.173073323572972 9.271700578666879
Ge 3.8531833017568977 9.285292509739373 9.070998841193942
Ge 11.547917910955467 2.933401609707291 8.655440404746301
Ge 6.448262205223006 8.77856978677357 9.271189099001786
Ge 11.88665799447184 9.95506001654611 9.547804712860446
Ge 8.90217860602537 2.5384077758805024 8.894877778192186
Ge 4.183569653159174 6.6165014111604386 9.882637282076972
Ge 9.177517072825124 8.432596516277012 9.737930064579437
Ge 6.461909825016313 3.09267304993626 9.798093754264714
Ge 12.333642647800115 5.387067770011555 9.541103014459008
Ge 11.596487304688303 7.6064565987626525 10.793777447394602
Ge 3.8490352339914877 11.0009181924561 11.082377929835545
Ge 10.350031437715282 3.990480117327094 10.797620147960451
Ge 9.704563747545476 10.709030736413045 10.8511608619252
Ge 6.529853702828909 10.68750627906242 11.67884547732204
Ge 7.379993580461279 7.250257678720678 11.460835246620084
Ge 4.99532335798553 8.452899908440013 11.710888671965035
Ge 9.580184572555869 8.408582807780279 12.359530587236755
