41
Energy = -166.12493388 eV
Ge 7.915345938702166 7.849106853227384 5.380910880699775
Ge 7.382695314915865 5.15905521382067 3.7601818005803063
Ge 8.391295074816773 10.822822828550922 3.905699828376992
Ge 10.167576112231181 9.024344866102412 4.895273260808377
Ge 9.888554907398188 6.282169499266549 3.848386643652217
Ge 5.126293691854569 5.144401246410675 5.370675649755942
Ge 9.507190241222279 3.475641169436046 4.2861316527313305
Ge 7.2795677436245265 3.371799916945648 5.847225292203319
Ge 9.469051543511993 11.986715437825348 6.117145042465143
Ge 5.55695294038706 7.6077843328316055 4.355291636072625
Ge 8.658390337961302 5.613232488685639 6.3105134268844525
Ge 7.174677657334738 12.97171710108151 4.972344251239236
Ge 7.300093789334747 10.371821056310978 6.390653570658351
Ge 5.699497626151888 10.634725419093087 4.234749661578427
Ge 5.601390386759163 5.182312317037796 7.948129583080468
Ge 12.681645338612206 9.595406608075535 8.673152326861581
Ge 7.427378871421662 12.694778730057926 7.680143547074785
Ge 11.240053848979736 5.1071826623074426 5.798608568957139
Ge 5.0737005966443665 12.057302972298244 6.468871635033271
Ge 5.094799136175131 10.06343706890998 8.171101997818134
Ge 11.202138129096577 10.557834161278155 10.691070983613969
Ge 4.933604365585612 7.803735206257741 6.839061576284858
Ge 3.292728950261178 6.862803549386436 8.537299537740616
Ge 10.385222222387702 9.282265305863833 7.540597441319205
Ge 11.626363942003444 6.980368694443097 7.861626054306901
Ge 9.738557122433214 3.347394909956622 7.037989568303331
Ge 6.629029143208995 10.10901900506183 10.193130061969775
Ge 3.4514630152728274 8.943474071289337 10.033947606729837
Ge 7.581111515106966 5.1754305263523595 9.692529957806306
Ge 6.157241664241381 7.539891198100093 9.54322835277795
Ge 13.823740606700893 7.26318375563623 9.202952255540435
Ge 3.54722445877786 4.529413855889809 9.417476934993388
Ge 9.47755622675299 6.890079683432527 9.331337377943537
Ge 12.707918029910026 8.540461235787236 11.249550220780856
Ge 9.063605139308637 9.421569744687675 9.746839039804234
Ge 4.196574875318043 6.114649336329383 11.408218788557363
Ge 11.659170556165108 6.102901214305453 10.541136162268531
Ge 5.5743866934309185 8.59705745848181 12.096102261664974
Ge 6.677329605377336 6.2121898070890085 11.993838447121647
Ge 3.022893576543954 8.217921123875374 12.421816591652485
Ge 10.149926762911088 8.02653606705358 11.738998221122184
