45
Energy = -163.66818905 eV
Ge 9.25667436039928 13.362447933332527 8.581192501318808
Ge 7.748691978009342 6.121023925026207 5.003711955697827
Ge 9.656891414376295 8.633101955140763 9.125185613520246
Ge 11.422386768542786 3.154657340511086 4.313144988482738
Ge 8.694569942773764 2.1802020966069917 5.224204890940767
Ge 4.416513986986521 6.026773249053377 1.8495199790883983
Ge 7.557266119257361 11.123588170005121 11.707158322316543
Ge 9.418772942224395 4.795080244607779 10.325812962164582
Ge 1.5674542421353688 6.018743040202553 8.04609133617883
Ge 6.028197075505599 2.5077477768440275 11.714612952158113
Ge 10.455074680207145 13.269606836812153 5.7473990462664455
Ge 5.466122689571991 10.259242697237665 3.3511494544115847
Ge 8.71779769164106 11.595495596953237 3.779622292046425
Ge 9.672213292533195 9.251210151435314 5.544399893401951
Ge 10.325565161041075 4.162001884626015 6.961524324895988
Ge 12.243442430681336 7.078616816789358 12.54677130149777
Ge 11.122773365702095 9.895774383328195 2.9146050265520698
Ge 6.866637798496968 6.851170328785323 11.243367469286191
Ge 11.28533955528769 11.19613049557109 9.441102639242471
Ge 13.003688522348632 5.298945385832724 10.237756680204733
Ge 12.277288164878327 7.426567693134709 8.127812074529295
Ge 4.686078218934668 4.6722944202419665 4.544859292251618
Ge 2.853328580295902 7.505247034501282 5.229462802576772
Ge 5.348488833670574 9.208842964976025 12.551620104558674
Ge 4.544569131038124 5.240965371492827 8.242983157003682
Ge 6.997732769328227 7.701617087567512 2.486597475086898
Ge 10.836207953112826 6.278757848437274 3.9538402695008674
Ge 1.1275073992215285 9.663104313391903 6.7872950087223085
Ge 2.944721873925865 8.652471129371563 2.3651556307389536
Ge 12.16262471669774 10.800066526343072 6.526786412661851
Ge 7.275004894448744 3.8396918813352614 3.118169776966352
Ge 2.4194791172437515 3.299444549298061 9.1817137415375
Ge 9.385953699213067 8.46066666259367 12.136896816859641
Ge 9.923980651103525 7.571547369465408 1.3688372528169908
Ge 1.3067904657922012 8.603225348138565 9.668108636693862
Ge 14.165074029947585 8.101467558332878 10.453630609498836
Ge 7.1463792373326696 11.15886722317089 8.638970850235188
Ge 7.894328930298472 4.562612896551873 13.000635913599186
Ge 5.372052651670703 9.087276332338933 6.145451705227091
Ge 4.328229070609802 12.159185271960148 9.38641477840322
Ge 4.289627543021681 9.14095799675872 9.683796271480638
Ge 7.28873700564705 2.9609363543978002 8.919050741105883
Ge 10.17475644338144 2.0343814753841176 9.20939152367089
Ge 3.9958001531557463 4.7472674928335215 11.303314435535253
Ge 3.5243054734918178 11.53609791446493 6.50599211425051
