48
Energy = -193.67880953 eV
Ge 7.786521301473867 8.014421642130625 14.217853584540858
Ge 8.748908217656686 10.298274549852932 14.717696321475923
Ge 6.232950993211393 12.801474333770068 10.108454218147527
Ge 6.9879101851352425 9.84060261084174 12.379723499270185
Ge 10.940575965529998 11.681596590481835 13.998104370273781
Ge 5.237081202302828 9.444034089477137 9.603830494792357
Ge 7.002996953394566 12.333586527758357 13.645473866804007
Ge 10.736381632360299 5.928412175432689 12.122669230834902
Ge 9.579662599879832 6.596721447680308 9.835583778699473
Ge 7.115693400332898 7.644480390028725 9.462679478896264
Ge 6.418515323665175 15.428150779725408 9.347787521300095
Ge 10.382248957617405 7.431261028660743 14.271618864446951
Ge 9.282558308510342 8.396886131254307 11.902745154563606
Ge 5.155399158384758 13.41292749428774 7.9521001196775325
Ge 8.898762168528327 12.79970466665223 15.455122625032693
Ge 8.936146118869038 11.910940450130346 9.618956012509663
Ge 5.403639706433632 10.244330772480444 6.9927212889456225
Ge 9.153918142910856 11.519401651965593 12.126526425857007
Ge 13.466571838340993 7.312388552026939 13.52979099147851
Ge 9.019550573234286 14.074953459901403 13.01605355534764
Ge 12.813181925356918 6.960197240676207 10.857545526268439
Ge 12.215453054820452 9.371984331076483 14.644441238894098
Ge 7.502428772376241 6.261745086574548 7.209707505635344
Ge 5.137711829817066 7.49830621698541 7.582195240033616
Ge 7.575929015718398 10.111767552378323 8.597141077013909
Ge 13.308451088621842 11.60003096628232 12.74828356929698
Ge 11.804625505133854 9.112026236739306 11.992638443082562
Ge 6.725128931667769 8.2810765674429 5.469587310427486
Ge 11.013297432758323 8.496270044135674 8.690956478121382
Ge 14.953016696359121 9.725446497331106 13.719774538651079
Ge 6.591093152337172 14.583858784234423 11.97785134439884
Ge 13.270162468910513 7.361960274173594 8.114887184021558
Ge 11.089545218192557 11.097647314529224 8.633201110939591
Ge 7.7272419499561975 13.623644605893638 7.726522724375677
Ge 8.96534168712085 8.436831766727835 7.027574638891401
Ge 7.883305683753298 10.645183729820442 6.062282044536119
Ge 8.73735178984932 14.518343365765645 10.125586166189128
Ge 15.307879327000773 7.8523830237658565 11.687028099258262
Ge 13.108125191676866 11.083789827509804 10.218534362064483
Ge 14.827617151020464 12.975624069869742 10.866623712270698
Ge 13.227565814480169 9.530850410139328 6.424975062244828
Ge 12.31119697306922 11.960473728906926 6.589905051625837
Ge 13.823467786351575 13.333614239210027 8.45307506574497
Ge 15.942676292344796 10.553597796932143 11.388938848893954
Ge 14.557358362447783 9.235572324048123 9.318969654730992
Ge 14.977136177598352 11.139514185760705 7.317775566201207
Ge 16.486748253770145 12.769270111521251 8.532163487964878
Ge 16.99346542406701 10.126936061379514 9.078839249676692
