48
Energy = -193.70703743 eV
Ge 11.132439635296116 13.133565923584069 5.263320346301385
Ge 11.386356295940914 10.692757908019514 4.292171619804158
Ge 13.762855140798765 12.449865564606585 4.7027564595637195
Ge 8.830890186832368 10.203728335394057 5.653207931535933
Ge 13.810121379504187 9.781806184386305 5.181718162818143
Ge 12.049552003618468 6.827162380130221 7.092012198734511
Ge 9.139772761347546 12.60687281794338 6.956717255324595
Ge 6.581232774250102 12.199221279512987 7.26357270848819
Ge 13.019746989762252 13.70786270763416 7.084751750233893
Ge 9.750245336511622 8.150746148167547 6.882191173284509
Ge 12.12937394028334 11.203952712336678 6.826173978439557
Ge 6.60666619857261 9.603158137861547 6.902625226477662
Ge 14.799544966039205 11.686454387601394 6.9969184136229705
Ge 13.882824933464615 8.650378801643491 7.6081209324620245
Ge 10.01496220923349 10.345858077863117 8.296811094938704
Ge 11.636144106412358 5.986498174298178 9.520512149892403
Ge 8.08979148807358 6.683893670137977 8.192173573049995
Ge 9.566289222820647 13.81401335031069 9.25506272337415
Ge 11.820751145263907 8.585633153110509 9.29560122909262
Ge 6.927951575589849 12.742764233864932 9.795832180211276
Ge 14.306726960040804 6.476320025937175 9.16381653592065
Ge 7.613254796962908 10.341489634659416 9.296751945568444
Ge 12.24533836829841 13.927001268345716 10.007470438706434
Ge 10.638581097373656 11.749490173455454 10.42637250853217
Ge 8.882817444616055 8.053445892218983 10.371253283664702
Ge 9.103029145962239 5.049332849791357 9.9612409419173
Ge 9.120824140238545 11.451220585600694 12.461089739922926
Ge 7.799880909577291 14.986523449584084 10.829210704995916
Ge 14.39930353371307 9.31584928917865 10.088419607090998
Ge 6.1912142122354075 8.091602855390553 9.27874285215739
Ge 13.049704871854392 11.596624221065087 11.256902389443404
Ge 6.918943366320766 6.3182775544226955 11.117241504820507
Ge 6.829607375062177 12.754720171078924 12.390081736835352
Ge 13.214300028649838 7.399843320189209 11.358304644665267
Ge 11.660831703535054 10.627321932517422 13.232063800708527
Ge 11.875707044455766 13.648260516199677 12.727266087361395
Ge 10.40660551826493 15.542744538543337 11.259338749006641
Ge 6.4590147079923295 9.723381261319052 14.106022510935476
Ge 8.91287949502613 9.012604032041926 13.64722191388852
Ge 9.463288970408392 6.332659249604646 12.412432888984059
Ge 9.056933591447724 14.095349728948232 13.190312674083701
Ge 6.9500906283100745 7.084511292792462 13.72118336979185
Ge 10.441989644950585 12.2649943520945 14.795865638066958
Ge 11.35058593405943 7.991128706234054 13.488880528068757
Ge 8.333884151618774 10.709450997940843 15.782885894250303
Ge 7.422230576152424 8.149464730336138 16.216105877953186
Ge 9.155720858409907 6.383053773373793 15.176362335160176
Ge 10.152843981162622 8.760784995044007 16.06855313616409
