47
Energy = -189.83621099 eV
Ge 8.81079454228598 8.370798943268372 3.8322536698435092
Ge 5.365680108835132 10.20708731243624 6.474440688949834
Ge 9.1155283889566 5.639455610049788 4.081416088545881
Ge 6.730735415235629 6.832023621659765 4.431445486031515
Ge 10.480287748668152 7.376535373035143 5.647526005255603
Ge 7.055758997710409 11.760276261170178 5.177147026303085
Ge 3.2215584436216718 8.728417505954075 6.457520123320877
Ge 9.80364809975457 9.114675749602727 7.527035661866534
Ge 14.217176839368173 8.501530071409565 7.649267925960777
Ge 9.506321767978594 5.176911457469518 6.786778583673229
Ge 7.635950492829159 8.870386729492465 6.151813184462226
Ge 4.342860220471811 6.835541241411653 7.8996054403292595
Ge 7.217102375403067 4.512160887167784 5.676960976346999
Ge 12.17260926389186 7.013085275876421 8.228093155568025
Ge 13.120284377778283 7.15248536916095 5.541917996049034
Ge 7.340825987975581 14.17477044866085 6.265205278990885
Ge 8.206681383504721 11.891364195977307 7.587067979444374
Ge 5.362137833319067 12.762450670695369 7.264328715166436
Ge 11.150680625307556 11.41795746899689 7.687215627845649
Ge 14.70408584020873 5.7155526041914095 7.2573839348456985
Ge 12.806816142136945 10.569533200745878 9.580504496319962
Ge 3.1598429197589866 9.07105808126205 9.024116871327792
Ge 6.865466423141294 6.578993857910233 7.291902298561619
Ge 10.077011083249237 7.8711881988041235 9.824386231587612
Ge 8.511115215491118 5.944174146386877 9.248934209984725
Ge 7.464164494606454 14.1949072292306 8.853449186857045
Ge 2.8689976935524615 6.669322417399858 10.00956833903796
Ge 12.21806474689437 4.8107578222531995 6.646512945553957
Ge 10.026080983137675 13.53809383663529 9.0804644211547
Ge 6.423252540978028 11.707152437679381 9.556004899925556
Ge 12.979833302706826 4.656677494509339 9.170107804549385
Ge 5.865173074491386 9.05674554652023 8.747335296888396
Ge 14.418946983905474 6.808463542344206 9.752998147016855
Ge 6.829315741662969 5.704864633167281 11.31481477955389
Ge 12.463113231227654 8.290699416516258 10.890930468796297
Ge 7.327087666402738 8.29374924167143 10.689869793248029
Ge 4.604369285977305 10.162086604001374 10.90563570041435
Ge 4.813553097704154 7.47978396260438 11.496595769779349
Ge 10.02637165764315 10.708352386488507 10.019712630086541
Ge 8.478546690798252 5.951726348939955 13.344484176136893
Ge 8.12182499918125 11.77818571123729 11.45165855815279
Ge 11.867437691479646 11.102303836534002 11.879810429111394
Ge 12.170504395345949 8.974744164576647 13.364055844775304
Ge 7.886021593841785 9.642263056190236 12.793221985545973
Ge 6.492398580546838 7.5883940222372495 13.474100370710916
Ge 9.877972411915886 8.100825344617165 12.724064935595425
Ge 10.25767212263398 13.153150185365906 11.701999384043315
