42
Energy = -169.59032594 eV
Ge 13.832858523186388 11.90955882833439 6.046757052094998
Ge 12.336480064696959 6.2116816835970585 9.597215183956445
Ge 10.95064820751084 4.966560066820396 7.76347762747818
Ge 13.340630288934847 14.453952991825473 6.728444077777758
Ge 12.08793248519647 13.155282153119845 4.545426135860513
Ge 13.37787091372953 9.13683719974089 12.479643069049063
Ge 14.07456305928179 12.386530825163314 8.657433988831809
Ge 10.799651490684132 13.520879380738181 6.706618398691646
Ge 13.19489594144573 11.584580274408735 11.661344643663131
Ge 11.215575656345411 10.95268736769329 5.852834095775063
Ge 13.06168938752156 9.932403140055197 7.575897234548562
Ge 8.57311041806081 4.704730439955465 11.31823045462888
Ge 11.463209910612512 11.610580875587145 8.598181707864518
Ge 11.028075349065983 5.836431138544995 11.746033366461196
Ge 12.40584339606136 11.104941091790028 14.179696731344908
Ge 12.01093749177413 14.11307642567949 9.026189589129762
Ge 10.971590964326124 10.096138357389139 11.59705339690325
Ge 8.332390190476763 13.913359205192702 7.456013397825788
Ge 10.958735524305729 3.7236545772312137 10.061849723841227
Ge 11.178931765233035 8.728124583883783 13.806289290293323
Ge 7.905497738535471 8.691398072683274 7.7601729621240105
Ge 8.531060011310844 10.962982292599946 6.520392823506645
Ge 10.758481089769116 12.567593334441082 12.495815462271239
Ge 8.516084021631894 6.245882168962887 6.995901745292527
Ge 8.797748085163528 11.53934722537414 9.034293992117922
Ge 10.065102680669579 6.427253980237249 13.996673346959891
Ge 9.658501362154048 6.594063110605086 9.569077963791297
Ge 8.369235651940985 4.18762615199502 8.733539082740242
Ge 9.111406854562937 13.946813674088531 9.935085019064958
Ge 9.541235543346135 10.739340453373874 13.971280081883394
Ge 5.328766753296087 9.281069272472934 8.017117866635951
Ge 6.901678105518157 7.0091419549673 10.604907902965003
Ge 6.104832590251736 11.809133830901601 7.972671511160511
Ge 8.82742228310823 9.058876535329679 10.167432432208365
Ge 6.835288349467618 12.715683539539182 5.714974996867703
Ge 6.7241961749404116 12.539496596720351 10.347963674299598
Ge 6.022407860320375 6.535491985208504 8.191681057466509
Ge 7.458588116287412 6.404891939652313 13.18559801702866
Ge 7.961145595546189 9.008624897958985 12.592316470413069
Ge 4.3022555830752545 7.928733587447546 9.98674696998269
Ge 6.114747587641997 9.945889665950224 10.662966283664003
Ge 5.316066696352242 8.166044886080838 12.486130934876426
