46
Energy = -184.86939829 eV
Ge 15.018136488822359 7.595572920752469 11.222586129350468
Ge 14.477966998555413 9.917590513292575 9.892459058957023
Ge 13.902495751944997 13.67560201311444 9.823929090806155
Ge 11.918156345108157 15.291517305163048 8.932767757584289
Ge 14.452230849405707 11.749934946180453 7.8968816346805575
Ge 13.439884863302973 7.21095111204569 13.301999973704204
Ge 14.519352577750656 9.909438011568021 12.572022901034947
Ge 12.916250858439163 5.907068031268126 10.82729541513614
Ge 12.803172011738459 8.024484113538888 9.17437658749797
Ge 13.243272392887786 11.39491070733392 5.50136892718732
Ge 12.634680091995225 16.126479166477147 11.3297970150882
Ge 13.303197131292116 13.80389274136555 12.474731261078267
Ge 12.1349351117903 9.869397558411958 13.675352672625895
Ge 11.842805866921188 11.290658782116395 7.751051327438221
Ge 9.057292683818655 5.9284851334618 13.88129420812092
Ge 9.88833974885326 13.663330087560174 9.374145326627513
Ge 12.731342527830789 13.814700122443313 6.8485644724627415
Ge 12.140168784991605 9.851876895904216 11.076192283671574
Ge 10.663764617284265 10.943033361368144 5.31592915418517
Ge 10.218905407140754 6.117624556936266 9.467079986994525
Ge 10.906496200842456 6.673680491717255 12.329057415637505
Ge 11.772702842272835 12.354298694373503 10.635183515644343
Ge 11.269463922697986 7.589035372021559 14.841302662549962
Ge 10.248283795750591 13.096651913774656 6.780331057994922
Ge 9.052191498541266 11.29918881089425 10.145498990193754
Ge 11.184771480435868 12.398756453108522 13.230001773262684
Ge 10.592137207708298 14.78715277762057 11.916041806543205
Ge 10.411103153006843 9.083304184816571 8.7229836434638
Ge 9.31326590772617 8.921230632159896 13.389168470368304
Ge 8.162124865516734 5.631681060373144 11.098796528438013
Ge 9.171815630012127 8.172631340884063 10.927364997947357
Ge 7.924459673110854 13.872301030506433 11.1228167538168
Ge 8.489963422512544 11.532897185034841 12.61750627444911
Ge 8.919032322984396 9.431417848143722 6.606515082670964
Ge 9.210674672123387 6.800869408986379 7.094720285602775
Ge 7.120523076475428 7.407544916347963 12.659850448415172
Ge 8.99649671462617 13.857664176506756 13.758473351217024
Ge 7.030173579965232 9.171066081359166 9.370166282819499
Ge 6.934958063164766 7.664871019987014 6.11954724176578
Ge 4.919870070047281 8.281053382366785 10.836988236997973
Ge 6.656929319217498 12.006534953225842 9.29276591937971
Ge 6.988502179761554 6.465761401504972 8.577437330696439
Ge 5.898097423492592 10.576270355429452 11.525078106903738
Ge 6.386489372372164 10.426808433873898 7.039928496830424
Ge 4.853474032778687 8.174293370393201 7.909085110679786
Ge 4.418845739959056 10.523456723737478 9.255731734614569
