46
Energy = -166.54448034 eV
Ge 10.902641458359565 7.465235565491026 2.9098486491631115
Ge 13.498350666740263 11.113285739147864 5.005866587204705
Ge 9.500002567743689 12.30268827626333 2.8021058043338756
Ge 6.252785400073971 9.070567432323793 4.599672234514977
Ge 12.465763951652038 6.291993330236853 5.171747178832184
Ge 9.489599391691085 6.869781133763437 5.559678984904876
Ge 9.60174355187315 14.075757210440587 5.402517064528896
Ge 10.668885140168298 10.048147247945064 4.5039016620463945
Ge 11.59355863753918 12.37371131250708 7.061917801399308
Ge 7.784715819242168 4.325476207322521 6.077486594353864
Ge 6.783843715109124 11.986217992512394 4.043620709329002
Ge 5.395141815106456 6.16856734514095 6.8469071426752315
Ge 11.063918099479984 3.073275221131864 7.275142369050228
Ge 13.562303511443165 8.783761370358866 7.019411180878464
Ge 7.774621489591517 12.172708514356158 7.034880745927954
Ge 7.0756080964650145 8.721639544675838 7.539651474434551
Ge 6.8319899413389225 15.305743814128302 9.492090395380911
Ge 4.395947548205685 9.988163070581674 6.882651411881656
Ge 11.742059177766619 5.791770244331372 8.606242616726114
Ge 11.3849246656315 15.368263826876833 7.659875969098743
Ge 8.221469210969813 4.7873950100189875 9.096143146705359
Ge 13.750331385299296 3.516722857486727 8.676561061166426
Ge 4.904420797898241 13.067233734436734 7.607334414340827
Ge 5.169796101438983 4.778483878896003 9.562408789472851
Ge 5.640025375540841 11.456790226198075 10.142657088070827
Ge 9.468053829117924 13.887145581491657 9.445676287535887
Ge 6.880679471639327 14.771820033959214 12.491136547835891
Ge 15.399670392775107 9.491159510917154 9.64165798627579
Ge 3.5469720639791658 9.207894456905944 10.518361245775239
Ge 13.244204479925289 7.929530100078629 11.17426871968422
Ge 11.424916594633586 9.52106651727127 9.181288375637841
Ge 9.672512493288023 2.217007193873444 9.881403931356887
Ge 9.427711673069597 6.848678073877776 12.169231276019147
Ge 11.914997085999836 3.91982609725171 11.087435882020598
Ge 4.635990062784209 12.748201530307943 12.68425983958981
Ge 13.363757071111856 11.704480345260606 10.184485019166168
Ge 6.484030842921155 10.385356456136796 13.228591285527846
Ge 5.947658307338917 7.419603293534582 10.89728675138877
Ge 9.525020551155386 13.377652148566108 13.227319334326136
Ge 12.999804789090835 10.437497425472475 12.975400123724395
Ge 4.3418612368295735 8.204884354530552 13.392167158131056
Ge 10.534257295781249 5.314782406928946 14.527320723022857
Ge 8.134039262150337 4.242019114061178 13.071977033787592
Ge 9.961288625864835 10.420123707508107 12.56565297975608
Ge 7.866933359687367 6.752840216594983 14.76261955754269
Ge 8.684077430846989 11.207935765256513 15.225023301831204
