44
Energy = -176.78890708 eV
Ge 5.173600527560628 9.378482013455299 9.582623114845562
Ge 5.7779380999579475 11.881826370343129 10.583732849561018
Ge 5.2639665629946855 7.05937395772321 11.554225895456533
Ge 5.622841423033043 6.765771737908334 8.831484890684166
Ge 6.970925578030897 11.661499404365625 7.974978121773651
Ge 4.960124958234215 9.780529790023344 12.28004173197709
Ge 6.82235421243625 9.029473230393615 7.406000804547753
Ge 9.461390192048537 11.458248691567068 6.356836110543874
Ge 8.980447891157144 8.907566582966943 5.629498428604149
Ge 6.89266757939488 4.703757306084068 10.389227324816023
Ge 7.409202145355268 5.8187644373146705 12.819144984817816
Ge 7.303135789232215 11.602610396810409 12.675180897352087
Ge 7.787739836813607 7.505171825008131 10.599795638529612
Ge 8.278500323400015 13.515486868365844 10.132399287381757
Ge 10.73345001129545 6.943854361239019 6.228564922506813
Ge 7.93254689960834 10.276513946654935 10.194869264362984
Ge 8.439396831640959 13.746168559248822 7.343055881578283
Ge 6.886147549843147 8.418063922456364 13.475731735185429
Ge 8.11428327325169 5.765771169167809 8.239270565137122
Ge 9.277423999016406 8.118541217080564 8.170619259194343
Ge 9.858721855208588 11.71354527558728 8.889116804868115
Ge 11.876426015877628 9.546737865503019 5.681472560702748
Ge 9.050418589747041 9.650338992509475 12.716064700853867
Ge 9.485780750729901 5.17216656179294 10.721388988680717
Ge 11.240237679466755 6.125403703985322 8.708471282218165
Ge 12.05371496680715 12.181724556940539 6.785382733032048
Ge 10.831875354699248 8.646802818726089 10.274460476329697
Ge 12.285247203541552 9.762375775699375 8.312668111327756
Ge 9.833391870180256 12.726751988669443 12.478816199721674
Ge 9.943749047078203 7.1458249196021155 12.448197173816704
Ge 10.777015642098913 14.211507813987259 8.703941235445857
Ge 11.773650218663494 11.336957871074368 11.056520686999752
Ge 14.489386992281762 10.197004810496681 6.4288108191679525
Ge 13.46556645847322 7.644650841503411 6.900958676986245
Ge 11.277776220162435 10.674103312843759 13.72712451231417
Ge 10.10797273078619 15.144760014199244 11.20118709701687
Ge 12.830833847479285 9.170375403308373 12.148805299588329
Ge 13.26586948606878 7.420068354648859 9.901195206444948
Ge 14.535856403198265 10.974334937605946 11.358425650016871
Ge 13.915793673743014 11.765991690288256 8.764202610353573
Ge 11.604783503419602 14.616191652835376 13.260518051931895
Ge 14.952387352993764 9.266324355916735 8.865851438452141
Ge 12.6065106998301 13.907249203578113 10.816875517033765
Ge 13.277638096053805 12.50721247547535 13.134368518492181
