48
Energy = -193.80643807 eV
Ge 11.053458174840776 12.981106651566234 5.087690359584293
Ge 8.79257543306065 9.370184000917956 4.375009853119998
Ge 11.324845228348977 10.372768343866381 4.452554117324124
Ge 12.964422745952229 10.534841126099456 6.514400492209423
Ge 13.15716309592058 13.154134964347366 6.854183667777089
Ge 8.579343800049775 13.473736797921951 5.996283068314241
Ge 7.215726823646743 11.20884629707027 5.790349362225631
Ge 10.993206644056853 7.59831512671925 4.96491486600721
Ge 6.945335645522373 8.809520071527876 6.830267445407827
Ge 8.654855180076938 6.999725815855058 5.924341286136497
Ge 12.639977393055204 7.1381251191361885 7.011089737412157
Ge 14.755155723580337 8.835906872981033 7.332123323564751
Ge 8.8305715971124 11.899640328402075 9.950302066568284
Ge 10.317187297752776 8.431554326732064 7.5758769963621075
Ge 10.750796470548924 12.891108623949957 7.895219395460077
Ge 9.756673281247448 10.89204815195157 6.544831015125974
Ge 6.815420637733096 12.264897320891617 8.306167173042537
Ge 11.48650617466557 6.677281406939939 9.360962407433359
Ge 6.8033740633157835 6.7031507225574956 9.949131520640089
Ge 8.974990322299686 6.200656792137087 8.435450667252763
Ge 14.275283673929136 7.126739696836765 9.277582277090278
Ge 7.663571109715199 9.172679488109377 9.286003911726203
Ge 8.55067347628824 14.366359174701559 8.503368646406138
Ge 11.97625805790145 10.440268935276805 8.903320830629308
Ge 5.094171341621775 8.09734579511722 8.462884224997783
Ge 9.514804841714014 14.271259212572952 11.173613233103643
Ge 10.20669096885826 9.701815361274921 10.894864653136887
Ge 13.496144047930365 12.662788933717616 9.476242937091424
Ge 14.502782328591815 10.065544013651834 9.721096035114053
Ge 12.780693538369658 8.528121194728149 10.971790733173677
Ge 10.88391668290862 4.884905845841569 11.410673135445757
Ge 6.107637937275575 8.780274955344145 11.438663668286527
Ge 6.878634959605865 13.294503114567014 11.325550589618722
Ge 8.161335774736347 4.92737349069739 11.732011485615036
Ge 11.45616221096688 12.45247977831298 11.057466693092389
Ge 7.77524958803435 10.962476423411326 12.333709665925614
Ge 5.245768463362027 10.444507350759016 9.650694146220776
Ge 9.475212185993188 7.21137495606405 12.172210158493499
Ge 12.052181124858048 10.589124522437041 12.736411348338867
Ge 8.71498112136106 13.297810003013083 13.602141342473697
Ge 11.940873349062771 6.77313684023025 13.113118469115015
Ge 9.823074515733207 10.956561223738921 13.98376544169313
Ge 10.044981327729575 4.9871110383629835 14.018479534345948
Ge 7.73334176705208 6.1458051555355295 14.071055182283303
Ge 7.330348293260731 8.744453742108737 13.872712145725028
Ge 6.195617259811494 12.560669506126885 13.805238826991175
Ge 10.051604047999303 7.5374986541109354 14.83776143368332
Ge 7.5772944882809385 10.900336947519154 15.33729464495425
