43
Energy = -173.02416636 eV
Ge 12.99232254338388 13.78835735423629 11.686882822983849
Ge 10.862409073585331 12.632109760112204 13.245107570675854
Ge 13.264851021992433 11.09223248546057 12.423023968886756
Ge 14.27598893162702 12.028766986645449 10.003708915089602
Ge 14.507844932880372 9.39375459335141 10.702668027124208
Ge 13.306543289929703 7.851328938669185 12.51810588512449
Ge 10.43762108133738 14.962684402278246 12.085633904835007
Ge 11.723187915790064 14.858063955152941 9.54402376874303
Ge 11.418360345524787 9.512937858194803 13.611897611156289
Ge 14.250502833950176 11.05230897146178 7.5529500098868665
Ge 12.416220466589094 12.813356722216504 7.917477362936591
Ge 10.603897571724664 12.522359520101784 10.443894141242856
Ge 8.93165947774499 10.545500737119427 13.45175423910354
Ge 11.537094453978963 10.284936743316118 8.124145678434985
Ge 12.14325728225702 6.769852959192428 10.464858053675266
Ge 11.649753837647731 9.41668007938932 10.885945422812568
Ge 10.13808621540723 7.173891674448978 13.036245743610104
Ge 13.65061893366831 8.665671221866067 8.370717855439361
Ge 8.340970634943012 13.226812627710174 12.163534776933824
Ge 9.005229742464126 14.981040784787824 9.94080028809179
Ge 10.60155490943485 11.896294864453964 6.040788588115133
Ge 11.468552911800355 9.40637009850444 5.50898432553991
Ge 8.658452284878992 9.349785398943604 8.647751046965917
Ge 7.55772944391252 8.124289448553986 12.804788602351024
Ge 10.35182802622905 7.806013252216523 7.3078075465170675
Ge 8.009620798892522 10.42933703325759 10.992732293263531
Ge 12.464948595855871 6.432362032447493 7.967547166848017
Ge 10.429136515393509 5.021729548295862 11.484974807698013
Ge 8.332711395088362 11.55404894767067 7.266739109815197
Ge 7.667585812293199 12.822414319942204 9.383702838620183
Ge 9.105112809776392 7.328937419927977 10.580194278870998
Ge 7.904113097522853 5.390808408977785 12.559370756588399
Ge 8.907870680376503 9.551038155168838 5.53619793303716
Ge 5.699780066568823 11.568585943074293 10.46848873661507
Ge 8.247058234938317 4.88806457145097 9.902406954450813
Ge 6.3541445705844 8.273589953505793 8.195010959144545
Ge 5.5320274709665505 9.053648523882831 11.322210944880752
Ge 8.036735382800236 6.857975464774594 6.5862785507591
Ge 5.93130401862901 10.612486812661531 6.86683714419682
Ge 6.263426950697584 6.542249058953675 10.693017555563834
Ge 6.562545548716287 8.581105198728675 5.261801609848205
Ge 4.39852713803752 9.900353032711234 8.862929787423296
Ge 6.2561565321631845 5.645606865653013 8.100467192041314
