40
Energy = -160.47721194 eV
Ge 13.643079599991548 8.740681955404005 6.260742391436117
Ge 14.88982475732928 7.712091455947047 8.675427304570913
Ge 11.089188956627476 8.831202824641244 5.297783514389314
Ge 10.212972368164515 11.17438929402154 4.490690244640198
Ge 12.313696259217455 11.087268510095301 6.281009073938777
Ge 13.129099660793983 9.711860620659847 8.792110339198508
Ge 12.138967675290539 7.190033781664507 7.865895888399622
Ge 9.578804501502148 7.4791344114922635 7.146425480322085
Ge 14.228142404254319 8.163546471695552 11.104015347762642
Ge 8.554590781301203 9.726632166097728 5.887013324929582
Ge 10.734086471611736 11.489726574605639 8.31457907595873
Ge 13.093753905147604 6.022662558765966 9.953276176793812
Ge 10.587852483724532 8.913345244450007 9.198523522438087
Ge 9.39393856730358 5.952926822695167 12.262274375464738
Ge 12.85776331096663 12.473588211102115 9.967161878315881
Ge 7.367202703267167 5.737843757006764 10.393871450722267
Ge 7.50723231441242 7.801233279821662 8.803823725322468
Ge 8.755975038750865 12.988783043594783 5.803279546563606
Ge 13.417417624541612 10.55178735491282 11.718594194319397
Ge 11.395478652351983 7.589253388873377 11.306105951227558
Ge 8.323618905820451 8.20963379625712 11.324173341458547
Ge 5.2426592090674005 7.592281646963047 10.913633947990116
Ge 9.258113471094655 13.71382486203062 8.26396077034744
Ge 5.307518571784749 9.07792584940186 8.6248242736883
Ge 10.750164856702641 11.039321913209344 11.056616388685415
Ge 13.11229644888153 13.250982291108077 12.646002052526011
Ge 7.853837987333312 11.204612505147386 8.016467992089886
Ge 6.587629582739203 13.321471134832425 6.958975556695503
Ge 6.58888905913649 6.348393135956122 12.876004222748914
Ge 10.802074097941183 13.74607310360318 11.52925475413232
Ge 8.616784142368436 8.030191049729792 13.940829145328447
Ge 11.185285142839318 9.55852479509774 13.284875560140682
Ge 7.112550984495104 13.276284659825505 9.812479095582274
Ge 13.205652870596028 11.01804095993564 14.255319216973877
Ge 6.670638143348014 10.263069749802098 10.620975581327453
Ge 8.723718803611959 10.808820814589799 14.010344681908933
Ge 10.907137333337504 12.348238763146934 13.91641414905475
Ge 5.164497721502534 11.782842283176315 8.66906005582659
Ge 8.574624609529229 12.13971721917399 11.701250262218513
Ge 6.217278260758944 9.046362852473287 13.067664644616151
