44
Energy = -176.88377041 eV
Ge 11.032598752443286 10.75476378735496 4.7773429968440775
Ge 8.490607183482355 10.184648267648326 4.231814981170865
Ge 12.583178933059596 10.225849665521746 7.040800791262949
Ge 11.135844258123523 8.211953748121859 5.736669034222587
Ge 8.599657535878809 11.937011909048689 6.088868256511041
Ge 12.768546857727303 12.436208240480301 9.268866160351811
Ge 10.992713309283966 12.420297518632216 7.080440938227826
Ge 14.588114262307181 12.3165334602815 11.611733749771103
Ge 13.190198676836415 9.700965743363758 10.145782324448358
Ge 14.145061484065145 10.700891063542057 13.801835108244191
Ge 12.571862346979811 7.7846288079882635 8.243441634464357
Ge 8.246395318141703 7.387820166426316 4.975697599235645
Ge 9.638114968553166 9.755718086767102 7.166539786255954
Ge 12.572312718358388 14.209894846888197 11.621084185304408
Ge 7.5195821891806975 12.485308375957125 8.482354749860498
Ge 11.896124052587679 7.162628426467332 10.860004038520325
Ge 13.705777025197506 13.314665576719024 13.958678800453976
Ge 10.82659296522633 5.934717659533784 7.428593120569362
Ge 10.779316258657856 10.541222946075031 9.573249929290535
Ge 6.0709380259287204 8.976688818985036 4.853569119727311
Ge 10.153952058617648 13.092906617480816 9.682855302158666
Ge 11.00913332148748 13.8358534423722 13.83067096525043
Ge 6.234120440333381 8.111861123278494 10.443558077703933
Ge 5.66041391406488 6.403859714577968 8.510129437681753
Ge 7.484698679159209 7.499731028171262 12.695408968521708
Ge 8.047718785074657 5.672479508503 10.691479428272366
Ge 4.4994314825936295 8.39117490939885 7.054014745898467
Ge 8.015133348206998 10.218246267417873 13.058573845204883
Ge 4.989176887055605 10.342288132291058 10.442803780772268
Ge 10.401362030398284 10.0073959239054 13.943419315061734
Ge 9.694871257878836 8.563565900557892 11.57714042534282
Ge 11.55175945884607 7.686031293560878 13.402324476103072
Ge 9.547669659717654 7.311865905836796 9.190596170207352
Ge 7.9292225909594745 5.6355199857020075 7.05778799458331
Ge 7.21411547328193 8.281175554740324 7.371189697612076
Ge 9.498137304575243 12.365727851229034 12.136689402441785
Ge 5.525160769907195 10.786708351893429 7.975493598362711
Ge 9.611519269239494 5.962721016786552 12.923581067158194
Ge 12.019224407905819 11.669639124922657 15.21987745440033
Ge 10.56463668558422 5.0120530979554925 10.282759318051044
Ge 7.661995140298797 10.146567115785407 9.681883466437448
Ge 5.758864670728966 6.458434239024472 5.587263704257869
Ge 6.855218259982846 11.970533264519291 11.389717294857904
Ge 12.11225995787815 11.524576490083886 12.29674773471801
