42
Energy = -169.75340865 eV
Ge 11.752545944634377 12.107943161933273 6.29238547261025
Ge 12.88860971437752 14.25604016682512 7.0960628211212
Ge 13.755700865723894 11.357172128349632 7.660769163818228
Ge 15.228858573711715 14.171935345810518 8.136656840334483
Ge 11.652443918212231 15.381000707590516 9.00683991414681
Ge 11.270083273779575 12.666576943306469 8.7848542732369
Ge 16.23081986218909 11.91056736718298 8.17356270120981
Ge 9.348880007976884 14.352657947759916 9.24832681416359
Ge 13.302756025172071 17.199746594007127 10.11865749868009
Ge 13.479915395227072 14.48539985379861 10.662024616814795
Ge 15.613617608116336 16.074493654944085 9.793524576422655
Ge 12.838829010445819 11.195596486059584 10.082586628352187
Ge 15.167620108130793 12.469444424178743 10.5183924172868
Ge 9.615192317582661 14.22461120000416 11.774672350979753
Ge 11.892836435485078 13.873057929352848 12.858944467108575
Ge 10.372828893067128 7.755660723848043 10.985764343709555
Ge 9.052980121154286 8.517301697684209 13.110858797027857
Ge 16.65872516682684 14.90592839047389 11.876012947584515
Ge 11.174627451742518 10.11866173349276 11.694421783022351
Ge 11.184717583115132 6.119942122497022 12.921714565807209
Ge 8.538912628292433 11.355286623379927 14.937562400146497
Ge 13.196773570643728 16.485478774178272 12.599242013914584
Ge 9.202695176859736 11.751291694332044 12.345662434914418
Ge 17.47497079452816 12.499477261603165 11.8364030148027
Ge 12.982209281933471 7.986408214736615 12.127320933446923
Ge 9.817254392637059 6.980405959476357 15.02381628181669
Ge 15.120161780446713 15.400262011900733 13.771561363239815
Ge 12.568238563339829 9.949280188447887 13.81543333040877
Ge 7.191560000045641 10.370589789689644 12.96608035555624
Ge 13.57400084737391 12.254647882158194 13.964137065967147
Ge 12.638188557521795 7.375967500475616 14.705758446603333
Ge 11.26665402956809 16.12475846192146 14.12876129436939
Ge 8.765453483451362 15.452634073706772 13.882615183004518
Ge 10.455163919275591 9.63044070965402 15.156510394834944
Ge 16.005620854142446 12.804430911024479 13.905592729265983
Ge 9.98299367611096 13.425145149747596 14.979890737179437
Ge 11.233269698366446 7.962627450123857 16.923361482012645
Ge 14.94286311025788 15.288224322483343 16.255609962838047
Ge 12.439870877882962 15.268982250668433 16.209171942563586
Ge 16.05624987200221 12.948454997314352 16.557645645217683
Ge 13.503084089625473 12.767772305683932 16.396283379736474
Ge 11.180051877814886 13.392524246985015 17.3333759735138
