40
Energy = -160.23530572 eV
Ge 14.498531150323446 10.070924911771423 11.50864603884367
Ge 13.468642518224438 7.830598144877457 12.833654548779474
Ge 13.138261978730485 8.744898633169829 9.675261967500338
Ge 12.135091372996246 6.540087694319733 10.542010141603203
Ge 12.51105105608981 10.39821973976644 13.161624252999838
Ge 13.324520756572017 9.289432636214519 7.129500672671152
Ge 11.869086433708894 6.143879914698836 14.208475188996488
Ge 12.094627156133084 6.939481130342785 7.812152308100443
Ge 13.153811664200855 12.100903776035713 10.1735784490827
Ge 12.194669411356232 8.579450072974769 15.103719934524452
Ge 12.599708693135295 12.008994280960952 7.349397254570734
Ge 11.464497830313285 7.962588796835241 5.415511162563949
Ge 10.776452028824455 8.686860980096961 12.081648153213106
Ge 12.368320928795745 13.797743775270147 12.272261896716547
Ge 9.99332667201851 6.049458590645134 12.202354272176493
Ge 11.221632922273475 10.364449809632733 8.948240625778249
Ge 9.204164046299418 6.704666919075754 9.565267914328862
Ge 11.915244602994635 14.384152055263378 9.54157270462002
Ge 10.104963073586307 10.278003311793704 14.367725705057293
Ge 9.586877147830334 7.711086904277821 14.402175319975763
Ge 11.311747885923365 16.080739012034503 11.331792302486592
Ge 9.695427724913367 14.401760220138852 12.523405845041204
Ge 7.465180327727538 6.89993610143179 12.101273843222149
Ge 8.604209225735973 9.110915520384763 10.548044580236022
Ge 10.552761407432637 12.237906807087095 10.991090349491378
Ge 9.906596283490057 8.530189822096132 7.486871488288552
Ge 11.027872560848259 10.623058987974177 5.548113627350254
Ge 7.372235362380266 9.450615531176668 12.814880798245671
Ge 9.192781025904925 14.257970481518473 9.829698385532234
Ge 8.443928020217655 11.832290776860468 12.420403280890001
Ge 6.544103377349116 7.544683220701473 9.568004650094794
Ge 8.417118421346926 11.064623632951665 8.759190118693372
Ge 10.006020556792704 12.84721602131347 7.5920910196786915
Ge 8.859273973235902 9.076717112204223 4.90689795305093
Ge 5.861092805852533 9.780978320007568 10.663962736532332
Ge 6.990362499230836 12.606427451241238 10.255837592786161
Ge 7.258974680144079 9.133528583452364 7.442569821686723
Ge 8.55626314982354 11.673329729522461 5.749302091226874
Ge 5.625679465474723 11.282799926047028 8.546258403086425
Ge 6.538169106954608 10.248998275025448 5.223904667655561
