42
Energy = -169.73550227 eV
Ge 6.919220891515197 12.965824661191341 9.054764147778714
Ge 5.090324236912152 11.037970914475025 8.779374352155052
Ge 5.046592812253233 12.7091603048164 10.93916076852831
Ge 6.711002384297996 9.212462471396151 7.498403687007532
Ge 7.667720919784137 13.460826823599845 11.583132795195842
Ge 8.103151535085487 13.644588397615648 6.804988256429307
Ge 4.81345298724453 10.011236623203253 11.219030475596753
Ge 6.164518643165173 6.533046632110655 9.817694311739
Ge 8.224510766295321 7.120045954125197 7.731304999772517
Ge 7.306358697816026 10.812336975088266 10.492601766389484
Ge 6.44196064139347 11.53865150675933 12.928992334658874
Ge 8.241857818158373 8.661220544739201 5.2726715195149705
Ge 9.948987669855086 14.510126338437223 8.687300251064311
Ge 8.312973181502596 11.012734339843178 6.4688005279425065
Ge 8.264214796060168 4.870392190394778 9.44275608152689
Ge 11.439252739445449 10.94106403779021 14.039846829277456
Ge 6.507846952836586 7.716115371537625 12.213195588255626
Ge 7.107938421791957 5.0522646164369664 11.81909222761857
Ge 8.686143202356446 7.311693590214207 10.779339664043487
Ge 9.937135096611971 12.07898648101746 12.210941141747433
Ge 9.36103467861711 9.60117427828094 8.474691497954247
Ge 8.970945505133296 9.801637838932937 13.63130585542171
Ge 10.219674968078865 9.725548445896173 11.217068455452576
Ge 10.548742313107672 7.805913525621569 6.7370768987509075
Ge 10.859141137957232 13.139969544882815 6.512505842409056
Ge 11.452975475022658 13.946552444676557 10.855000166746485
Ge 10.908352793749186 11.97737649540851 9.073179944745425
Ge 10.715256141064922 10.292333584151303 5.953539958657392
Ge 9.886481235820485 5.101444991304143 11.655959784891607
Ge 12.588543424287211 14.263729992787754 8.174066259252585
Ge 12.325460537286826 8.561595024434787 9.13242190500108
Ge 12.651771152512408 10.39390293715909 11.792285692105711
Ge 8.713012465392536 6.708619834514068 13.448989158954474
Ge 11.181065835672037 8.322736700305915 13.269082634846947
Ge 13.44229775488754 7.673084007384789 6.740072228625965
Ge 13.029724658924373 11.602222037624358 7.515451908956912
Ge 11.995922679164469 5.922457452901044 8.2319399216885
Ge 14.835486520803435 9.268782971504343 8.470420865314981
Ge 13.404018403290685 12.356810182157188 10.089689702292542
Ge 12.508336678764666 6.528765247380246 10.862297289421942
Ge 14.341662891044663 8.437074688916958 10.976857867624311
Ge 14.492728949677156 6.579946170229862 8.925134439793311
