46
Energy = -185.60129678 eV
Ge 5.059062737211916 9.268734870057543 11.686674649301864
Ge 7.781865759021785 8.20150587688137 13.932542638424852
Ge 7.141612717457523 10.458709576935915 12.76346705708772
Ge 5.372131194200268 10.911012012042839 9.748743196902256
Ge 5.744759075830506 6.898649623621673 8.512280211223695
Ge 6.4612415910663765 6.9844855464392674 11.139990643374855
Ge 8.644855868499448 6.08078865540697 12.594813490064055
Ge 6.755656969464076 13.37770000964691 10.298922325315027
Ge 4.8586012024086545 11.236368700092495 7.262513715996125
Ge 9.808089710182099 9.781113717490829 14.554667001888468
Ge 10.175745524729548 7.084207363103545 14.620011747817237
Ge 8.961676717856296 12.156560377064372 14.06017948691378
Ge 7.39174141435551 9.03446775380372 9.977690443097194
Ge 6.945860504576225 12.65035662872757 7.832166817103923
Ge 8.346313881107202 11.408558384545056 10.55863774945731
Ge 10.013684343251684 8.449564677695868 12.070504905329752
Ge 8.025937545657877 5.4173894272202 9.103228068271346
Ge 10.398693988605304 5.491748990992535 10.240385381487913
Ge 7.915681892677165 6.7137451567220365 6.755165882612776
Ge 12.108676696052349 6.765704289597737 12.707148385013808
Ge 11.515804354631475 13.194133790423349 13.917547348111624
Ge 9.503063191609424 14.297930416709873 10.342047768054734
Ge 6.402675695776997 9.219599608924218 7.503569244579304
Ge 9.61951856847272 7.70079690118914 8.899050509594314
Ge 9.291903597346192 11.12299236642828 8.119877993690547
Ge 12.207575932319116 9.026267634740954 13.98444659987882
Ge 10.093757679606622 5.158963833707007 7.191830085842326
Ge 8.899869700574643 13.277175700400237 6.447908045479663
Ge 10.541671319518866 11.435923138968258 12.042510282049392
Ge 12.966442184067201 11.31120977835272 12.954446962063903
Ge 13.588083575658702 8.07425605681328 10.960419577281147
Ge 12.24246050282348 9.735673337715518 9.46212674218449
Ge 8.776125581013691 9.53167414720905 6.28516049666161
Ge 11.828107710641559 14.07397132441567 11.493397131028177
Ge 11.166131603164352 12.473047169336668 9.197150952317832
Ge 12.06391607768731 6.5134620690322755 8.513808297668678
Ge 14.58284524905534 10.433405966259391 11.097694152578649
Ge 10.745764433878652 7.668151267837888 6.406985537989967
Ge 9.486533784820665 11.51166280748534 4.621403321947784
Ge 12.799648919801314 9.455480134662388 6.811982601514363
Ge 13.690815236213979 12.73307822801526 9.78371839471149
Ge 10.41617755282112 14.767601450794697 7.934330273678577
Ge 14.40660029387505 7.730263407512071 8.550865729103046
Ge 14.69712869823434 10.371616180279078 8.358332455834146
Ge 12.69309819390323 13.60853133656028 7.339791983363904
Ge 11.403908225219679 11.590503307291234 6.313881682563798
