45
Energy = -163.69479656 eV
Ge 5.000237339240538 2.838101954227492 9.628512018083297
Ge 13.894002207203215 4.821907633029162 7.555996331426984
Ge 7.363116309967695 3.772531869798125 11.337112457105228
Ge 6.011784505418625 12.508400427439831 8.141906044836993
Ge 2.0287980452450736 8.878355269131351 4.976250866002296
Ge 9.436144489755955 2.578963353437473 8.268478424561941
Ge 11.820645622759725 3.8657330480224443 11.77253329998377
Ge 6.589443430742178 8.324702192594833 12.126316206027546
Ge 11.317739168051265 8.353176721156498 11.315709777956254
Ge 3.765374771247179 12.335221948538228 10.212411526016702
Ge 8.35908213268434 14.08046943292338 9.286481507069597
Ge 9.940346768311088 6.038045339468282 5.380275228102593
Ge 1.79110010186868 8.998131600552906 10.669944662151174
Ge 14.164531622011259 7.849243267138299 7.924984791207193
Ge 8.589083358331466 6.763402255163604 10.37715948763359
Ge 9.685820858174804 13.08317052352653 6.725721188256609
Ge 2.112378919291708 10.81025087114765 8.177717841002535
Ge 7.015857240383266 4.438172254155047 8.007296993606392
Ge 9.97234669072588 6.015579414380553 2.3379543907236577
Ge 11.884394338554578 11.00844495899588 9.689630806669417
Ge 8.855300470866743 11.053066528160661 9.942543553915913
Ge 9.03568271082007 3.1478254647081694 5.274099675531497
Ge 10.431148517890975 9.022508052299306 1.9938100923298963
Ge 5.500544169768705 5.524633912839711 13.043990436531312
Ge 11.082126487970969 10.214970981830778 4.714811645260276
Ge 7.642804677501593 12.688092571863942 4.4670850761822
Ge 6.319799569434886 4.527230796593578 4.459514260665925
Ge 3.323889289421441 4.710299334751137 5.211153638642513
Ge 4.625510745846093 9.462284962672893 9.620672186243805
Ge 4.308549652252707 5.755228835149814 10.201250850479878
Ge 9.149831210705903 9.961690896637405 12.83353678783138
Ge 8.384578301931818 10.301113815696345 6.303214380888557
Ge 3.305661299663927 7.088098310936351 7.133157904214568
Ge 9.703815719715015 5.562669114584727 13.167741503340615
Ge 11.169591597034687 5.017382654750373 8.950055540607206
Ge 7.614660720152382 7.865889696849041 1.8567708857320766
Ge 13.576505600190428 8.280938590460726 4.958973341902475
Ge 1.3870077162723042 6.259902033823214 9.411510014120614
Ge 4.867444660814325 13.477835945398198 5.49528440848334
Ge 4.602005745598459 10.420289845001697 5.569937706786997
Ge 12.595079315435939 6.254561884002009 13.39830909170273
Ge 11.211847902932556 8.638331492520985 7.981476800425738
Ge 6.517463586768079 7.612338737613948 4.6834534590787165
Ge 3.7809142305149326 7.024929235307802 3.260105584008369
Ge 12.83155517604666 5.331428966238847 4.720694322189935
