43
Energy = -173.36109926 eV
Ge 11.397665554803917 5.821192619651897 5.405091700975221
Ge 11.162133497219095 11.296615213185682 9.259935369695052
Ge 5.593520552568005 9.724968285032046 6.426930067088059
Ge 5.975204340513898 8.089151249355476 2.5266257304095263
Ge 12.245897712732537 7.511771630104498 10.840301139443932
Ge 3.5151768897572135 7.174162140422751 8.08471386213628
Ge 7.770032320062209 4.61389069029621 4.578103283734549
Ge 4.020381482444007 7.159434578009813 10.72114491970909
Ge 11.636227428738101 7.198945635050102 8.006828630291508
Ge 10.825146550535294 5.108021075627939 9.32576209861022
Ge 7.013214715125173 4.454571082907704 10.15854788565133
Ge 13.089296712888034 9.34468172280494 8.995351562326427
Ge 10.129090613122738 5.329536022817554 3.1226781533797703
Ge 10.988330769092972 9.632630838770304 7.030102040467252
Ge 4.411458839820822 8.104281243584385 4.61659345783648
Ge 4.423092143633928 9.651356949127027 8.838259424659947
Ge 3.3667615459399287 10.49474918924524 4.608111011090463
Ge 12.201675521797966 10.196975002064011 11.51493026208196
Ge 7.087819102025545 9.942353331853498 9.436689200698137
Ge 3.490954984336863 11.528212732989122 7.20465631637895
Ge 8.415888523515589 9.3778002385287 7.303317794862555
Ge 10.147968093256651 8.785110392934529 9.62998355661696
Ge 6.581272690717782 4.121276209828054 7.578383742235338
Ge 7.68870389506824 11.395562628387179 5.674581819657069
Ge 6.1307373807257175 6.993414117029107 8.883908298155504
Ge 6.105531215415726 12.093418539437245 7.863757716260362
Ge 5.026472578717671 4.873433800766285 11.842480569016852
Ge 10.0067415788225 3.5291062864166127 5.210036869676212
Ge 5.335505050161973 4.081009833630191 5.3828929963411145
Ge 6.348063244017517 8.26066216092297 11.260813201240833
Ge 8.047083862226824 6.984100803702397 3.5843448278650167
Ge 7.4398595899362485 6.265276361698133 12.410865864586295
Ge 8.367023994524342 7.1158669680094135 6.156314613665065
Ge 5.202485294322452 12.429980064350213 5.199972504474154
Ge 9.284476665546135 10.795382162733496 11.1124900474134
Ge 10.149283870694639 8.554676997735468 12.315908786896605
Ge 10.114172259171424 5.847069988686702 12.03064089561685
Ge 8.609231985541909 6.604568444274023 9.910723104993275
Ge 9.096414043521749 4.921666384610795 7.234648242942685
Ge 10.313269124214722 7.908970089771895 4.343021395729483
Ge 5.720825098102963 6.56521154669463 6.306938373515043
Ge 6.038981613701531 10.334321334419263 3.7750616129820744
Ge 4.445642542822126 4.743328884437659 9.24627252049832
