41
Energy = -165.5071169 eV
Ge 11.641455515928083 10.75465396590488 6.515175700830516
Ge 12.293472036150696 12.745404374986187 8.040323804409056
Ge 12.909907725670678 9.390344983647898 8.282870848214298
Ge 11.466252647941284 15.191280438399847 8.147888928524889
Ge 15.254631086437847 10.211089806249213 8.846762378138102
Ge 9.0932535114395 15.94184105131207 7.650250037558823
Ge 9.969009519112957 9.883266624265474 8.2124121118704
Ge 14.179660577622684 12.458603000699688 9.625134701717233
Ge 12.047175273365696 7.045784674444263 8.798351815793161
Ge 9.531925260003412 7.715701540810663 9.440488012900751
Ge 9.015190935757168 11.534303120260217 9.878378502282608
Ge 8.371671163217474 13.824659183231196 8.977573627420663
Ge 10.926187418114218 13.212133918661156 10.210036966178762
Ge 12.719398584794526 15.483594205258196 10.352191779094795
Ge 15.044667099509025 14.527066736972685 10.775331062509947
Ge 11.326248228467033 8.895893490049877 10.772938366668713
Ge 9.40272810858072 15.686495348250888 10.244074853061578
Ge 13.43670753690868 10.418806736495437 11.023893294543319
Ge 15.338637087656661 8.60813848594464 10.888613122670021
Ge 13.26392649534647 7.1246155241970754 10.99742751754636
Ge 11.872388277153393 16.68453588206777 12.38996458127479
Ge 9.379651657387486 17.17181523333197 12.307620498627461
Ge 8.14972517172283 10.999506827490093 12.22341912476602
Ge 13.510600034349467 6.466388555161536 13.477103762453957
Ge 14.857670397967995 8.67413483161008 13.415041011692058
Ge 11.63621779966888 13.621971368991264 12.644073200243092
Ge 9.32480576347133 9.169534161688967 13.97466817947806
Ge 11.840662275235312 8.292836874261955 14.148274325777743
Ge 10.433249920001945 11.45705866204588 13.383273635435874
Ge 13.065876551659512 10.60716494644202 13.944020531314134
Ge 13.758085159546154 16.589451245819404 14.100959347147684
Ge 14.12310713856646 14.116925710217396 13.166932870722006
Ge 9.84188703404648 15.078551867694312 13.790146138683642
Ge 8.27333291703718 12.937169722480537 13.969732116799756
Ge 12.06834616758428 15.087329257894913 15.137001432830697
Ge 14.38316935949279 12.493882732428165 15.141983205366811
Ge 15.249978486198614 10.04765919392149 15.59144823880209
Ge 9.257501483261734 11.232553977673664 15.691115467646227
Ge 12.856039131602401 9.30348136329953 16.357491635797206
Ge 11.715577326766542 11.556183796207462 16.255150184669926
Ge 12.984448666321018 13.572613110296334 17.024889609604173
