41
Energy = -165.2893146 eV
Ge 10.100455735852206 10.547080646557829 14.689936946713205
Ge 7.486827505434649 9.868291383554574 13.86403172368005
Ge 6.186435623244368 8.23832961476504 12.14980044779819
Ge 9.410868311747535 8.304332667088067 13.169744127548231
Ge 8.889857016101663 11.250356651753432 12.108858354682392
Ge 6.353811708392751 11.856277107867358 9.60557450386955
Ge 5.244959855011522 9.5392507323935 10.141772565607232
Ge 11.21527433156139 13.675468546290043 10.588585259771227
Ge 11.378998642999035 11.794226687414726 12.667835039968397
Ge 11.848317562178316 8.716656631356312 14.02797402709916
Ge 7.512608282794872 10.235311479436312 7.94225531390445
Ge 9.106435803613651 6.089765954862334 11.726797827110142
Ge 9.315212405876379 9.045042637033406 10.708007361045635
Ge 7.363368797616497 7.6200923303472825 9.724960883423746
Ge 8.431892277546984 13.404103106510318 10.527850340426523
Ge 4.363021462556977 10.791422662673668 7.790785830828641
Ge 11.098028233760445 6.206125121012193 13.633881071380355
Ge 5.9492382234672565 12.710371318095929 7.088969050123218
Ge 6.595838270239596 5.789783892723837 11.431531766494373
Ge 9.972132982483949 11.60280338079085 9.368450932206795
Ge 12.847103868166458 9.791545517797378 11.802470334137077
Ge 12.632208597820702 11.643156569864301 9.67561581232342
Ge 8.758320571965031 13.53841517644338 7.781680212987425
Ge 11.451347078107514 13.567615966026102 7.807458051958109
Ge 8.095626965229272 11.942724762360013 5.576094755864563
Ge 6.083136876702048 10.04173180397286 5.714886852676407
Ge 5.505922989167842 8.26286350669636 7.772443317724753
Ge 11.06065302936624 5.743005552267835 10.168999925808674
Ge 11.601090396746704 8.384216581810312 9.876706875546875
Ge 10.198302272290666 11.10762867896526 6.812768565037121
Ge 14.533063429925074 8.398715228201132 10.519839812076045
Ge 9.398408765146021 8.377484933300707 7.137710521360315
Ge 12.838984710370562 6.712483975578251 11.707916222221343
Ge 12.760699604863957 11.398721345212206 6.915982814329312
Ge 10.262955446988588 8.652333160892596 4.584722731898646
Ge 7.759280102171436 6.104408676861652 7.287960979344449
Ge 7.8710575276011445 7.616624216226409 5.079291017434488
Ge 10.295203233912352 5.970110717616587 7.735671714355402
Ge 11.810320591435264 7.548889325452478 6.309752525280773
Ge 13.261475096990633 9.037644972903362 8.109995457654486
Ge 9.953018181488066 5.891265164904711 5.0565771311089485
