42
Energy = -169.91887312 eV
Ge 9.028783156622682 11.346046503310383 3.8704676349666554
Ge 7.33455267216124 8.952601740005077 5.41277547686683
Ge 9.908153329671281 9.116950846294824 4.9830751062939855
Ge 10.986309934117873 11.573127839336014 5.785009255516623
Ge 11.851024194495155 7.632004641533656 5.818947283833031
Ge 6.695612218548074 11.514686403988522 5.403353498290182
Ge 12.598734887491975 9.077852501987786 7.887430753551063
Ge 10.127633146477013 5.600314580550427 6.6462895016819985
Ge 8.834602524496772 13.213261774765261 5.8041038853044045
Ge 6.328445543091799 8.327316336346847 7.905838810961782
Ge 10.728316533173226 13.445558554721465 7.833278071916505
Ge 8.883943471775826 10.42645550978799 7.0558222101959895
Ge 10.468993764387642 7.578584144007403 8.245255174908914
Ge 11.080193113678762 4.956507606195216 8.998535445019401
Ge 7.6671814865434635 5.8803477641082855 8.11003524087246
Ge 11.27216462010768 11.12373803190163 8.88695916103673
Ge 12.592198551184557 6.8767549349724755 9.783393263131552
Ge 8.358335308282069 14.079025626604786 8.942153694504562
Ge 14.681233740091193 8.112708274409849 9.101793925930908
Ge 7.103457213276778 12.05290518141772 7.975901437054911
Ge 5.1785555688967495 10.638313444118305 8.986642177517918
Ge 4.982841796950647 6.1986887528444345 8.565971809256178
Ge 9.176926726923648 10.342971784963561 10.211192221482227
Ge 5.93160762135427 13.116113321965049 10.427239552139886
Ge 8.282333894019798 8.077077668212782 9.592898453833403
Ge 6.44605256470981 4.957932039425583 10.48847908404843
Ge 12.46469835944797 7.1381362798049715 12.413264212834862
Ge 8.58335603815346 12.699612764101506 11.190599716644732
Ge 8.997954639331354 5.70055561665401 10.439520297763204
Ge 6.530752860143405 10.458297531443113 11.167944528907606
Ge 12.424546714149105 11.518541976270372 11.214411573766355
Ge 13.9561967753863 9.399857315820517 11.237838543997048
Ge 11.14124738043145 9.255620376187949 11.638141090200142
Ge 5.590655935587317 7.638522187511582 10.670204368979636
Ge 6.488018318843543 12.34229877818729 12.867928120048473
Ge 7.64299330953003 7.102882892328342 12.156107001169225
Ge 8.791497950767216 9.65217314979874 12.901585678852571
Ge 9.008111794320222 12.237246319708452 13.720206176579648
Ge 10.97240093921362 8.520385498794644 14.173769294211676
Ge 13.826631729177942 8.837549854877091 13.84107971404574
Ge 14.387861876688481 11.321081667341973 13.011110120924943
Ge 11.787489354991358 11.081993542086101 13.756048989649734
