48
Energy = -193.64150797 eV
Ge 14.939350077696666 7.573668490604468 11.816358795754597
Ge 14.947912387708609 8.117013225602717 7.7838633177115595
Ge 13.374589905725854 6.233192337661896 8.910564396709287
Ge 12.648480624775424 8.596909634677703 13.150899656600137
Ge 14.926368096084344 10.747327515971241 7.7700870908856015
Ge 14.59277919915715 10.145207965882408 11.570142974120644
Ge 12.567834168667384 6.522263277123997 11.482308369781448
Ge 13.388105656252401 11.098751851499411 13.796344514301433
Ge 13.26960307465148 8.722196661797938 9.822151048376545
Ge 9.795952266229344 9.004469148313206 13.975205097151234
Ge 15.472288804270141 12.011535478193247 10.02589546048215
Ge 11.057465830754353 6.85810968927268 7.688476647550411
Ge 13.08462777293504 9.239188849139879 6.249626734564044
Ge 13.333528865100497 12.072341860097191 6.068733811269606
Ge 9.216243093456129 6.111849059030351 9.565301268149664
Ge 12.291810298603062 10.920590349362055 8.321738945743805
Ge 13.066216539790558 12.792528350637296 10.343594103335672
Ge 10.678248055638578 8.397355353454909 11.017621769157195
Ge 8.686768031764341 6.974887261468846 12.531886049304989
Ge 11.599564084779969 10.95296132358829 11.673622277310118
Ge 10.779563134039485 11.65067007695106 14.136776316041885
Ge 10.1287299366484 9.313201794501257 8.124199363298743
Ge 10.2918100755313 8.126889446924983 5.490721367066618
Ge 11.806038926295226 13.539109948233408 8.041174202576284
Ge 12.38600951569938 13.624221132403571 12.747587256552377
Ge 11.02589574008522 10.778499364348162 5.69713927067858
Ge 7.317085349326612 8.308518921941483 14.575470933434826
Ge 6.729307979271866 5.41643488170701 8.735914126434434
Ge 10.948520380488668 14.412954993708379 10.545859903027283
Ge 8.198146470497901 9.824372068514654 11.890993024668097
Ge 9.632005185483484 12.069465494681648 7.822463799912746
Ge 8.979636555687124 12.086457165585923 10.376031629757021
Ge 7.9035831689587095 9.05333312244322 6.358156637863957
Ge 7.66498035178383 8.08731071627636 8.924090735622974
Ge 6.360680327088268 7.928741185369012 11.929944739395134
Ge 8.40007302110435 6.088813237358397 6.774360514314986
Ge 9.607560911567116 13.435892221566185 12.606530948122414
Ge 7.868638703079963 10.955222421797135 14.311103267550639
Ge 5.673161055818574 10.162076408077468 13.070467012815067
Ge 6.539804560253077 10.724963779656385 9.409215133336842
Ge 5.153754938141834 7.61401192019426 9.456762661725755
Ge 7.262402532631723 13.363957214992258 8.397580630211543
Ge 6.003509866898853 7.3252578209386385 6.869542568582471
Ge 6.193520706430045 11.362067617669313 6.883398057753194
Ge 6.327000019948446 12.95701490663225 11.017049097766066
Ge 4.268017714007078 11.203631830669542 10.760472669892934
Ge 4.178073612939456 10.215881247537244 8.234925069485014
Ge 4.700403124960628 12.959918711327148 8.759738927630737
