54
Energy = -218.18852728 eV
Ge 12.860420265514087 6.4883891846999955 12.113704476808996
Ge 14.398618379673747 11.838540099140358 10.49905020090293
Ge 12.10241774672227 6.854432434471702 14.79089982171685
Ge 14.673987975251444 10.848162965686464 7.620553147648634
Ge 13.20710995789719 8.964715608576034 13.06878201366044
Ge 14.136714801659252 9.200536835781277 9.758230866957044
Ge 13.799737808987226 13.709691299485685 8.733925753575292
Ge 13.449526752447744 14.42840938546071 11.377527251785816
Ge 10.716892985989102 5.206819007252365 13.078534219962247
Ge 13.030259622521212 6.560123611865772 9.46168385098505
Ge 10.80535488389866 4.736076349946159 10.15136988395564
Ge 14.075315469775697 8.27056212681701 7.129436145849195
Ge 11.114035681745813 9.422177216296424 14.634095720731775
Ge 11.994951165098943 9.913633920278153 8.081358531238175
Ge 10.462352560106417 12.277223223887649 13.95894537833493
Ge 9.482721149194184 7.3442551201479995 15.151015858755576
Ge 12.42081783764062 12.28045582383348 6.794447405399897
Ge 11.836741388433767 10.20675054264922 10.987260020238713
Ge 10.924015354010779 14.261794696530979 11.970759598611664
Ge 10.527249182253465 7.8794680111153195 12.534278427653536
Ge 13.287556073625053 10.265029221909073 5.256851400305535
Ge 9.561167744420487 14.77880081301142 7.575633052706641
Ge 12.950387751254299 12.077297274311826 12.70769135294705
Ge 11.746303753421428 12.655926313243075 9.953691105344754
Ge 10.568729397333353 7.566121553505192 9.587197686745776
Ge 8.994072399990342 4.6831817517854235 8.086227492922024
Ge 11.322828489935759 5.793698078874537 7.524490150379883
Ge 8.986218725168754 7.3234083503901415 7.464292242043078
Ge 11.640757721767294 8.247383542391686 6.024522701161845
Ge 7.651367921506277 11.835423567434724 14.608496295558961
Ge 8.058900819673543 5.987459175865279 13.137889180599688
Ge 9.046534897955368 10.64465991273977 12.418998078827316
Ge 8.520375408435966 5.99346533342571 10.543632733357581
Ge 8.208391747759396 11.770121914612053 10.186598828092835
Ge 8.419998530823385 13.846070591569552 12.911915490099346
Ge 7.688262954211898 8.44450234828473 11.504795295478122
Ge 5.938532436636551 7.717753553316551 13.45842374270394
Ge 10.532519421951115 10.85272616906553 4.782181589865032
Ge 9.42237557705734 11.94708225876777 7.358196722382129
Ge 7.65297694606315 9.54502320901324 8.688168324570649
Ge 9.030349096784533 14.183988858835288 10.088457013357562
Ge 7.739615274986482 9.247727399529486 14.492954701874075
Ge 10.589594046234817 13.526596599441708 5.3700498519536985
Ge 5.194386948011108 8.39529233713715 9.230859822691903
Ge 6.780854968333151 6.323595124894559 8.604782851256054
Ge 6.361251903950694 11.695301345288158 12.288211361370468
Ge 9.166021476097901 8.48366961257115 5.10408424818501
Ge 6.4243226616291125 13.893426577274056 10.811433600842483
Ge 6.0477572475107335 12.379801878373085 8.714754509294288
Ge 7.359194939212123 13.721885544299173 6.988378224115392
Ge 5.191102341850096 9.36542251673376 11.652545879219373
Ge 8.095157091000166 12.53710339025239 4.8342709584069485
Ge 7.494448992496339 10.297980780169409 5.941722410563918
Ge 5.324728352043567 10.282723176457754 7.444562336292879
