50
Energy = -201.57783632 eV
Ge 10.704058983112331 10.316162465067425 5.875017294010949
Ge 8.057302069390728 10.841100097442226 5.485428176120991
Ge 9.90452164753251 6.86269823995528 6.158570540441585
Ge 11.67340336324298 12.683633543523129 6.839774415140234
Ge 5.474860551242545 10.781036916522188 6.709607268603649
Ge 7.724539758349843 8.371873353283608 6.473264793411827
Ge 13.88134684010576 5.607907860885163 6.98164325106311
Ge 12.435389029043188 7.380383230977903 5.535043976722025
Ge 8.259404293105252 12.198266165991814 7.719083205234126
Ge 13.189985521294082 9.858875164157373 6.53247291851035
Ge 8.112039798414392 6.155129913302902 8.993735907616223
Ge 9.774424828279022 4.667730702429438 7.695847465354498
Ge 9.469086181168333 9.95814296629789 8.101471088373025
Ge 13.73427740224567 12.025840805604876 8.35514971612773
Ge 9.995580725198572 14.07514116282849 8.301419088700216
Ge 8.248834107579775 14.344744694949476 10.422799221794214
Ge 5.790023306663403 12.802884715119362 8.393306351644936
Ge 6.666194450787259 9.366179358608987 8.726762585946616
Ge 4.073990204226553 10.217739008754089 8.831446404760943
Ge 11.231935223351915 11.784088620543583 9.403349004682758
Ge 11.588899899948041 6.782480477831759 8.106705463034963
Ge 5.976271616243537 6.887000002046505 7.758779297554695
Ge 14.828247939107323 7.997911562523922 7.31522970706492
Ge 11.488020635874145 4.742080309849712 9.853825633888134
Ge 13.750235138466762 6.158833323808419 9.550127380391924
Ge 4.757263934451832 7.857008557516617 9.899922858864047
Ge 12.469697153320755 9.14267556462759 9.058299427748068
Ge 14.08429251845585 8.430221125087916 11.038546287151071
Ge 15.17079817582724 9.83337954203232 9.13832491166828
Ge 7.419793503476592 11.845465685789428 10.503448026490549
Ge 8.834227888754732 4.760060403686823 11.157287671896473
Ge 13.4988687791725 12.967667668488813 10.810744553989299
Ge 11.2795172748808 14.25068993599992 10.569267776288807
Ge 5.579934189038018 14.249782953496496 10.468688420519848
Ge 6.409590748100106 5.929507124723402 11.16325609510655
Ge 9.356687429757773 8.166548951280648 10.141343573318014
Ge 10.79312105849299 6.621593050358133 11.595121422994097
Ge 4.623438196825858 11.839267509890954 10.859641016337354
Ge 10.424681293819475 10.155683195841645 11.902616527966325
Ge 8.423223602605825 6.947538590508978 12.7942090022912
Ge 13.12162937760484 10.858387873893726 12.419285914556767
Ge 7.447156037023559 13.17506156982002 13.051054914441139
Ge 10.951731938316291 12.620311392083861 12.887243495880474
Ge 7.022269256612957 8.665938240362054 11.313736276153337
Ge 12.18847901129002 8.375569818156587 13.07137347633432
Ge 9.62979525188683 14.871692070419375 12.557527419584225
Ge 6.213339578530517 10.78612600980718 12.697036310584602
Ge 9.919738975107878 8.859202072992273 14.339807579151381
Ge 8.939632423494832 11.191609526408074 14.012950217127209
Ge 11.709235405939026 11.032163421182693 14.730423184121703
