54
Energy = -218.41881387 eV
Ge 10.723845993805584 14.126997205860981 12.244982755742763
Ge 4.793298676706196 10.277966952679979 7.64285581249434
Ge 14.329771870949017 7.768194841995022 6.063198066725256
Ge 13.702484101229626 8.749287088732197 14.128688946335712
Ge 7.256642668063147 8.017447263038473 12.844819613270598
Ge 8.972883644969926 8.254686019286607 7.2260406192130375
Ge 12.330332449860297 6.451904134253618 13.577163560664921
Ge 5.19309422212001 12.931763244896866 10.568089387151979
Ge 7.472202529164568 7.60221758790915 10.120764327856085
Ge 6.273111124392394 12.495045098803752 8.13641185733404
Ge 6.804069432744336 9.993618080247076 5.900471064716667
Ge 5.3913197364590895 9.939221657980413 10.271596013281476
Ge 9.557861259604525 8.975427496519696 11.161587083307968
Ge 13.523579032679788 10.29407176994012 6.351092506150619
Ge 5.692060601408405 5.671591649356852 9.14846606561738
Ge 7.821160457132226 5.800024475198876 7.198843388134684
Ge 10.869615664463657 8.66914995267393 13.58197564217834
Ge 11.904321349249535 10.951085230682086 14.520350920890818
Ge 9.83571935910976 11.654615773910592 5.559646729418767
Ge 7.499880879298089 10.009257271198164 8.623032883768742
Ge 12.222059395490293 8.956131378947827 8.306437422613572
Ge 14.818312318203652 7.106819999076166 12.36184456524355
Ge 11.207421238609728 11.542309666883723 11.905339004272145
Ge 13.156121507254348 13.72038596779002 11.365540678454241
Ge 3.9023566971237664 7.841746858897316 8.98819860883546
Ge 7.027191505367079 14.814528471001406 11.161993502219104
Ge 8.47427132037754 13.300553781111404 6.822663665235474
Ge 9.52553201918463 12.144871125583661 13.879251841328736
Ge 9.331347024985416 14.267153944808836 10.160843816725242
Ge 12.028907199858175 6.368439299932852 7.268804871455448
Ge 10.353105965062305 14.657312089530935 7.892043584800239
Ge 7.869110651946408 12.163797299823518 10.339175616629525
Ge 12.255543943977697 12.473928008940783 5.943875986645128
Ge 7.310418245572944 7.478065302251328 5.006856827449103
Ge 13.047246598713075 11.121494815936497 10.120978179969628
Ge 7.921797388477671 10.643954575153517 12.478158660863977
Ge 11.720268735555782 8.388570625784041 5.694224932454518
Ge 6.403000969183777 12.814770304206133 12.891697815064555
Ge 8.294065424253052 14.504108923271438 13.618275180828913
Ge 12.51930429056162 8.443166113505454 11.496539663093913
Ge 10.56463378232104 6.869313168379392 9.656683982753425
Ge 8.553467021350809 5.104701024645527 9.847038095853492
Ge 14.181602158368523 7.052440219493812 8.657963699333385
Ge 9.352724573062906 6.374002447706546 12.298772316185774
Ge 12.790878382533426 5.898398441199807 10.97398513541096
Ge 14.9106439950655 9.725334905126187 11.563653726697744
Ge 9.399007379262413 9.183608446920603 4.76136585383762
Ge 5.770197888994285 7.65180003240825 7.127053307886852
Ge 12.607147597286216 13.362579356614226 8.338075336140681
Ge 14.972450373991162 9.552597304613153 8.342794405241722
Ge 10.397350500648672 11.850517885504694 8.228164810094013
Ge 13.84361730574999 11.74639072921478 12.90601464932327
Ge 5.036936910397561 7.445352346084143 11.457777643453868
Ge 6.739038005664635 5.251615712354265 11.722168737216949
