54
Energy = -218.48382013 eV
Ge 8.677816291415848 9.412776674546778 4.5154870098037865
Ge 11.924315523077334 8.548774616598388 5.34429993270295
Ge 10.192351418109288 7.290398131617189 3.60664477186647
Ge 6.127584954552749 9.193987348570358 3.7239435459632677
Ge 7.2752822826979155 6.94522286758468 4.182884747567015
Ge 9.015194522599463 4.941769602793875 4.487828204056519
Ge 5.878130015563675 12.37371539109331 6.12169316365993
Ge 11.917299316232654 11.67036906014376 5.2530275585067905
Ge 11.155535280458698 5.896625212243932 5.811249716074367
Ge 8.964929352103276 4.601338551296762 7.135199336739345
Ge 6.670713317875755 9.89312302351176 6.276444208687564
Ge 8.989330812422693 7.290145437160743 6.3273331055793625
Ge 9.88558160144231 12.469044268053715 6.678629084028559
Ge 4.799573002805767 7.956716144776096 5.769175018572552
Ge 6.584885536662217 5.846407244475409 6.566500208428786
Ge 6.594063286223783 8.013459792189416 8.104757941720663
Ge 3.7747838588006886 10.76226270891456 6.80160300287532
Ge 12.412852981180748 13.49823479079812 7.125717499990728
Ge 7.761665785050141 13.80850103903828 7.375108684997801
Ge 12.962340718468278 7.115494161711985 8.595774442640844
Ge 14.100022339420338 8.561325679633262 6.807210658766264
Ge 10.429579610089949 9.966036925306078 6.89868920362014
Ge 7.349101897375374 11.509967406088816 8.693602543849952
Ge 4.743276265893757 12.799614404443764 8.480205032628337
Ge 12.999735893155993 10.844573453338347 7.591655044178698
Ge 3.865468285907807 8.485128728151068 8.32869640197244
Ge 8.878178841548657 9.143810560521343 9.035212965498408
Ge 5.338797432777225 5.69201954035008 9.549307750291568
Ge 12.925020574071322 8.163791097883376 11.030765332674656
Ge 7.29552690798824 3.8314627872889937 9.703110313669006
Ge 13.576786436781548 5.601470625654065 10.761022375889661
Ge 10.550745552813687 12.98169780341581 9.19229151887189
Ge 11.549300960429996 4.950040531637855 8.66612324745242
Ge 5.594416433209254 9.394836731975966 10.212347462235
Ge 11.258228823117575 10.541994359318364 9.60401291815443
Ge 7.7944452368251556 6.240094501676112 10.660390081754816
Ge 8.187785949716359 13.73625594136916 10.065596102499853
Ge 10.58840548110126 7.130702516463324 10.016269304278376
Ge 5.746344197265091 11.992887778832959 10.802605711315362
Ge 3.3335177856860247 10.778255899517898 9.52300877000375
Ge 13.146065730550443 12.639546693791875 9.595657233633784
Ge 5.514432051653829 7.1784172568208 11.82225944068364
Ge 13.194575939559362 10.63680629670278 11.579369708683911
Ge 8.637469126558816 9.657718698387763 11.539058874156389
Ge 5.802403686300824 4.5043760144313625 11.909298050227399
Ge 11.535036242399881 6.814023203678812 12.669651405947098
Ge 8.48736566163559 4.0049649330553745 12.135191742565613
Ge 11.066615427093991 4.714404896765227 11.23310455370752
Ge 8.816672552163512 12.182158523634044 12.41982875631235
Ge 7.177627851980732 10.379918426798247 13.530764605890534
Ge 10.840862939110957 10.609771417688686 12.655985783737266
Ge 7.546691590864018 6.203548380122935 13.318229347690576
Ge 9.374060232500954 8.309915616521806 13.536703926589865
Ge 9.434608863976484 10.533498960880882 14.87287530537158
