54
Energy = -218.43828263 eV
Ge 13.710421221577613 8.608905318941037 13.941631851517728
Ge 10.331508272413044 11.894396635105867 6.37379468871888
Ge 6.886543430484903 14.70045072470056 13.051948726947291
Ge 15.201853489627528 13.953161388902249 11.488091681809294
Ge 11.250486599116936 16.14330401520998 10.394327630114896
Ge 8.508078396358659 9.995390881826076 6.083839004248461
Ge 14.773302545051552 13.065326780663748 8.746787237017283
Ge 11.213539900422319 8.189687931892486 13.532720137275735
Ge 12.508058374073942 6.521978373698397 10.545553632573895
Ge 14.550618204712197 11.261506632642151 10.674067159554815
Ge 11.25517135056319 9.411985389314495 6.091420905243099
Ge 15.02976616881651 5.331660672759454 10.946481986175945
Ge 12.865171686721 3.714032027499468 10.96228012519112
Ge 6.498247472094112 13.061241687740784 10.872203859948387
Ge 11.8389310432783 12.041057016752264 15.056016451390162
Ge 11.312600268530856 15.665903874633415 13.42784412161364
Ge 12.691342386227173 14.363101460762266 11.765259566136784
Ge 10.478346516834216 17.782070043779875 12.234245352064063
Ge 13.704970528636967 11.124487416720747 13.415124946822665
Ge 7.038763620591202 7.936366239536632 5.988584522514602
Ge 10.256530478317659 7.51098563597923 8.905180382046781
Ge 9.062529218835678 13.440693863051928 11.657386018854215
Ge 7.762976972832629 13.367458042954663 15.108428442761197
Ge 9.915681887485453 14.203262113318537 9.378414856668806
Ge 10.081852018157766 13.543379363416442 14.056679063479224
Ge 9.54597333824348 7.9293400726155685 11.521812638924553
Ge 12.053097196199605 13.717950307557482 7.902581189767648
Ge 13.223963296995377 11.514039971699347 7.132016034103111
Ge 10.889319223477568 4.861661376411766 9.321873192319554
Ge 7.656427514120463 8.163575839999028 13.324341940621553
Ge 9.550810745084457 7.387180360502047 6.364733869642836
Ge 10.015469031777375 10.206621174214485 15.31370363960382
Ge 7.825971039187985 8.510988795458449 8.370446062708632
Ge 10.369261370851612 10.647223102340252 12.671200722443997
Ge 9.422022708610582 7.743760442583972 15.270937307577158
Ge 13.541158878989576 4.94183439350853 8.68657787399253
Ge 6.991649551421601 15.68372897733794 9.854131546265076
Ge 8.53369273717037 16.220252900483317 11.863675684195341
Ge 13.291044517890063 5.418430334037341 13.013992623994302
Ge 16.0316772460302 11.856029916194853 12.738132438917466
Ge 11.302007928056803 11.21532642859888 8.983001752397186
Ge 8.231995423252123 10.248255154867786 11.195661804946221
Ge 14.841041513837128 9.07114097805671 9.302092409803663
Ge 15.983050726035717 15.240266991893462 9.39485535265817
Ge 7.523490919115334 13.58355220390617 8.485940937617867
Ge 12.412798688917123 8.931345366954293 8.44809532763171
Ge 7.928027994811855 11.08007776071115 13.95955821969931
Ge 12.12647962379738 11.93409500692507 11.36913458044425
Ge 10.753959405129331 5.204365820531219 12.04058713947531
Ge 6.051193649667794 10.015992526907565 12.573459591665138
Ge 14.367666972410188 7.879151985141758 11.584583144869317
Ge 5.0069105873706565 15.150235337601574 11.433800184986179
Ge 8.688843207209526 11.060052192369398 8.59282748539721
Ge 13.45323206181823 15.544412671830347 9.117059452445655
