5
Energy = -17.23834309 eV
Ge 9.169858758782492 6.248109682090791 9.389589026990977
Ge 7.9610120877214605 8.978725480661423 6.440622775039171
Ge 8.841846084397575 6.688964013905423 6.961913468796342
Ge 5.865513462592804 9.516955034384829 7.674817608247096
Ge 7.4175672560361825 7.931817279798885 8.811608660995303
