52
Energy = -210.68468789 eV
Ge 15.02621747720981 8.607676355153243 8.740392717639098
Ge 12.31256687412364 8.107539938060043 5.363314030762765
Ge 13.031348940802369 7.391704514932282 7.683931824188498
Ge 14.13000170170591 10.775214872881957 7.691423014160558
Ge 12.88188935140358 11.03430234414328 5.453894009287387
Ge 14.633703913072566 12.825187369643002 11.802726030404317
Ge 13.578917129347424 8.760877973178943 10.891302111792251
Ge 11.673584400416319 5.4373651942920125 6.7134779160044
Ge 12.604344471076525 6.323639807795182 11.234394025006797
Ge 13.678087945446654 12.558881979424568 9.451928907201223
Ge 14.676530173200275 10.26179333083712 12.71794886835392
Ge 11.66564433275698 9.761362163245002 7.504363650912679
Ge 9.88617555058409 6.779980408015206 5.2143384505005095
Ge 10.930306598172795 6.1761019509851485 9.173230513472516
Ge 12.728062040807078 11.455719051229229 14.00754753589291
Ge 9.782032361272249 9.297763570980111 5.866713729536011
Ge 11.255117412996478 12.729149753407363 6.63319557206087
Ge 8.875696834366162 13.218918040037746 5.939142957596216
Ge 12.362349631493677 13.715567257703638 12.88303708245394
Ge 7.54721235005935 9.608174654533922 7.769027580168001
Ge 12.384129866225175 11.307116413162051 11.347665900902165
Ge 11.180408513397822 8.658918955665678 9.780009034750153
Ge 12.371370101002242 8.262992876866354 13.522534628610755
Ge 12.122564991832984 14.261908644851285 8.392068187813212
Ge 8.664212591627743 7.223977955956226 7.521122027973938
Ge 11.045267832573064 5.848542751711449 13.281669509435376
Ge 10.570089292171915 7.3713912349130055 15.43126844255975
Ge 6.984154428878291 5.1979593332301155 7.372587120543352
Ge 8.2624308401239 5.567728094424282 9.660059084999695
Ge 8.402514588868463 15.444161663732341 7.483342881270713
Ge 10.41008862325516 9.967350640715766 12.586652868119687
Ge 10.369064241823278 12.22413680548628 9.324488865231677
Ge 8.758335079467713 9.751197592947864 10.044195561724745
Ge 9.984385974667763 15.048432481718043 9.559589013624272
Ge 5.90002211645028 7.583769037371757 6.869346376951954
Ge 7.776785280770603 10.867608881223632 5.488607677030896
Ge 9.249190089184834 7.562584506546413 12.722663041912412
Ge 10.89098233316162 10.11843369135938 15.32065193969769
Ge 9.935544438650304 13.469836578929558 11.630790147237674
Ge 8.07061607954602 12.9119447097393 8.35449535488907
Ge 9.057559822919458 11.739229456615675 13.862191406571252
Ge 7.254926017317847 7.76479728696759 10.756730292580537
Ge 8.428274323964631 8.843899258458494 14.891715788551469
Ge 5.471553922440666 6.341284831462043 9.252991752796639
Ge 7.27589897980595 11.347801017166026 11.436122581710686
Ge 6.97566322010716 15.18966901952024 9.694544116787576
Ge 5.337687277454807 8.992301809305495 9.068811597520495
Ge 6.485698145999454 7.724912046848875 13.384108958496377
Ge 5.9267586149434 12.821069774620547 9.701254592590477
Ge 6.661721270579007 10.567859443688466 14.009703559921029
Ge 7.336190072040736 13.910310987137702 11.980735749506552
Ge 5.344045557053913 9.553711829559681 11.842149488516817
