55
Energy = -223.19482465 eV
Ge 12.285368647838474 13.395906239540532 7.425859932117369
Ge 15.71444778209866 15.2391332604861 9.295721089688755
Ge 11.667199478423028 15.364666786834821 8.946856081277788
Ge 14.31834154737748 13.134041502927358 8.944646118760694
Ge 9.328895004831471 15.020745769028567 9.847534774997213
Ge 13.618695314468424 16.0080514593561 10.390942978369225
Ge 10.552193622559003 12.758700212432007 9.2496366330538
Ge 15.134011973389313 10.844248782712265 9.637631758821087
Ge 16.656085245548798 14.986085614300965 11.628169666857156
Ge 13.049535897757265 9.776996111309114 10.796287147417607
Ge 19.31783849467758 11.880763769852296 11.472299599701953
Ge 17.163538332315238 17.085077115184593 13.017776744142623
Ge 13.434873435576907 18.283215173149024 11.587923369299679
Ge 19.118861195963508 14.373577761580636 11.572287279208952
Ge 11.333620393627376 14.392140552894569 11.69164197121449
Ge 16.90442366582969 11.00999234791939 11.597014642940865
Ge 11.27411251231049 11.728193220457959 11.454072543332632
Ge 9.185439020012163 16.216165886127904 12.24399525908591
Ge 13.019495103780473 16.00618364736637 13.061721306400896
Ge 13.817932686624358 12.296210184782217 11.514357616319908
Ge 9.885515380315642 10.468532782607832 13.178826048948226
Ge 15.826727768148759 12.947403552407211 13.125760183099453
Ge 11.853682953204324 17.746298160909966 15.102813543676733
Ge 11.180805501097895 17.843367733043607 12.685069081398
Ge 16.786223954239382 8.71468940387129 12.695227511440818
Ge 20.91046890339995 15.248525323828947 13.272425451637638
Ge 14.396737362597317 9.478945045961453 12.910870440460414
Ge 6.751843858689765 14.573368394217523 14.649445708127901
Ge 14.919254104004015 18.39224614600864 13.819455754193022
Ge 15.287517897311304 15.65169226187893 14.102206759787462
Ge 9.513080630897967 14.733300443964303 14.316318455015708
Ge 19.887167973133675 12.966617520707294 13.775569384246703
Ge 11.467359802186206 10.979658559319077 15.159758806292066
Ge 8.497285017544224 12.415677624015157 14.078495011521989
Ge 17.502231926366644 13.328101508445302 15.072216484253532
Ge 13.45328813991883 9.402869144246125 15.245775708413005
Ge 13.830565430046377 12.188048880350216 14.790799754396446
Ge 18.7340745673068 15.661740663589274 14.547334093651804
Ge 17.27378072403593 10.356407309621492 14.5685107193736
Ge 6.533594496913125 11.924137634118152 15.597284649954426
Ge 14.284429325196827 17.772591217478787 16.334126851845593
Ge 6.534845340125219 13.877146408849129 17.322005472145367
Ge 11.147878982696623 15.332256927767695 16.171492572264242
Ge 19.391440183773263 11.337081151652775 15.708954166488757
Ge 8.482111039747563 15.581830076789181 16.67397773990017
Ge 10.638756626963998 11.30266174141453 17.59302137225432
Ge 11.823354899064734 17.485695213510954 17.519316404746398
Ge 15.42900913164056 10.59339916549425 16.287874215235004
Ge 15.512512195116015 15.469935636464244 16.604551916013182
Ge 12.178860255282412 13.157491103944743 17.00744724123268
Ge 18.066675104661158 15.365001957197412 17.068710013694435
Ge 8.828593614321443 12.840832266622586 16.687302678607548
Ge 14.675909563821008 13.175151396758759 17.22635030725404
Ge 18.031263810422942 12.749215292631051 17.489833239679154
Ge 15.9683015529888 11.518044324261057 18.61455311793197
