52
Energy = -209.8601611 eV
Ge 11.03328114659034 8.494728405019162 4.833907920681706
Ge 8.15930549439785 11.303474611577185 4.840134428311614
Ge 10.478325867640983 10.737630243768212 6.0493559098893
Ge 6.972120473003032 9.183973367500439 5.938261863286107
Ge 10.13118657769919 13.71323639157462 8.131430216041434
Ge 12.967101302537063 8.969378185440759 6.5264452732848905
Ge 7.762981128343131 13.35356804077757 6.697702441178651
Ge 8.923993362746799 7.202746283667332 6.046543496089479
Ge 5.7295624824649245 11.744541519191324 6.0241866031960125
Ge 11.926473853580678 12.797067736107334 6.4949024398838215
Ge 11.723846962265812 6.665432236141561 6.9650700663083756
Ge 10.774137116293316 15.530288461796259 9.898243377739606
Ge 8.054627512649466 10.855756840176204 7.637831763717374
Ge 10.182279464181804 8.681918867317629 7.81152375076233
Ge 9.083285477871678 5.1777390844553315 7.905117566765745
Ge 5.405496579360057 9.932481355657716 7.998579548040911
Ge 14.185426658151995 7.052309438738644 8.216512154392396
Ge 12.409293609741226 13.408064409290727 10.039289967176652
Ge 14.956713832506798 10.349081958174871 7.573058509954689
Ge 7.062419700763771 4.416627652021446 9.563987557510808
Ge 6.0326206262215845 12.48196787659335 8.68278071454484
Ge 10.830218348534062 5.490096529738019 9.79821586935219
Ge 8.925831904847483 8.237549647378874 10.260790417326367
Ge 14.185464913491465 12.931132418890677 7.808188268575551
Ge 12.323790651840286 10.902032836507425 8.581483068870133
Ge 7.241874527466018 6.903887626061456 8.675296804137435
Ge 9.036262093521461 4.245271928775491 11.291861612924393
Ge 9.894290228362225 12.227075147836615 10.436060233022022
Ge 7.207198360726232 6.290828763255322 11.471101400203569
Ge 7.515665606768478 10.604139448648988 10.412849274128646
Ge 12.254174286610652 7.797867322967977 10.125996581740619
Ge 8.240640031782204 14.349658757972321 9.88774480156569
Ge 14.77597922115036 11.496479124502532 10.01245158047064
Ge 5.855987454821467 8.38195315452855 10.29580938611411
Ge 13.361516882321832 5.163281527721733 9.838500309817082
Ge 11.112663686129503 10.03746835528614 11.823424469814805
Ge 12.568212261495662 5.95865190844502 12.153668228396132
Ge 9.794680286710793 6.601356593629608 12.230540847016362
Ge 11.700855035701759 12.767116403241507 12.609169001359657
Ge 5.797270248041181 11.978476866419955 12.159494722069473
Ge 14.809381498741253 8.874931859461745 9.975486563240448
Ge 9.676920025958701 14.43902487572918 12.07363729713316
Ge 8.391821276909845 11.337290452942336 12.99608543574243
Ge 6.40277813876207 9.458709421900013 13.172478892223612
Ge 13.653954177888103 10.927508538756198 12.287910122870166
Ge 13.252103337674342 8.38115177405083 12.822851768410821
Ge 7.310237498772068 13.730347148570626 13.59293171962201
Ge 10.865345028589742 8.529346213248402 14.005596980948196
Ge 10.814430569946673 11.080075045001323 14.491679166966776
Ge 6.126808430013316 11.536791096581855 14.817433488996308
Ge 8.654036522113666 12.329038399604917 15.557536812656378
Ge 8.168949380725913 9.663268992786538 15.162680450957527
