54
Energy = -217.53389484 eV
Ge 12.098652861665043 9.708058238589096 15.20547110779332
Ge 13.851347379882581 19.084016996264097 13.962833383988134
Ge 17.40292853086606 9.092751740498073 12.534094724287698
Ge 16.990928257526598 16.070952829252757 13.615715429570812
Ge 13.548509858437052 9.372287204348874 11.563057964118755
Ge 14.203065634877449 12.939475508582328 9.127014371007032
Ge 18.41269431815683 12.70913484284643 10.734270412145307
Ge 13.079129387630122 10.588006870459095 9.16642282430558
Ge 15.289990885424453 7.203602468169719 12.29036869270354
Ge 9.097659204021259 15.461354290647252 13.547029004306134
Ge 7.623084035537425 8.716323183407706 11.255297246931276
Ge 16.467652232801843 11.367732308124934 9.137623917925191
Ge 11.359222294527047 8.001960783226396 11.333179320976674
Ge 15.807539921558075 12.575996164506591 11.356367084683397
Ge 8.88419362379967 12.686434485533596 16.4296043853407
Ge 9.399204283712022 8.748714309040485 15.08570996272232
Ge 10.749523441228742 11.161354669445586 17.297441215570387
Ge 11.614103210062327 13.68540384929809 8.0347654725314
Ge 17.255564341829793 11.740307334433382 13.187779912908285
Ge 11.318194780849547 15.230457500034852 12.264665565446148
Ge 8.851151486982515 13.125773414396072 8.509000605290069
Ge 16.030764903860828 13.78420641702456 14.460760059647452
Ge 10.903749564823126 8.583496973566293 17.140054833329227
Ge 7.276684123458117 15.283207225042746 11.776803656488434
Ge 8.231773620155566 10.978956028286154 14.700586372872662
Ge 9.257700508982515 16.39529830289176 10.48042005801847
Ge 13.203160853324732 12.095643381188133 11.646887552940754
Ge 11.593360650952663 19.70683859276863 12.892114541177227
Ge 14.545167378745122 14.97613193034186 10.868470743914585
Ge 15.591486671676822 12.234213819460555 16.55022873152035
Ge 9.719383838169673 9.523834521017287 10.105101159421032
Ge 10.918293951283655 12.641756807832149 10.435331403978584
Ge 10.022852107280698 14.972289483373888 15.938092953631923
Ge 14.299123184809796 9.149391180381611 13.996259344746546
Ge 12.956247974864917 11.98424288564108 16.388731022855293
Ge 12.575310717354215 14.50190311919502 15.765631247261013
Ge 11.88942550109985 15.825150562856406 9.831204630002361
Ge 8.192524342507205 10.981401887539938 12.188420797252643
Ge 12.734876553671995 17.99719648682371 11.38647013699277
Ge 8.450310377116867 13.194863117652298 11.045796842812914
Ge 10.915311020864664 12.729250091579486 14.503968395957832
Ge 10.627766790490027 10.097881051782664 12.994659189720757
Ge 9.756060650026118 15.57223336037793 7.980173366304486
Ge 18.61998973672574 13.921934034487048 13.27772456321844
Ge 14.621710798778375 16.925414782494563 12.843993813096468
Ge 16.281370173408053 10.225281491986651 15.087983152201893
Ge 12.136197976065178 17.085441881619474 14.131704235729588
Ge 16.597979391420203 7.684584286723225 14.572404433985437
Ge 9.30453257929591 7.492405516546807 12.85408122400341
Ge 13.69594933342594 14.310794163167918 13.39247243515169
Ge 10.547971739887275 11.062740100900053 8.292771361298177
Ge 15.877571845137942 9.056400138445941 10.426956828109937
Ge 17.25220629179247 15.028155465109144 11.096392289283829
Ge 9.806367016556027 17.799804178650998 12.56733261195612
