50
Energy = -201.7690609 eV
Ge 11.122236172455766 11.940673719887094 7.775007522410189
Ge 11.144563055288616 10.232611783916642 5.4893972017508155
Ge 13.598191230375726 13.35358003716189 8.246536571127619
Ge 13.456780017058051 10.702009616479897 7.38439934101992
Ge 15.385855870726449 11.50097008725165 8.918387139554081
Ge 8.6082793417576 9.570683070550496 4.363947854826002
Ge 11.072015178565199 8.026893867369594 6.895612243221214
Ge 8.937446448736317 10.386351698537144 7.124210876195371
Ge 13.458275160810544 8.700449056947514 5.694533957291153
Ge 10.29101340990293 14.402870151157183 8.176031875730597
Ge 13.69787271594616 5.237086785464726 9.124245197168692
Ge 13.58546406964086 12.1471486100685 10.777681224298675
Ge 13.531894289240869 7.57037079117864 8.018713764100339
Ge 13.955235592565693 9.38683369574172 9.861785876535524
Ge 7.843114748569662 8.030007655133597 6.633498760742601
Ge 6.119265230826526 9.644099452020995 5.180380321784927
Ge 7.829457494878376 11.927597950063607 5.296065799219636
Ge 10.970992388357686 8.190078802704589 9.45411635754395
Ge 11.519354104829874 10.636115020346365 9.975692416266337
Ge 9.524981192528976 6.161368901109176 6.058744747376804
Ge 11.088053243199875 4.972782773433001 9.214798322053442
Ge 8.155995023730053 14.049974024253634 9.640844235519745
Ge 7.801384289902542 11.290230397233062 9.398508341738795
Ge 10.880878497290903 4.935831301224731 11.86645523807718
Ge 11.770061384378582 13.971280146141208 10.253047650929382
Ge 9.63161267806936 12.270575903592482 11.178623213509525
Ge 6.298893527888413 6.285375495062398 8.328432993650077
Ge 12.602298778313617 6.721240257890458 10.935242072105032
Ge 6.018958127699458 11.55566507156634 7.07789669490877
Ge 8.781017114071984 4.895933018069918 8.22362427916441
Ge 11.406960395739533 9.98516753235149 12.51750129296689
Ge 8.226743647714972 14.471932306332812 12.215839526220835
Ge 6.066300040717335 9.237827831044402 8.19102389332733
Ge 10.807403947764096 14.141598036487489 12.648919281075996
Ge 8.84813464453259 6.778684856021178 10.06639357104033
Ge 5.74891234518313 13.102181902748445 9.237496904467195
Ge 11.978567506508433 12.090520435034936 13.974353040746564
Ge 5.6299711710581795 11.301922364139905 11.229216469294538
Ge 13.618442272524387 8.54497173347947 12.487041173023018
Ge 7.411419291706918 9.125659663475604 10.81957062835264
Ge 11.485816485724708 7.007843881513293 13.351763007700297
Ge 4.284059604244564 7.798807392548374 9.242307717701275
Ge 6.139446499142712 6.66045624644889 10.982389324347448
Ge 8.761605278400609 6.356890860850768 12.663801634450701
Ge 9.365912329983285 12.587532063452992 14.805787893916083
Ge 7.577675238193963 11.940653574660322 12.734620683806329
Ge 10.484101235990561 10.171983248159137 15.065773855532552
Ge 4.794403648703221 8.807032988366972 11.633900239513231
Ge 9.041228074114198 8.962379863911611 12.91600182880414
Ge 7.784263572818392 10.372071685785624 14.792643552262245
