5
Energy = -13.64493732 eV
Ge 11.63385085960306 7.947645848314772 11.167919415075751
Ge 12.13292793854854 7.988188588928807 8.742786073750732
Ge 9.986054090813367 8.913199694492763 9.582915310110055
Ge 9.77524622466203 13.016578771254785 12.148606545835129
Ge 9.69371512649259 15.244616532700196 11.570673906092068
