53
Energy = -214.32972173 eV
Ge 9.403234996228083 9.937378306947236 6.647991404094452
Ge 12.470192832777675 7.973093375464906 6.1080902850755505
Ge 8.764216464090604 7.589734468388723 7.293064957937418
Ge 7.219088363610825 11.315449337001423 7.201850972308035
Ge 6.414607149321649 8.795546389599114 7.56217425198249
Ge 10.761936770261563 6.0691206144029275 6.657731898377543
Ge 11.921851948869039 10.237253617473334 7.353293262151096
Ge 14.345936310853661 7.321196515505802 7.696163392412709
Ge 12.477546090689636 12.78050476437045 7.286291989518237
Ge 16.02853925339256 9.172836582431403 8.564142723881952
Ge 9.070543225904869 14.358358605383195 8.878688375274026
Ge 11.407581832389955 15.125612071512222 8.15156703219017
Ge 14.374607071499572 13.138143789865188 8.813210035519019
Ge 10.108876103518448 9.245666756082565 9.249603159496091
Ge 5.745259193651249 10.953395349198438 9.388479376499285
Ge 11.115392872507616 4.794473252293179 8.912107548749988
Ge 11.844792557903089 7.3579318504716875 8.725776128967716
Ge 8.241734033308646 7.31104445990177 9.88073672426611
Ge 13.288607239121918 15.188348944668643 9.948637720698741
Ge 5.719388780091527 8.222854843406997 10.041928981895813
Ge 8.62891117091253 11.642029912836263 9.384317471103614
Ge 13.593387948442242 5.321203668396332 9.060119896200463
Ge 13.654364066161214 10.128452171334889 9.525687476975506
Ge 15.624105530357664 8.029976778844587 10.822687388063263
Ge 16.102541759283127 11.559908857157422 9.770821658979287
Ge 10.10005245183073 16.863099371707083 10.284807648288206
Ge 7.447230352571497 16.10498190660373 10.066093840954645
Ge 7.786101036338135 9.613221739826223 11.198197380775165
Ge 11.555049147613769 12.923322273595328 9.825174090313379
Ge 9.320024150543148 14.486780909657922 11.539329464544378
Ge 10.908310894549505 16.212282450880913 12.748781236671498
Ge 6.986465233969851 12.42318051691122 11.366632245202167
Ge 13.043929695239742 7.877330619055222 11.513999112928028
Ge 8.99088780349414 7.578605272369968 12.554013768648417
Ge 8.357959417095683 17.279363288650437 12.318724091656172
Ge 12.82670950729168 13.699959668064599 12.061974641593636
Ge 10.685005127454332 9.551765638144817 11.935674924391476
Ge 5.317673323053035 9.870861189831228 12.11414587982928
Ge 14.348451271517257 11.599627455557233 11.665317424680973
Ge 9.625664241355802 11.878693622286988 12.644933366724027
Ge 14.77202356735453 5.699446527146564 11.286192333978219
Ge 15.118907489443355 9.418947222416753 12.960969133762834
Ge 12.87693488590204 5.683113308843066 12.965518275996502
Ge 6.704589281871089 14.982108054065089 12.37506818888131
Ge 8.772935953580022 15.211486150993256 14.077247589946747
Ge 7.0681779605905435 8.787687373069879 13.96004420718892
Ge 11.579427943888232 12.808654528317406 14.180620593933854
Ge 12.488050424667671 10.36334300938314 13.552353792534278
Ge 7.196212378022355 11.569811074808792 13.85681330837585
Ge 10.772099047494738 8.041079161839136 14.3939369928034
Ge 13.476815926267335 7.907533318368295 14.322892997878506
Ge 9.22531804458559 10.025830303409862 14.872106256616034
Ge 9.186105067328286 12.8327239513207 15.297628288345333
