54
Energy = -217.76475887 eV
Ge 16.34044512132214 12.970509559629104 9.430200054408068
Ge 16.234369080342628 13.285234684034855 12.164507751145056
Ge 17.732315401095864 11.247035715873047 10.96036477319414
Ge 14.012217811193976 12.01734976443206 8.227713347771681
Ge 16.3599513869099 10.861588370739362 13.428454898126187
Ge 13.391276045245254 13.919415662036267 13.399086285606943
Ge 13.854718813740286 14.497830465608132 10.607566836578078
Ge 16.159634590450736 10.269703856825226 9.006692570078187
Ge 13.733687861265405 10.758661653104653 14.077852884744605
Ge 16.200198814539647 9.025984338588167 11.499757146979809
Ge 12.898539021190246 14.041987116250702 7.009642206504212
Ge 14.82111562155914 11.27746907412136 11.157019704305965
Ge 12.143646020290424 16.036113990563656 11.995681257069716
Ge 14.064737626572029 7.958519514891014 14.114022569865528
Ge 11.617218475737321 15.413064623072914 14.737342880363672
Ge 11.7737598101909 15.310724828953534 9.050500364922696
Ge 12.137841558597914 11.408763748228324 9.888281997200343
Ge 12.129474128440998 11.340061346832599 16.087846597236904
Ge 12.869512663241524 10.318702287838628 6.555280772172746
Ge 11.274143634451802 12.200971318829119 5.703665923097267
Ge 11.027352353742996 12.730131893887275 14.208699954864532
Ge 12.34484632568864 9.834075725042327 12.072578862326905
Ge 9.886236106927758 16.73562803575176 13.14824228923099
Ge 11.590794443717913 13.325726687742074 11.515488306721666
Ge 11.605922751049242 9.172869242756692 8.50485295514826
Ge 11.756032620327996 8.805699657753513 15.003046489512046
Ge 13.719774186147177 7.702067276224312 11.508121429695546
Ge 9.009276598985629 14.472475843636307 14.298750140672421
Ge 11.861218572029326 6.756343588891199 9.426911651403989
Ge 10.137878144179826 7.303997544468311 7.104887265020418
Ge 9.413717659419488 14.70170295337748 11.536385328880542
Ge 11.752689812086128 6.48788787873087 13.71602686612311
Ge 9.79796847771371 10.305611149317917 6.913088345051734
Ge 10.056621484751853 10.685157963286763 12.91813467135605
Ge 8.624718133131251 11.214407695332875 10.89977582636501
Ge 10.844073621966185 12.948678953778396 8.287335775427724
Ge 9.05336314840887 14.977953738029958 8.908340424408914
Ge 8.960758463834798 8.811871746999707 9.556338836032262
Ge 10.7422687155902 7.590644744866346 11.53375575705031
Ge 9.839259154377853 9.593591863345903 16.529088048638847
Ge 7.584540978674518 12.769121003081679 12.777582208271323
Ge 9.639268987911517 7.202633509061541 15.335380604001458
Ge 8.424386665247129 6.266854993868478 8.851468717624892
Ge 7.645145472536513 8.08993771585652 6.853707846055826
Ge 8.613009840855426 7.336910214876869 12.8254848028083
Ge 8.39134610469656 12.049988063710385 8.465496184288975
Ge 6.403502406534819 13.595141004211222 8.071078866727843
Ge 6.752917409350746 13.548629521263921 10.55032788993371
Ge 8.302207673567894 9.502751154369312 14.3344836928055
Ge 6.335267918412344 10.198913249684082 11.443829867246805
Ge 6.818931634733087 7.608725999449529 10.839659933195072
Ge 5.779906664251319 6.877330985735992 8.526711948966797
Ge 6.422271250350525 9.443873383992901 8.720186402973413
Ge 5.099781858081623 11.525356087225035 9.330141931045539
