53
Energy = -213.4322568 eV
Ge 7.548945529599408 10.827115092169352 5.425989789254099
Ge 9.925313052731996 11.228587110822847 6.697075538425999
Ge 9.387242665063633 5.750988246799316 11.255462914259322
Ge 9.048202029225958 12.339597084850448 9.999182765794611
Ge 7.532763607460629 6.8127385610678965 9.304804088440443
Ge 11.844107016333862 15.5782135669245 9.09068813540262
Ge 9.319591278015482 14.705695397365925 8.813527891681407
Ge 6.972319907893153 6.541631426183092 11.964435629552183
Ge 11.237018692504265 11.597121523859425 15.465697527852052
Ge 10.916598723784341 8.367628360534681 13.413902173071445
Ge 9.095186573004817 13.096943605786034 4.84842756900617
Ge 6.085115479815769 8.843786741039501 10.517093416454536
Ge 11.480782478207901 11.212268215292179 8.879877761596218
Ge 13.193334382381174 14.850434032915826 13.518268572236158
Ge 9.993011959240603 5.855271205742868 14.111301012484667
Ge 10.76324412456441 14.004178282192033 14.31778818810867
Ge 11.851930551218716 9.710494098242666 5.373540652564442
Ge 11.467261059270408 7.429701648150799 10.256566936377798
Ge 14.092571723822955 7.692530644605084 10.509644095704596
Ge 10.281538475545519 11.619056151746886 12.818932009045902
Ge 8.811129406091181 8.495608777995658 11.49912235761707
Ge 7.483024333137055 14.610546917567408 10.66256530776812
Ge 12.942893502357842 11.75582269352115 13.386648514195041
Ge 12.389344673078224 13.050985028009704 10.770295076012225
Ge 7.577839524233877 11.489849625319454 13.108037287825322
Ge 7.898789623872289 13.26162492147145 7.222781921751656
Ge 12.123789122343725 5.94735196982252 12.43582188361761
Ge 14.669307718503568 10.173212900690666 9.54476190064454
Ge 6.822835418194408 11.160800683788713 8.38798085159547
Ge 12.192512784611779 9.83219549748426 11.030595809647497
Ge 8.755833385301996 9.357331828041247 8.984135337397165
Ge 13.251108038617804 9.079561546656025 14.813428685364546
Ge 12.449936139757218 6.47461358475893 15.106167885587519
Ge 14.888436346720562 13.15493277726175 12.145959700684978
Ge 14.581385378980357 9.827076866646534 12.2972783552792
Ge 11.712332283445608 12.384384948173505 5.066424500798294
Ge 8.629774628888981 7.914799828139688 15.072344465286273
Ge 14.470326853226672 7.230934092960164 13.245661635796765
Ge 11.006131178092604 8.716163991265985 16.193908406746626
Ge 9.942184899614759 7.194216466221629 8.087842925377881
Ge 8.895111937661577 10.52218896479932 15.114929434244543
Ge 6.5253000780442605 12.150684931900297 10.804317574359565
Ge 13.878576668852599 15.47270743406968 11.043416364027289
Ge 11.168410700924165 15.212662225785472 11.6960230588239
Ge 6.816609458267197 8.917093820938197 13.226543693172662
Ge 8.739400627569712 13.884393672311436 12.766291035229772
Ge 13.838135873126022 11.180324891713239 7.02864795792132
Ge 12.676730504879172 8.975201032662294 8.029543113614128
Ge 14.849787127350869 13.024257379644494 9.514949219019861
Ge 12.734549491540479 13.372702486318039 7.906737742870337
Ge 9.737757028716208 10.762251635117948 3.795943953920132
Ge 9.290999663135867 8.771665538039162 5.744168828587381
Ge 6.324945166267868 8.68917891970429 7.7958274229939555
