50
Energy = -180.1133966 eV
Ge 9.063485975005145 11.175240106358586 2.2104070443238246
Ge 7.626363667531511 7.647753564503935 3.0463080537887324
Ge 10.398402391748261 8.741246062405459 3.6407064070949513
Ge 6.471391662625111 10.508090492040084 3.7802802943129397
Ge 6.4073745277397895 5.684185474029764 5.035340841526481
Ge 10.72718984223141 5.257470389585305 4.425842660122475
Ge 13.427784851453778 4.767833938813301 5.750939911672276
Ge 12.957846409420188 11.466580669914558 4.405932460727615
Ge 3.9571308526833437 8.190103040956897 5.044960593440913
Ge 9.63177432122643 13.458443219701346 4.38578263419306
Ge 8.97496207480771 10.674785636792457 5.613079892154799
Ge 2.2450543791284594 9.598122670041674 7.1623020221110645
Ge 14.660327188295765 9.945837455432237 6.390228625787472
Ge 7.38862111317646 6.048105816893081 7.850098412281749
Ge 6.715665464207979 13.916324601798223 4.4564060210298315
Ge 11.829996862436843 7.249680267207685 6.5169679146010315
Ge 8.691747270554924 3.715282084985423 6.255234342646493
Ge 11.247659856201963 4.575009948143793 7.919949271713187
Ge 5.506512345209104 3.7964285311282073 8.729188841459914
Ge 14.687963289433144 12.970862093944397 6.3671334095202985
Ge 5.2608548485700215 9.855771438946526 7.249441984983109
Ge 10.484226852594757 14.965137005953132 7.1928052520736525
Ge 7.510372911175618 15.707531851280038 6.833314249235885
Ge 12.212418134002593 11.527937840693935 7.383375731308005
Ge 14.568272101443902 7.113439773129043 9.098710463325412
Ge 3.912781233985375 7.221194623849506 8.116665564340003
Ge 9.232444264721435 9.374706948257137 8.761095993937097
Ge 7.386906832833715 13.294028578803646 8.648150131790523
Ge 3.9681424166789925 11.226522939128879 10.338016393340874
Ge 5.345798187999251 13.905279710785411 10.915324794849841
Ge 6.8305474646923745 10.060227922800625 10.816278596032781
Ge 9.375146553239691 6.227875904152814 10.751532635014588
Ge 6.516837283672354 6.537727013540631 12.262737174623908
Ge 9.86519186471508 14.3117765309106 10.081036255369332
Ge 10.326322116265473 11.323839049690303 10.84919543692404
Ge 14.827808638729397 7.3847058586131435 12.15209792099865
Ge 13.18640096204475 5.133757866447592 10.955667720616457
Ge 9.721728568716593 3.1643395221019013 10.775737721295117
Ge 6.7189241069246215 3.3362569851681694 11.498568259132586
Ge 12.227077516880435 8.134097207051388 10.732737559192127
Ge 4.028744307946594 5.283761229116386 10.923812774782954
Ge 8.245944396287666 9.145372719715814 13.988715421535794
Ge 7.623920799103439 12.652007126477498 12.50332842040298
Ge 4.307255083248514 9.472212992573464 12.809081894713902
Ge 10.36151989453323 4.777510902365745 13.323966897465192
Ge 10.93237687846338 10.5424085469862 14.044812575538055
Ge 7.6512285528018005 4.902206837255399 14.704564819550216
Ge 11.729271377475111 7.749467095970149 14.591430103650495
Ge 5.99938603586716 11.15144518064245 14.651334397063875
Ge 9.121646404482114 7.226817668128762 16.15612413761429
