54
Energy = -192.34757255 eV
Ge 13.576747680398235 10.019852136643344 11.946901970659882
Ge 11.738247700251414 11.145376478425465 8.72821186244131
Ge 11.20053611760742 14.815841426382875 10.242983792748419
Ge 16.586323711222498 12.131342214098778 6.329585449734414
Ge 10.320718003622222 17.43552514448973 11.860025171817663
Ge 8.91671241166487 7.598131912077193 16.312146633491043
Ge 16.87106704679854 17.102854183119263 15.579288332834723
Ge 11.221585040075903 8.873784185362156 18.154729487334926
Ge 16.245947967229956 11.7765447809549 18.797281576426336
Ge 8.411934904632924 7.360802642301759 10.063046660955761
Ge 12.621965269384585 19.38999295201022 11.210943329174901
Ge 13.898146278049278 10.927609920537199 17.104992006630827
Ge 10.17472679797032 17.044125580852697 15.693735099524178
Ge 12.790514635435224 14.321443851353187 13.54510651862541
Ge 16.692951191755903 10.529823406111708 16.012140113616457
Ge 11.390093795602185 7.994616943276983 9.885695008718871
Ge 15.027117153677384 16.24457753446184 12.802720467599316
Ge 8.28694548030597 15.007524561973923 14.386009237402623
Ge 15.348153854095774 12.384929763041907 13.080356642947905
Ge 10.741185775027613 8.30791888725326 13.061560624918155
Ge 4.499431601485649 15.426910547537576 10.11697286073397
Ge 18.268446602419278 10.050902126800606 12.831576504244257
Ge 14.423312905485849 17.050883371332205 17.17046443049684
Ge 14.739696125667448 5.760793379033305 12.696939760585016
Ge 18.024114426129692 12.69335398479067 11.398095307319647
Ge 12.348573379172025 2.8849046810541688 10.336346519542605
Ge 16.512515984763915 13.65281096592382 16.322913757949898
Ge 9.131309883625411 10.570984359903289 16.76547168452285
Ge 12.020864697816682 11.458623744239704 5.740793743964205
Ge 7.472539646181797 16.323492678497043 17.017718020536865
Ge 13.788927553946277 16.857947040998376 9.776629657709108
Ge 5.581329674764072 12.842970749064957 10.56592644537501
Ge 10.598248040611267 11.224660299813353 14.138364863097157
Ge 14.83358438457117 7.620071133603341 10.346608305530637
Ge 7.732202311779021 11.703862845563645 13.151232423997534
Ge 16.65838606567887 15.182780141205066 6.292602872921685
Ge 13.992773366069036 13.613161915137285 6.814061676369167
Ge 11.980552522993934 7.061807386192121 15.775442041217564
Ge 9.366289322859872 12.251711703977302 7.0117303836071105
Ge 14.240219288833368 13.429088595073845 10.009733163004851
Ge 8.725057714010424 12.652125303311394 10.39021585429891
Ge 7.540378097111076 15.595483440221425 10.245406948446984
Ge 9.799626230504234 14.294870080055437 16.98725903400671
Ge 14.350249289339056 18.60543605529439 14.54932170730524
Ge 6.683321643121854 9.26160201244358 11.647898013182498
Ge 16.55998335627082 15.422032254821255 9.30692028680171
Ge 10.325634652032281 19.155325727308878 9.413286092034497
Ge 14.421252776342254 8.354673916105858 14.350170154685086
Ge 16.491185857870107 11.161718543008522 9.277973137854158
Ge 17.7499399809776 8.527652422891741 10.283324639535305
Ge 9.445284962978869 15.29794385870121 7.750598647900171
Ge 7.920115905216179 6.963386086679398 13.101278982716419
Ge 13.466120675987415 14.102486160922146 16.502028330989482
Ge 11.816981244251586 5.3487395411068634 11.728015101208504
