5
Energy = -17.14844231 eV
Ge 10.248329942682274 9.975020786390475 7.3656868575363
Ge 9.202216270433178 8.198210392926233 8.906157233451548
Ge 7.727713851027883 6.49691166005933 10.154065439725693
Ge 7.948167722446093 9.43291919778862 7.043601320967586
Ge 6.73135561303893 7.75472136246371 8.388272547947228
