52
Energy = -209.48771195 eV
Ge 7.998142151360851 9.411726126737396 3.3093058087296536
Ge 10.163502489975546 10.756839860485089 3.8493297495003955
Ge 5.973295033069201 10.76920550732015 4.622243207527105
Ge 5.331850242610499 8.35547237222367 5.29217781928403
Ge 6.95697459065393 6.353723627271071 5.511819590923795
Ge 3.771439773032519 6.352121302063333 5.959820408366462
Ge 9.347670770526747 7.967194822807641 5.062389966008663
Ge 10.172117686063023 12.234060171634145 6.011617594388658
Ge 11.609716591229722 9.417710034309154 5.541266101501444
Ge 4.55610961142668 11.144241179445196 7.0950451398003365
Ge 11.56896101120212 4.90796704400832 5.75821606409773
Ge 8.262196196461877 10.413373461481672 5.76792763213452
Ge 12.705530349429615 11.504455847738132 6.653507597207691
Ge 3.6783666629000837 8.460736095058824 7.527156913790438
Ge 13.070109288732386 7.103118642178212 5.776989794297346
Ge 5.7383646056771935 5.084698562870779 7.4271645212643955
Ge 11.272997145763922 6.834090471178723 7.756607936169643
Ge 13.749274575825208 4.869210010733653 7.391786952862273
Ge 6.383712016023896 7.784596086440546 7.740790118168072
Ge 6.866367562583201 12.483917543110204 7.69571729596937
Ge 9.049194876949018 4.265733089320749 6.832893325485214
Ge 9.434138117971939 11.441248779705932 8.582872452714101
Ge 14.071031787745454 10.262595431461191 8.659399410828227
Ge 8.996962024761062 8.678690010117329 7.708008226563658
Ge 11.480086198171865 4.189303612344837 8.400012914398745
Ge 4.385678512123088 6.533873855779669 9.107189278797575
Ge 7.95655564534546 5.176770496891737 9.044393168533585
Ge 9.42043675499172 2.8990204088119245 9.143404756640853
Ge 13.96556501100267 7.502561362926173 8.312034614874847
Ge 6.65687107948285 13.248473439937902 10.258221421048153
Ge 6.0813230596498995 10.54628795491675 9.453919496425726
Ge 11.957338004968136 12.268772459678791 9.17598292873502
Ge 11.544049601494347 9.666656772919632 8.505190522117818
Ge 4.704364145701248 9.133820550916262 11.536329011550961
Ge 4.176112751802699 12.81551785506894 9.21076511416827
Ge 12.634936126337925 5.941888871410201 9.931789585852819
Ge 13.09606956815461 10.73946574150936 11.083246585497385
Ge 6.519584754476169 7.434541227483932 10.71674899771126
Ge 6.832544251637646 4.858123548449891 11.424996281561693
Ge 9.11633784650956 7.279776652370806 10.214067631170161
Ge 9.541626174410423 4.752931691860034 11.289721151815
Ge 9.338373647594027 12.928091212583157 11.01349931410809
Ge 8.631996947980719 10.285405567097817 11.025445591939388
Ge 3.297636082496141 10.225640023566045 9.48688277942894
Ge 4.85153309772091 11.836957367946413 11.667308122529127
Ge 11.17741956265126 8.928228816036727 11.121761398380391
Ge 10.915300297745416 11.439780137817818 12.491369191683972
Ge 8.102307944919598 6.779414553532852 12.854332539478316
Ge 10.799193679778107 6.950179623992737 12.832693280842001
Ge 7.0807174746289085 9.451433988714108 13.11628403402108
Ge 9.737015419308536 9.314464601161001 13.480590237081023
Ge 7.3901680492391 12.135058376872882 12.686933274323493
