5
Energy = -16.76633014 eV
Ge 6.840216077705622 9.461379965746088 11.911408957541301
Ge 10.76517924792627 8.704218498522431 9.530058333122813
Ge 8.471295911432644 9.43390166449552 10.14828991360732
Ge 11.28248669826223 9.014929966488555 7.142922946328157
Ge 9.042774040859182 9.829035920429043 7.769111706726535
