50
Energy = -201.80163454 eV
Ge 9.491072462518147 10.36054926712133 5.067637624321002
Ge 10.514030104399367 7.93062910609595 4.895142711512096
Ge 8.18721319488297 8.534713527713903 6.577138530040107
Ge 8.028916011683776 4.423794204775889 7.106943450727003
Ge 12.41520236482775 10.842068835331002 4.748612580528194
Ge 7.031821681189687 6.40979271183224 5.60700903989179
Ge 8.410247016030647 13.0464542015958 6.063706489179853
Ge 10.908130119263282 12.247224522963126 6.448549903910742
Ge 6.751418691880547 10.786933970169951 5.854537868406281
Ge 9.966168028128072 6.158495709488306 6.826356799114866
Ge 12.030770075427338 9.000258531082132 6.715993652282943
Ge 9.162507560905292 8.064508025959192 8.91572206904079
Ge 5.25650208580762 8.048633927717994 6.733527678122029
Ge 13.737607088249437 11.020088547015288 6.915966491762372
Ge 10.47084048257987 10.372985815890035 8.285304592045852
Ge 8.804651858550203 5.507575965535199 9.41365484748655
Ge 8.382245919747765 14.283309352955847 8.420992824003756
Ge 15.285447487166639 9.217728309563386 8.096321403985954
Ge 6.222631547664131 13.123779237968751 9.624616071033586
Ge 5.587094506553316 10.48246461162741 8.33104818997634
Ge 13.461763289542167 7.311392924872136 8.03067617843135
Ge 5.8075027817999025 5.702441282483192 7.970483277032282
Ge 8.081784178463076 11.503687939044111 8.178901992635396
Ge 11.976679130307541 5.255586977710114 8.28603173003631
Ge 12.35727804678999 12.529378042504428 8.720940216280919
Ge 11.603457844204707 10.860720804819957 10.672085973840787
Ge 4.819808617436098 7.988294542557959 9.353455170281098
Ge 14.384815820415408 10.681498889565933 10.104907530580364
Ge 6.750505651011512 6.647006666686334 10.535129561270757
Ge 10.379177087586173 14.440599930595862 10.21101769628549
Ge 7.173735699696723 9.260567542969262 10.151665546868061
Ge 8.763084681159247 12.307192485741536 10.67921489761161
Ge 11.660585531795077 7.565557206889185 9.907364345555905
Ge 5.720609597401771 10.229912801366266 12.077388160878126
Ge 14.515379177601407 7.937925989978349 10.449786292858414
Ge 6.694943685646737 12.942290998936794 12.320657769624457
Ge 11.133585443075086 5.048998079077073 10.703961925863046
Ge 7.737673784101349 15.144413799760855 10.913457003107553
Ge 11.663974963701566 12.766299711745576 12.468721453552106
Ge 6.9884608462570155 7.9939101242738175 12.855218184591433
Ge 9.592032656182512 9.629904796923961 11.943496158139551
Ge 13.357956883179746 9.676465105404958 12.230900581379348
Ge 9.577628769604127 7.087429958767505 12.43466723634807
Ge 7.7454529846504245 10.646259513216645 13.728959215455932
Ge 12.59348675648264 6.905387784991324 12.346383057638203
Ge 9.273058296307944 13.977648083695279 12.741466648168469
Ge 10.518436313272767 10.98956799116682 14.027132654080804
Ge 8.690703996582107 7.949140640841576 14.964940571991535
Ge 11.20535685556985 8.45154258942358 14.085810329799623
Ge 8.826188606166708 10.406614675033923 15.956022085888227
