54
Energy = -217.51280862 eV
Ge 6.754905827744192 13.282106559664445 11.703616811161169
Ge 6.362851715692191 11.050043831756776 13.526413746146432
Ge 5.7776938729058545 12.59045552307254 8.997228521888562
Ge 8.83848443958863 13.327634706139248 9.983477318330955
Ge 8.81014866317142 7.983384378792101 8.754549305201985
Ge 7.242858095225915 13.506769726913467 14.546067745156453
Ge 5.154937543836588 11.02917874651689 11.14600604667016
Ge 8.977205181131602 11.375872019493745 6.9302115964171245
Ge 9.508747546231676 5.230318992932251 8.416664291747015
Ge 8.132746089176344 5.775412637628116 10.531224392556451
Ge 10.818387545199341 4.554845969766461 10.595340004717604
Ge 11.516594446676446 13.735149883414266 14.008740041200157
Ge 10.934682205100277 14.94964164571384 10.80945124596639
Ge 9.59632577663489 7.824577551388512 6.235198823249352
Ge 8.76977438062927 9.664941194698637 14.01888038278947
Ge 9.883206608261942 6.085220695398266 12.443447122662352
Ge 8.77652825842009 11.557038321141047 15.82495162209591
Ge 9.863829824124359 10.055669448595877 4.853340128375315
Ge 11.112844930485208 12.247025524747547 10.900179263436062
Ge 11.36801811901907 6.946649786410809 8.465999770971322
Ge 9.661755751946957 14.029408563639404 15.905942597889773
Ge 11.979401887841508 7.093996992334927 10.898088281226343
Ge 6.359339156717637 8.648910837107643 11.640809714261989
Ge 14.65269160422019 7.227286272487345 10.780104914161317
Ge 13.531366057523469 13.63940372218724 15.696419019736448
Ge 11.464682135477137 11.800277453555147 15.852816500911244
Ge 11.17963865774301 8.777621460183942 12.919168327171107
Ge 8.922713094270577 11.95389782946315 12.795607349062655
Ge 9.008694915301032 8.466157119035012 11.311102744741495
Ge 16.413294018116467 9.482396857257713 10.612102330738468
Ge 11.078012558455072 11.135017261086002 8.488680490176526
Ge 16.48040788226137 10.969799492952685 12.870534110124725
Ge 13.054553259226365 7.468983032546264 6.630818032785925
Ge 14.589986054207548 9.097450922069202 12.62615261304618
Ge 14.42224138905081 11.456330755826384 14.524606356105082
Ge 7.723879378995633 10.659931844006644 10.185653255579629
Ge 14.403521660438749 8.530223676889161 8.52476951989776
Ge 6.94419470699845 7.056529205267443 6.850106613539649
Ge 6.056976595336149 8.291952720722714 9.022665388412054
Ge 13.091552595934028 9.770380296239868 10.436334265218616
Ge 13.895095037600376 13.535934398225317 12.884181013772906
Ge 8.672740061344532 5.368403220601142 6.003470776497274
Ge 12.157766831992433 11.23338873499506 13.29882885169485
Ge 15.263749884936592 10.965636552223115 8.4554409131416
Ge 9.239235253621208 14.61775186866977 13.063673762701328
Ge 14.86479804638045 11.71504459463398 10.925388142847124
Ge 6.590434235399254 10.453428002961672 7.786545718021026
Ge 7.304147073664121 9.341694741458385 5.475532510397521
Ge 11.990852386906298 9.78502059990895 6.421665559791655
Ge 12.360145382876688 13.64025757783317 8.822060677986116
Ge 13.254052281554031 12.006820869830513 6.783166351163538
Ge 7.889672183484855 13.689833281426916 7.519782916320188
Ge 10.844626556003945 13.266112780429447 6.599706550507323
Ge 9.993857164948414 15.229333342105095 8.260767202952572
