54
Energy = -197.78741313 eV
Ge 11.740467646011595 8.833542669122997 3.5299155759403873
Ge 7.324382551649678 10.49513535733428 4.863591359535265
Ge 8.656125150980568 7.341431347229126 5.307391232967995
Ge 9.940501383117684 12.81274921168628 4.577149655372126
Ge 14.587133474859034 9.910031941317861 3.981316866197229
Ge 12.307148454261016 6.587118937394708 5.535640844969942
Ge 5.694738890617966 8.016482727904043 5.524066173947907
Ge 15.11090424998171 7.632813379025158 6.013520983413591
Ge 10.450275465670547 9.909160575449672 6.0456426606865
Ge 7.2529253501839825 11.760850743806703 7.626087362587105
Ge 6.239839543070941 5.240214763652801 8.658980010007134
Ge 16.30379365200945 12.607956270717876 7.057660046331565
Ge 12.668972943886766 14.165408153062206 4.795511784556441
Ge 9.153020343538712 5.753347774053235 7.903322845185062
Ge 7.971572925888963 14.399271652810672 6.264667843222292
Ge 13.54907890038728 11.67257799457051 6.243670968637939
Ge 12.768756849843106 6.027988217455 9.039559043962392
Ge 4.494743090819839 12.79836690276102 8.394161503647918
Ge 15.504122683000162 15.416115344118714 7.866237450029425
Ge 6.104167394988252 8.26913783891211 8.545259948421661
Ge 13.732169396544014 8.864431493056955 8.460421538319396
Ge 3.3876936708350383 8.434425591844544 9.931271921774524
Ge 9.02982800836213 14.374082924508812 9.16818680227509
Ge 10.301642297167385 7.332633284887695 10.351535749667585
Ge 6.0290639139351665 15.108345635404545 9.73434101927958
Ge 7.075510461094687 6.282984080832139 11.40579713698423
Ge 12.454774942208914 15.442144826925814 7.524111683768228
Ge 12.665597948743272 10.251175261778569 11.776427808489894
Ge 3.9302426865400593 11.261065007820305 10.994929694918206
Ge 15.39539857660297 13.101686498556234 9.926283810348172
Ge 9.969629641629746 16.787757682736228 10.805440480551262
Ge 4.560472639765318 7.573898126813811 12.663157475743303
Ge 10.636249382923525 4.702580176631452 11.911107296302326
Ge 6.423107820238163 9.982386015612443 12.323875181142117
Ge 7.075519276390919 13.345165108044734 12.000797415319544
Ge 15.341223336512785 8.919097788789752 11.20312476314724
Ge 12.805338352929265 15.54832146943205 11.14696032975718
Ge 8.8129395838886 15.481191888606688 13.313079641915593
Ge 12.337186113995424 12.991215343778407 9.514835045363675
Ge 14.783764296595608 5.972783750557786 11.434994273082342
Ge 10.37005877283214 12.858605592114158 13.142567462057308
Ge 7.92797593517811 4.097566753744839 13.328736117559238
Ge 6.020910183521803 12.029597288980366 14.6344735727964
Ge 9.282785760349382 8.209004811988917 13.875330907015604
Ge 7.182500308402308 6.386531773896627 15.220197150281496
Ge 8.838233974348089 12.575875285034465 15.77962338232976
Ge 14.58626728030019 12.0264371376314 13.37521240445437
Ge 12.805811250932413 14.42375727060446 14.0254217585127
Ge 13.640482694771995 7.713549701481728 15.668086594180139
Ge 12.995381242284294 5.266357730617704 13.817870442142034
Ge 8.906203136795387 9.615692835757542 16.526798995782283
Ge 12.412666057233405 10.34177361983178 14.877202963260103
Ge 10.177174876455652 6.023287291301568 15.756200122423367
Ge 11.372113530200656 8.113477443286268 17.696833194711413
