50
Energy = -201.62772704 eV
Ge 5.817692887822453 10.776071158318304 7.134019067187675
Ge 7.673570087901734 15.645827393155916 9.728686188193743
Ge 9.852768334537531 16.546426931845367 8.373435469484532
Ge 8.25386733552337 14.53252715837247 7.352591879162059
Ge 6.1031848040668 10.174695828847778 9.65878871552268
Ge 7.179851978124908 11.952147321500119 11.501890836029805
Ge 6.212245198720778 8.260316195819069 6.846204855216529
Ge 7.9035690768462965 9.037468404630392 11.975008957616332
Ge 10.065970254040739 16.014244094660256 11.045823009031277
Ge 10.898895009994972 14.331398713491202 6.929403333837545
Ge 8.070962372058329 11.134804389236123 5.7956439892916
Ge 8.302760619104626 10.022585038586978 8.249664884111844
Ge 5.547783160388261 6.040891778251429 7.958932026257828
Ge 6.4606323506567325 7.539894326366164 9.749342926577183
Ge 9.666139177518938 13.786697795313431 9.45966853121658
Ge 7.919958329547433 11.152665030715058 13.862874485828295
Ge 12.096918747980197 15.19382316694203 9.260366723139922
Ge 9.310377376800275 7.603908773021926 8.95496922508633
Ge 10.324348271584634 11.656963698148743 6.978044775456446
Ge 9.654565056576155 11.710071123338205 11.122036379378635
Ge 6.887034806117232 8.78791654999238 14.40753327498463
Ge 7.971009427049894 14.47244245594841 12.126896075133198
Ge 8.538551371558365 8.527104247295991 5.907013074229316
Ge 6.323273785910391 6.925637038251962 12.310608334881199
Ge 10.2299761988587 8.187557018383304 11.275819354952619
Ge 11.175346080488133 10.377832476822837 9.42388440833072
Ge 10.48133530554978 11.638168698661659 14.924204393742407
Ge 10.349954356945155 13.508452973721074 12.802053128071046
Ge 12.4300830585443 12.630141424305663 8.692394095671078
Ge 11.784918135957442 7.13454902284612 7.950354530261508
Ge 9.427989212597064 6.005331587444908 6.698020993518506
Ge 11.893245864693752 9.647220674898874 6.864472284212249
Ge 11.025390507273157 7.8736786903252405 5.179135620034436
Ge 8.710774318743947 6.124748491187046 12.557331404953413
Ge 8.008066086591421 5.29339859109116 8.710176602444955
Ge 9.209494078707621 7.810158276475032 14.356274799177134
Ge 11.56697141580034 10.33192613988861 12.842015676483424
Ge 13.813368078854309 9.71662481681923 9.64355836845666
Ge 11.236230992309835 9.104108536050102 15.30093092054908
Ge 12.687716804905593 12.71476542973911 13.820761751124387
Ge 13.193126387067164 11.972474246435198 11.302361941478967
Ge 10.215342024415923 5.27863788121569 10.734164804786934
Ge 14.017783030546454 10.990669117565016 7.415563406812088
Ge 11.802547236604822 5.508157984935007 6.019953050041297
Ge 12.276534562554223 6.717645624228904 11.579924521080045
Ge 13.070046991956197 8.202363408084134 13.688992056368555
Ge 14.42759282585123 10.464919201460388 13.59894055197615
Ge 15.035319239852948 8.372566953011463 11.854859523457987
Ge 15.588845929243705 10.930890446979562 11.276286818341127
Ge 13.893827192759783 7.15402201724124 9.64341772274351
