50
Energy = -182.56199886 eV
Ge 11.20485738721578 5.012768189950055 3.094220768593005
Ge 5.579169612997199 7.949798716030357 2.374783649881813
Ge 8.248245328277152 6.335226148678582 3.1481021181832225
Ge 9.603583769978114 3.128001598490967 4.782110970532878
Ge 14.92702986471369 5.849637096549322 5.785160369573481
Ge 10.703083495017614 9.389036379288052 3.2300050937235802
Ge 13.256787714905602 10.161571053122989 4.809184609015116
Ge 6.4867095876129435 3.9788699191404993 4.196146945189463
Ge 6.704203205591139 10.327209036746181 3.9489050394491962
Ge 9.117709023136937 11.998054703747659 2.889668943781352
Ge 12.049693467097464 6.7817977092006245 5.4534468830348395
Ge 5.383467958590735 6.767455932631678 5.194606740089458
Ge 12.227336595489383 12.873372814611617 5.860544758873797
Ge 12.567127421741006 3.9762737161967996 7.0443084255693
Ge 2.6105487964075023 5.792948487527074 6.01234709591405
Ge 8.730527523298809 8.430248341724498 5.374697170158656
Ge 2.8299924960235017 10.476127117707708 6.305346031105386
Ge 5.480779292854622 13.857488865100676 7.160674565969193
Ge 9.435608787247592 4.949256679962452 7.269477636710007
Ge 15.492000279143662 7.5864942464787095 8.096752945651769
Ge 9.294582057555234 12.295570176578812 5.923936321774501
Ge 13.362436724297282 9.808594619352439 7.8384058960938665
Ge 6.506556423526433 2.951251886294357 7.0822441669496605
Ge 9.428276991201159 14.966253836294603 7.506583614667206
Ge 5.733407899105051 10.828517734079467 7.209598649885499
Ge 3.4073184036707564 12.226876561922841 8.732238567926869
Ge 4.4504117809344645 6.798224555743738 11.790867168052968
Ge 11.374743975205716 7.626523669489291 8.920416878838529
Ge 11.572976726930698 13.227773134283376 8.88364180371719
Ge 3.797505408484117 3.9306463133950165 8.124092250023779
Ge 6.296061981776562 5.515597986087344 8.885340758100988
Ge 9.495239350928836 11.06856299934982 9.559636084680708
Ge 7.422661086945155 13.814176981782042 9.447891750395202
Ge 3.424523735015625 7.97928938805478 8.001514259505422
Ge 10.443704791559767 3.0223274922207697 9.390567998771232
Ge 5.891518782592411 10.124332318854439 10.799114988609125
Ge 6.7742655186201635 3.194020739903868 10.876176526318671
Ge 1.749749213231316 7.595327131188816 10.543434705902884
Ge 12.04282255904967 9.649374272183953 11.051589798452135
Ge 4.80520857451748 4.046242379487908 13.061874042443456
Ge 8.61472622387178 7.018845696893451 11.382000663581163
Ge 6.350846577201879 12.276361436350214 12.8467296890773
Ge 13.535449804248005 5.513936370262992 9.55048437743885
Ge 9.395362814759972 11.805102928920746 12.518036091090895
Ge 2.9012023865178334 10.221690547530622 11.628634259183846
Ge 11.010467573983398 4.986445549119775 11.526390652949665
Ge 3.6273892359766085 8.582797862082476 14.141538694835429
Ge 7.793683017996749 4.717262936806012 13.29611070563988
Ge 10.056268295082203 8.905979730992476 13.320555543444717
Ge 6.551333487115581 9.42961902084757 13.879025339889468
