54
Energy = -218.53064777 eV
Ge 4.051486265885461 8.325205721013416 6.449546430514908
Ge 11.893810185409064 10.536439525037014 13.93119896819259
Ge 13.296736505429593 6.260600465114587 8.574793844120613
Ge 8.917874583804384 6.008574830679905 11.899136925439944
Ge 4.044557181514251 4.649791031536691 4.639583459230222
Ge 9.920091513610098 12.861291074716968 5.660259379971367
Ge 10.19504109090249 10.284466247790684 5.388518740068716
Ge 6.6969387552775 4.720398376558541 4.330100558861137
Ge 8.946096092049228 7.039252350791669 9.232828370832408
Ge 6.187790134316919 9.568903105885633 3.9217926292040692
Ge 5.09613238590695 7.320472811916526 10.235379426455795
Ge 7.288968917965933 14.216209123163297 8.971568861190793
Ge 12.083571682088827 8.426350835032896 4.878769044550304
Ge 5.023682359117624 9.570244224921945 8.651324972048783
Ge 10.734560112315403 7.964246000244497 13.26770781674225
Ge 7.967318458063795 5.697746129802207 6.495918052503745
Ge 10.044253737259016 13.703795207702372 8.612586749627324
Ge 7.930686554669999 7.17873092147241 4.162421459437714
Ge 5.671233773872888 4.0404391022384445 6.7271613793551195
Ge 9.119219132072331 10.089338455504592 13.949906725576021
Ge 7.917803790395603 11.546218155539318 4.420134559073643
Ge 11.112393682725903 7.3510949337934575 7.252553379428009
Ge 12.057773692394019 9.683966991918705 9.072386219426292
Ge 7.8728778401775195 12.000577942854502 12.679744726466023
Ge 7.777718973988572 9.900512346467723 8.601494338612552
Ge 5.462864874952346 11.34682931921723 12.246406064624427
Ge 11.42900151211506 7.68766104246483 10.657448451319965
Ge 13.585794858446187 8.574765423319972 7.133266861446981
Ge 3.4810512261658904 5.855047851283669 6.931618988467404
Ge 11.57548329571054 4.663266663076297 7.119905032583988
Ge 9.013079611984745 4.338536532958548 8.493330320376838
Ge 11.122890773387226 11.156357825174087 11.377489366564987
Ge 7.946134340071017 9.116526854592854 5.940639205938731
Ge 5.975726916307324 6.928914636400463 7.689391594810873
Ge 7.871623499206502 7.589514908670451 13.742232427079388
Ge 10.974009368197853 5.169709620828353 10.099334227650552
Ge 7.716333323527047 12.427335809485758 7.15852866222215
Ge 6.432341540118638 8.975034372842284 11.98187584451966
Ge 11.662563470359407 13.768609531489052 10.996215401769616
Ge 7.060733798884118 5.0423494806146545 10.171928099032623
Ge 10.690474265665282 12.956361586803737 13.379109019499023
Ge 5.216655756359262 7.0364397517893496 4.440626686780808
Ge 8.973837058826845 8.967614737979861 11.378395417033106
Ge 13.381229050211061 12.005472357776492 10.047175775497973
Ge 13.439025409466977 12.454863429353683 12.692785104707017
Ge 10.089417996159073 11.055013477857791 7.891238604991418
Ge 8.77123191182209 12.276179082350806 10.305828370875023
Ge 13.453305178990748 6.124313303714669 5.911452137305078
Ge 4.506949395324723 4.926592598096624 9.120321141137712
Ge 6.089213970184376 6.028431585298624 12.353346975156283
Ge 10.83595843227445 6.030441059685438 4.943078906045172
Ge 6.205233435082426 11.910324212424177 9.788487420595057
Ge 13.479894116773798 9.858056506786385 11.845193308725456
Ge 5.799743770900597 10.874990084654142 6.246953125001709
