5
Energy = -13.76042553 eV
Ge 13.352468723448204 10.034415572785223 8.99580530590201
Ge 12.542814644934907 10.819409175861036 11.137999284451187
Ge 12.026516343827044 15.241931716394964 15.06807763662419
Ge 9.574098693201893 14.962296045626658 14.861415999101533
Ge 10.836194006313049 13.624946082976537 16.52121914482618
