53
Energy = -215.12792083 eV
Ge 11.950554508179815 8.479230609555957 5.452512980990212
Ge 11.084104100826998 6.858856413097569 7.907584729467347
Ge 13.749807130067488 7.396054352139518 6.975704735828312
Ge 9.363056851197463 7.93203303057277 6.142273012788177
Ge 8.111457917809565 7.151332689569041 8.479143629544954
Ge 14.729665657098307 11.672138932572093 6.6859006246415715
Ge 13.419112053188151 6.663452535541024 9.555034123632922
Ge 8.811345909219462 10.40128397895807 6.731197798581763
Ge 12.624051914034109 11.099515433792071 5.078687674347541
Ge 14.47707313897376 8.87525435078652 10.334432768951617
Ge 12.774798173881534 9.9616955060918 7.581021777838791
Ge 5.957693418756583 8.207364321293968 9.732568146609085
Ge 6.3332173517422685 10.742614133771296 9.490377357518394
Ge 15.343834834644182 9.317261466855781 7.865962737484408
Ge 9.214028182272251 5.44398368520087 10.07377282447676
Ge 6.462173862375803 11.413218034442872 7.044580448939031
Ge 11.55471973326267 6.059665623764253 11.316018115246164
Ge 10.325907116497369 9.264920058343929 8.589700794092575
Ge 14.117231231054175 9.47173582922827 12.916651849751226
Ge 10.173438761576893 12.18237686909587 5.458921563363993
Ge 13.8160861297144 12.551060157488532 9.002523461363142
Ge 6.978675315976604 6.052535544548761 11.348753275873392
Ge 11.876153472078741 8.737770154339362 10.94001152391332
Ge 8.433666174088946 9.038538121302434 10.419452207499557
Ge 12.597739299505854 11.467903108016205 11.060089840582402
Ge 10.379528977751711 12.286244680827323 8.302104499573593
Ge 9.256936060429743 7.329519277815806 12.255635066540089
Ge 15.359085639859885 11.312689467238961 10.96933720998632
Ge 12.597394796733324 7.375111228371257 13.404913049866916
Ge 12.289260561803314 13.346739633677661 6.776979849317955
Ge 13.076301096375927 14.827286147564527 9.893316889933452
Ge 7.938481078860821 13.278581627274333 7.946925528710038
Ge 9.693033385334978 14.648631194271243 6.621702277392281
Ge 8.568382798377003 11.5640291058232 11.136538427789459
Ge 6.384356340884233 8.705690034980035 12.383125965910441
Ge 11.050748301906637 9.292799164831996 14.06091410416618
Ge 10.509017869955438 13.446691938279058 10.912850769610209
Ge 14.08728731290857 12.238480154483407 13.19180782709127
Ge 5.798937107294739 12.302397421338284 11.467239875473203
Ge 7.194026460185563 6.7697475336011 13.905817516842648
Ge 11.633705139664544 11.844366245729343 14.328875617264496
Ge 12.737985150581533 14.29645472537934 12.33419334037079
Ge 10.664606298126055 15.302203275374314 9.047238374202847
Ge 11.770048935071028 10.0160747520275 16.476329079419358
Ge 8.481036795329738 9.065265341355198 14.393203157024441
Ge 9.019574209267496 15.855523526624925 11.074642467306115
Ge 7.523209468213481 13.902314982160108 10.356346375803158
Ge 7.356553712503954 11.22032900439214 13.345699937370357
Ge 12.29330641878335 12.488123020526173 16.79042965681656
Ge 9.204866702339606 9.53452482669856 16.85833189595535
Ge 10.333293343488268 14.898433651854493 13.159663913563707
Ge 9.190726662522794 12.827264627517017 14.24007414217231
Ge 9.785974921636205 11.982216756540367 16.606842151204408
