52
Energy = -209.88965878 eV
Ge 15.696063321521613 12.87997237186924 10.100349867668289
Ge 12.032966172894254 5.474494936232407 13.926000468258728
Ge 15.220773235979243 13.137092995459046 12.98148874353237
Ge 14.310055865030485 8.68399566344001 12.803776289253122
Ge 12.35607356300258 9.786135050763615 14.05224765556499
Ge 14.730825813778374 10.954332334266256 11.692894132976203
Ge 12.184275625879552 5.363212491873525 11.114618946785813
Ge 9.623410579748557 5.219873264213482 15.084788051991536
Ge 11.235744548082888 7.5851581167722495 15.493879664653553
Ge 8.263151272308054 10.413689938260372 15.03228119493361
Ge 14.712843399152856 15.11348911781734 11.266827846508837
Ge 13.100515518671086 7.743504683269962 10.749080264370003
Ge 12.6262457147619 12.173551507921385 13.046964135236127
Ge 12.879269299800129 6.665053026586496 8.393182648518813
Ge 14.44895251290291 13.08937279860529 7.49495990144487
Ge 12.745026879229528 11.416267108497912 10.213524871857974
Ge 13.086915571189646 13.848697187516803 9.727773661454048
Ge 10.253971246284044 7.284418368860587 13.024482185549624
Ge 9.912136864078677 4.642990714532863 12.427657488884478
Ge 13.015005979399488 14.69604613056207 13.338866767893066
Ge 11.377853587510124 9.419756538431717 11.654740480365742
Ge 8.539762393204937 7.758753991502158 15.228811826427865
Ge 12.849582863437465 11.092966258262539 7.643733325787243
Ge 12.084905613087153 14.239532655441112 7.271685485356298
Ge 9.738963380586691 6.0271176993864595 7.040319227366058
Ge 10.275035531584308 6.458136241760642 9.547956225941144
Ge 10.83564792973601 14.896525721754989 11.864442083467981
Ge 10.924397013220075 8.578509632964161 8.07805286981836
Ge 7.753128594104438 6.0547439375370065 13.209222201707428
Ge 13.209198078512333 8.71614368319794 6.65129998161361
Ge 11.458739000746204 10.378430121789373 4.903220621545317
Ge 9.09876689734825 10.97651602533669 12.694577094480989
Ge 9.900099800325318 10.936344866645946 9.256929193832447
Ge 11.243035695529974 7.5508221530039785 5.459197510456355
Ge 10.572535834440341 12.11632466078087 6.830726802280886
Ge 6.190548494849927 10.864217338963847 13.408147088537286
Ge 9.356371776354614 13.368008579827181 10.26346052805864
Ge 10.78855871869839 15.516073703302865 9.262252622758279
Ge 8.536583077107476 13.77676624163151 12.949835634077875
Ge 8.843931320161143 8.592742902893365 10.618713490338042
Ge 8.597750779036375 8.281703616800517 6.71038363401742
Ge 9.32376590502477 16.370182086489294 13.353548022794232
Ge 9.45619292233326 8.805242101308517 3.9640208522820357
Ge 8.24900389340397 16.485547146703944 11.05118465405926
Ge 7.262502690877473 9.859986731075121 8.94663178332911
Ge 7.378665314304303 8.714884134382029 12.821301395717871
Ge 8.692715062766998 10.628642912956893 5.5549141149301535
Ge 7.98405700140465 12.101941449610194 7.6349366615675285
Ge 7.054148359990271 11.414182902862242 11.019455871676241
Ge 8.151787903572528 15.21550810829721 8.75891486903587
Ge 6.691420734561103 14.060339206178956 10.713190763287384
Ge 6.651787181459543 15.590789267640925 12.898538770640071
