51
Energy = -185.47011121 eV
Ge 7.767341855945769 7.8858738134477475 2.309844709539071
Ge 9.242276371127879 10.486999650798642 2.9299073842149252
Ge 12.017935369093061 9.253141420316021 3.1824673782725545
Ge 5.057244229812789 8.819954629759328 3.37415887051371
Ge 9.98735843472827 5.286391896244211 3.775262669200818
Ge 7.092079558480151 4.359033558379728 3.7574347470844147
Ge 10.546346493456731 12.821027102776167 5.69176737585829
Ge 12.811990808353162 10.754879644364681 5.753423149940005
Ge 5.845170425055276 11.53739419773034 4.6051089648266865
Ge 6.935188399411073 7.1531837406230885 5.145661581337982
Ge 3.422527811443139 10.760845992341803 6.3128258883954524
Ge 13.643459828079504 6.0139558425541315 5.8848145933225045
Ge 3.167115422273508 5.986829072572159 7.381797916328534
Ge 10.979369421627142 2.450542725504366 4.601315974812546
Ge 8.143585227428133 2.383391650587944 5.919039201076566
Ge 8.48075708301767 10.528986935621115 5.872252582298915
Ge 11.237760468929352 7.9850826201022995 5.806923928731969
Ge 4.614729663484907 8.563974813191615 8.050714776910052
Ge 9.680031143793299 4.835983751567605 6.883732766298103
Ge 5.747720167978784 4.429249801316005 7.903392090437554
Ge 13.121376129161057 10.895348194958506 9.262575710564253
Ge 6.341981569491186 14.666129845706708 8.265100059652566
Ge 3.428011818249214 12.252915969951507 9.017707103471624
Ge 14.19079889743338 7.7844951187851565 8.337168403956271
Ge 11.471495525511278 11.637726626811741 11.844382282480067
Ge 7.753787007492029 6.624491802356644 8.800499774032259
Ge 8.97863530391187 15.428380177950999 9.490002232441194
Ge 12.439453198910261 3.511869514861874 7.1332788216686405
Ge 12.772761435084053 13.802684811575903 10.128331512681509
Ge 5.349050383264321 6.985556227634434 11.251852401181756
Ge 15.666750622930723 7.186561305991781 10.982466123861226
Ge 15.701892475035221 10.24247407666259 10.967094063608386
Ge 6.408972444714379 11.878973307900209 9.654891346364474
Ge 10.21681156081157 12.785814837140283 8.741875418367249
Ge 8.173297203905976 4.296221480179401 10.665993959054338
Ge 11.51891299979182 7.670787120804596 9.933869492322424
Ge 3.6171434968617073 4.732553050573252 10.124006437087111
Ge 2.317218987433366 9.512772523299756 9.849454810892123
Ge 5.965916617500786 14.477550080812632 11.315438016636813
Ge 6.846289159488695 5.327831393236394 13.413842718600216
Ge 8.860508372484233 14.237948282335022 12.390562653960714
Ge 8.751577965577377 9.011658692527678 11.763182680030969
Ge 11.197449689885417 4.7595326451460105 10.952118997971505
Ge 13.875257765838425 10.359346438130586 13.399443657486815
Ge 13.073682521482205 7.511953462963098 12.608481570218043
Ge 3.352826507337673 8.879971079252487 12.665039241869922
Ge 5.202828542284686 11.360688631180597 12.608599175319528
Ge 9.820817179730886 6.4181805168230435 13.183794566147705
Ge 7.640631746519964 12.100110507908674 14.330167605774477
Ge 9.622193202003261 9.747587555390284 14.598953860416021
Ge 6.832705583570369 8.546185958566527 14.109002849695766
