5
Energy = -14.54133213 eV
Ge 11.446011881686601 11.341247740992989 12.056491773156738
Ge 9.811027302000612 10.32269677833757 10.845309792764928
Ge 8.112004867831185 9.330834934390865 9.72967094123354
Ge 13.091856656692626 12.255997215317683 13.335633498472584
Ge 14.676578515350624 13.17723183360301 14.657112252943666
