55
Energy = -200.87036788 eV
Ge 13.754044374362557 14.9432767688473 12.281762960600126
Ge 7.5703681792695106 8.606352780953618 11.60550897391274
Ge 14.109883415552481 7.446617802471411 15.623752872600289
Ge 6.766091906408433 14.74847598334291 16.3091092866454
Ge 13.735735445389427 12.302062885487361 8.996198699506936
Ge 13.09878297147173 12.474006556242651 16.920139177364444
Ge 13.411227676161635 18.62027114990294 14.559026712977309
Ge 13.218484732695961 17.90273224702791 11.539237485451
Ge 16.317816400304835 17.844421346163752 14.798420052624502
Ge 14.4187687576738 10.29578799650947 14.431215936581369
Ge 14.285373385360193 9.78260521556389 11.376635422085998
Ge 9.72656197719815 14.242242091703837 16.773014229761447
Ge 5.827671691813395 11.873630505444494 15.911119299977504
Ge 16.764303220200038 12.69838819507348 8.910830782279433
Ge 9.053845140845135 12.25377927808894 19.05746784146067
Ge 14.281301503507374 6.800451530800979 12.00809847659796
Ge 17.288476789075258 10.246444983690342 10.721050519613408
Ge 18.80393648532379 12.073169948666239 15.045086324674545
Ge 10.020581765169359 11.779668967857752 14.930333913457892
Ge 7.782771582089588 14.57278723420164 9.715948706532842
Ge 16.98113384037607 7.396098203542322 16.653488952460453
Ge 9.961558460166454 15.30094230214818 13.11599345406872
Ge 7.8312550267342145 10.956984650265351 9.681713407722558
Ge 12.835677620914392 15.67499702461868 15.214966762913988
Ge 11.329471758268607 7.059916614954228 12.696033592809751
Ge 10.665053135721495 12.391260574641127 7.15996822905382
Ge 16.129917087605424 13.5902531176781 14.931206698040832
Ge 18.528977313216537 12.672371486966181 12.091643910387885
Ge 16.802617404148474 11.0174274795899 6.302447743236492
Ge 8.300263978468848 14.295472123777897 6.6634434770497215
Ge 16.730572606182943 15.495254470467783 12.60578280763631
Ge 12.134731009103612 15.96413814018778 8.932568658219845
Ge 10.008499031245593 16.819074646505733 6.9596323159307225
Ge 17.34387751420221 9.477792323247378 14.394375808019367
Ge 8.380055561365745 17.586432358396806 9.425509519155307
Ge 7.474267940304333 9.019293233098217 7.328688538644667
Ge 10.61259887055402 13.735040344962874 10.46996386106348
Ge 11.288305669009624 8.458437378917946 9.02180128110862
Ge 12.346712879920872 13.500390773537092 4.8729285746202065
Ge 10.158683653386575 18.08178713857248 11.91610234317842
Ge 8.633663809082838 6.906979356377255 9.219218118528836
Ge 10.24760237493011 9.513832761607883 6.198884578164914
Ge 10.251094150315113 10.088344696582904 11.551980286216851
Ge 14.14778706749989 14.605342548273228 7.001917855217482
Ge 14.27011394231846 11.130578788430965 4.600056286553812
Ge 12.06685705578689 5.627333628262251 10.230452290453526
Ge 14.198631695878813 9.745111366758193 7.277250438426669
Ge 15.680608591092156 11.24578983737147 18.082047306646505
Ge 7.403027177981294 11.920748640497596 13.270865436711043
Ge 8.22603253865383 10.268077971805813 16.923769388853223
Ge 15.40350222285542 15.850688088359277 16.888013438501154
Ge 6.914609561226793 14.93840257660993 13.22123543209458
Ge 13.734317623662106 12.835752579049492 19.86683615185369
Ge 14.797515399070472 8.387986141940281 18.500630760679964
Ge 11.734935314395292 10.725049449475124 19.00518090659106
