54
Energy = -197.14929399 eV
Ge 14.34252335525358 8.336180092922428 10.747934329255381
Ge 11.340319214777166 10.209201142246004 3.667182948961897
Ge 12.403524546909905 11.670985024469312 11.436028122866652
Ge 4.453193951818077 6.777772241293668 11.618858956569996
Ge 7.957332837844035 16.02366162328901 8.576923146915961
Ge 13.442312984972759 10.57541036726395 14.107383982635136
Ge 9.897612867930933 13.051096566748662 15.382885162654818
Ge 5.536535188624864 8.972555204246602 8.79264634836837
Ge 10.851261794909638 7.034459627173328 13.200659041074019
Ge 12.029886688416845 15.282831771382861 5.83046303747131
Ge 14.702966022072626 11.824905482510633 8.417057196923073
Ge 10.974101480017461 3.417496546172347 9.55493221448306
Ge 11.356835923747724 6.447021367261192 9.751934758967066
Ge 14.946400221013246 11.989358115386974 5.301234064935192
Ge 8.96988922726217 11.33195705018393 13.046933196391416
Ge 8.753148411811631 5.951997520745885 15.352612170866902
Ge 7.359478342222661 13.600352798507048 4.9384368262372735
Ge 15.492971204209438 7.325435637478273 8.052777063330728
Ge 13.277726840322849 5.292362494524942 7.548620580208821
Ge 9.41303567627307 2.8123356904851526 12.159914808884688
Ge 4.967419092839912 6.01294585864119 8.638753346962174
Ge 13.84867567550409 7.529712038777639 13.787657437185025
Ge 3.0784388508631277 9.336463955259363 10.569268074585441
Ge 8.620530510667997 13.440604997039497 10.147064837810245
Ge 12.353332982172407 14.306921535246195 12.976718162162221
Ge 7.804792030572738 11.505682361017714 7.124600086458375
Ge 7.4053655623520065 7.299821535947427 5.306455676995263
Ge 7.350132017082637 4.811748941971372 13.015616179324537
Ge 13.133986342461915 9.229399207605939 7.775648681655324
Ge 7.52652375775669 9.906796538660307 16.832640739040233
Ge 16.654152314907407 10.32394065213053 10.366562353795512
Ge 5.660281392816205 9.779701772120015 5.815994989315212
Ge 13.989531509840198 9.11836149894738 4.782068946321403
Ge 7.052856838421803 8.290995379490623 12.327553216484604
Ge 11.342557932004075 6.028675831045057 5.257178137504864
Ge 5.698111380049296 13.359620473877317 11.097781525179641
Ge 6.889534722775335 12.318163017042894 15.09913347991934
Ge 13.508874708516117 4.8128346742166785 11.07063726110472
Ge 9.618006761405137 15.462278720530618 12.2567487849256
Ge 5.059962686765106 10.711337238234163 12.504574480114202
Ge 7.97837653220545 6.428922508972499 8.218878856891175
Ge 11.753064251259985 4.151167927894629 13.569716564260176
Ge 9.418593118668364 4.157291233563755 6.807662126374017
Ge 10.282878183938307 9.968073544838818 15.457117743618664
Ge 13.785807545211012 15.862643121616602 10.687103040043228
Ge 5.525583339389099 15.13090132479382 6.868055234488979
Ge 15.295479226199298 12.236245626636771 12.287603875438773
Ge 6.230245643950051 7.680969609581344 15.211585963178827
Ge 11.070133864483836 17.224000127492243 10.17353950502251
Ge 9.077651645392782 15.98098715655326 5.748767513272921
Ge 5.073770768315316 12.438107584251414 8.277302029649118
Ge 11.761424681983936 14.593170791825445 8.810204083820446
Ge 11.983481605286023 12.22371643264222 5.960289482163408
Ge 10.004165744967262 8.715200418678826 5.988879628366702
