6
Energy = -21.62631951 eV
Ge 11.115993743838887 6.6155851930728105 8.700564856219291
Ge 11.087451874703227 9.077533413953121 9.199490627157678
Ge 8.806354055676396 10.161579463275585 8.719860306463092
Ge 6.630639607340748 11.131048158107065 8.700564856219291
Ge 6.659181476476647 8.669099937226756 9.199490627157678
Ge 8.940279295503482 7.585053887904292 8.719860306463092
