6
Energy = -23.16943878 eV
Ge 9.193994892554931 9.614614242028617 7.744476863871176
Ge 8.12247262974665 7.515352667716258 6.8176677334507705
Ge 7.937842883312292 7.487980481230455 9.346252900594347
Ge 10.420323286582528 7.633174872584731 8.766022578536585
Ge 6.764788309286404 9.601702361772501 8.509458857841764
Ge 8.999443985401722 9.61477949478479 10.312232233868384
