6
Energy = -23.1705631 eV
Ge 9.83791329915096 8.117287952447832 9.9326628021153
Ge 7.81954199440917 8.684343283850316 8.463809294977514
Ge 9.149047198744793 10.813149092351175 8.963040755200877
Ge 8.241306818660995 9.740489283360445 11.098009781210257
Ge 10.616084945608488 9.140385368199905 7.729063585363376
Ge 11.080567341011582 10.248038692677195 10.515943575377248
