6
Energy = -18.544962 eV
Ge 12.095299646274938 14.349380924618803 10.731735956611763
Ge 10.888669168812731 9.87247300119787 9.644251573610543
Ge 10.384987436893564 7.971854195763953 10.927783922098126
Ge 9.39084720538962 11.70268750019035 10.607736581742252
Ge 9.75977306272786 6.355231378818221 9.393136528425579
Ge 10.850211966399737 12.881170373257888 12.041565403386713
