6
Energy = -21.56318645 eV
Ge 10.912222097799829 9.88154519877734 8.458096961506074
Ge 8.94860910954692 10.727621514503019 9.73090778056309
Ge 6.985508417241764 9.879989132151596 8.45811202146524
Ge 6.582546193907121 7.555882052248424 9.140584845993667
Ge 8.947576009100416 8.09312552091753 8.764794055930572
Ge 11.316866660502992 7.555199306431101 9.140832822640649
