6
Energy = -23.17316762 eV
Ge 7.831957171332814 10.080997345021522 7.758312100265314
Ge 9.523901124904036 8.195303868669315 8.004998670948348
Ge 8.626014378288655 9.975251771753355 10.170913681444766
Ge 10.618008639603184 10.412041123112171 8.636719613618641
Ge 7.5771023623697795 7.733952013291694 9.57796299048808
Ge 10.374276692919901 8.127926770384311 10.416343941494604
