6
Energy = -22.54892047 eV
Ge 10.72660799560064 8.465819123119969 8.871632804137676
Ge 9.899895799202561 7.2991540924323735 10.939203706387538
Ge 8.738879092600877 8.640532155683358 7.33234627751992
Ge 9.684535235744137 10.761339480552328 9.058864660734253
Ge 7.235401208097833 10.475363640155578 8.316436974862475
Ge 8.15906706653704 8.707645546403407 9.984927026303765
