6
Energy = -23.17275438 eV
Ge 6.540698402003089 6.9200222937562295 6.197666878261444
Ge 7.88371695045668 9.081007200936586 6.31628664608976
Ge 9.008234598348656 6.3756840958881655 6.572587105939773
Ge 8.161732498474436 7.8072560435522576 8.507503396564502
Ge 5.691312867605381 8.317057863901002 8.154541025792204
Ge 6.839472452511513 5.624140271365758 8.376582716752313
