6
Energy = -21.56439747 eV
Ge 11.303258527180493 10.504927982232912 9.10068128271683
Ge 9.419896866736687 11.80113809225506 10.05447394892642
Ge 8.63157506349523 10.5743422714898 12.02743792822422
Ge 9.453601502749079 6.9783148025251 8.995764696022352
Ge 9.023473055877071 9.13519119780036 10.079552752425704
Ge 10.100873630861969 8.914628336217126 7.624664021181464
