7
Energy = -26.76607873 eV
Ge 8.247524442389869 7.482665389584178 9.729168325430635
Ge 10.95249651377247 8.698120655852298 9.541839078796023
Ge 8.661465012850071 10.052095063669134 10.290030640163755
Ge 9.88419321488928 8.008586589942409 11.671599956735795
Ge 10.662472672866548 11.169043006155563 8.941141860577453
Ge 9.047808535126713 8.954192138053292 7.79194386408925
Ge 8.305495102053328 11.319649961220124 7.876548398915474
