7
Energy = -25.68679569 eV
Ge 8.026384659690203 9.166793461478502 9.50700939798701
Ge 8.211780115254035 8.04508285844653 7.07086918946172
Ge 9.833402800992959 11.39316541810429 9.572530860492561
Ge 8.02250726081232 10.874586245705451 11.248142105467338
Ge 10.199858796107664 9.17499351767852 7.762237788840023
Ge 10.868117110036252 9.02555589149818 10.179116817937587
Ge 9.399678163385703 6.87789289900282 9.2768575630307
