7
Energy = -26.4598016 eV
Ge 8.115725556790148 9.368286568986793 6.594193623601536
Ge 10.49163332331676 9.06031219139029 7.474552741705497
Ge 6.840043637848194 8.48976781388542 8.753933697175663
Ge 9.70944563311567 8.137660657394212 9.765566650080688
Ge 8.640090184513866 10.501479311785912 9.039958452704582
Ge 8.702818768515584 6.8861392038538956 7.605265449987476
Ge 7.631320865866947 7.6411728899327525 10.934417786611943
