7
Energy = -26.89555541 eV
Ge 9.559799687958316 8.743179564777728 10.543839796269191
Ge 7.992851846802912 7.368709099734674 8.401062638285127
Ge 8.400140402602505 8.438226690198206 6.2607532025228245
Ge 10.164121217270877 9.313240221364977 7.678256869214807
Ge 7.424446358273567 7.612335401244217 10.751248043846218
Ge 10.7761669994618 10.635839775730073 9.629399603391963
Ge 7.827444327876076 10.062835235308176 8.887430786751205
