7
Energy = -26.76421064 eV
Ge 10.878437066876149 10.2588223700346 8.836670709596312
Ge 11.033903199495397 8.920557362519915 11.020217491940876
Ge 9.204210631941748 12.08976256468492 8.829378297914909
Ge 9.57146730156071 8.027389561054433 8.59291131061705
Ge 9.06453959108745 7.23487713171492 10.892139548558731
Ge 8.108625185805767 9.977129636710355 7.802918706853545
Ge 8.643688499593598 9.899466121593946 10.40220499430781
