7
Energy = -26.7649692 eV
Ge 9.837503185709306 8.541102905339152 10.146500055897464
Ge 8.716374719093205 10.847922776624856 9.144165935871563
Ge 8.646490752443732 8.714490603103439 7.65865627244176
Ge 8.019513086692246 10.15408054963542 11.428633245671639
Ge 10.904708730370162 7.684704103049743 7.774530649240268
Ge 11.097582365078926 10.176233764145955 8.475374335875205
Ge 7.215851332062263 8.350752134489099 9.748630963486338
