8
Energy = -30.41114637 eV
Ge 8.613871248435228 11.437705199726357 11.058490126495148
Ge 7.922754643190797 8.80697458971504 10.58839636393701
Ge 6.931860761610826 11.248792275190922 9.216394822237381
Ge 10.565286053193716 9.784157412670615 11.112390462319615
Ge 9.866057127531615 7.876949642712109 9.216120088886994
Ge 9.162463505491752 10.379134210968463 8.579246003641774
Ge 11.637143393460459 9.882317076019607 8.458039902903135
Ge 12.11493243950698 7.397222617936638 8.557170509237377
