8
Energy = -31.05900292 eV
Ge 10.867605245650713 8.073313644368886 8.746171556318522
Ge 12.644193310174694 9.610706841548591 9.985716325047115
Ge 10.38538712203098 9.609909569743449 10.928178298872016
Ge 8.835319604548795 9.609909569743449 8.29252842770776
Ge 8.353735622840459 11.14744916056863 10.474050459629593
Ge 6.576513416405082 9.610706841548591 9.234990401532661
Ge 8.353101480929064 8.073313644368886 10.474535170261255
Ge 10.866971103739186 11.14744916056863 8.746656266950183
