8
Energy = -30.90689463 eV
Ge 11.593455136666604 8.308875731706893 10.088928731260369
Ge 10.61077189451072 10.466630158371176 8.686988159208909
Ge 10.657526271249928 8.011373452361857 7.64927579592882
Ge 9.964977632471594 9.95998699177524 11.295900446769018
Ge 8.88738987634888 8.05577830174291 9.645494490591972
Ge 8.479814366314564 9.424947989080719 7.283538360026958
Ge 8.107483041168928 11.505708199149955 11.885595206084664
Ge 8.03145405486829 10.636590089023983 9.559751728299762
