8
Energy = -29.58474686 eV
Ge 7.331608473512792 10.418080923758 9.722250206483139
Ge 10.688872845108271 8.134733556052113 8.252257545035677
Ge 11.754553251478416 10.195549798075842 7.492977492145341
Ge 9.409101873949448 6.169780353920684 9.070988268176364
Ge 8.874753484026638 12.2532007413732 10.741290745367518
Ge 9.541943386815683 9.99012359556176 11.684488454153556
Ge 8.606982260968117 8.285860840875076 10.082574899487506
Ge 9.869703745872936 10.62751295435232 9.039135561055831
