8
Energy = -29.98030242 eV
Ge 9.042463195155019 11.226508225529631 11.419212605013692
Ge 11.151166639558152 9.393258563512614 11.49079550384298
Ge 8.644474678041984 9.173211795072296 9.86288261021333
Ge 10.59932723258255 7.595796852589428 9.85927937175321
Ge 9.78241710684661 13.07095143904714 9.92772974577965
Ge 11.246724463016143 11.883359163659076 12.491688523002924
Ge 11.817206541102987 11.653189387158621 10.02567168812313
Ge 11.318830121727459 9.595202137740609 8.511363898102607
