8
Energy = -30.08159467 eV
Ge 10.1596758956399 6.634166316432293 8.447566627396291
Ge 10.475341625529301 8.90703370239297 9.636100398289628
Ge 7.634039490020112 6.344258929843762 8.144295683343035
Ge 8.214353833838347 7.8990681169347585 10.225738825685635
Ge 8.904888882532294 8.81270733096705 7.55395168652647
Ge 6.712963777409756 7.64270671091322 6.155390000113736
Ge 6.230335253045315 8.787563405531484 8.63591319603523
Ge 7.034037121816084 10.16941803250801 6.494700938810201
