8
Energy = -30.65067216 eV
Ge 6.932746615458356 8.7373254271136 7.051128182843298
Ge 7.851501858932791 7.0838624014721665 8.738672354289331
Ge 6.93464064075986 8.73740902938158 10.427190410600227
Ge 7.849753264040456 10.391802203044733 8.738626871576741
Ge 9.8206124217065 8.73869296305201 7.375081968424122
Ge 10.348276126686676 6.613178819533991 8.737380124036054
Ge 9.822038572597322 8.738706759196951 10.100304606538407
Ge 10.34618804539838 10.864814179714498 8.737338790342003
