9
Energy = -35.65845175 eV
Ge 10.606763145256979 7.210728224906257 9.239854820404334
Ge 8.986907350019337 8.916003504107124 8.255426901334184
Ge 7.10103081103538 9.425382295070614 9.905820025591252
Ge 11.523649378215833 9.571645150099869 9.652892104372887
Ge 11.332784975908929 12.047858206203983 10.228455092185879
Ge 9.1417088492919 8.346377102060007 10.979855631089164
Ge 10.320851578510903 11.258276587510778 7.900558417953796
Ge 8.891054610489437 11.244546672426262 10.157671688043749
Ge 10.554240379948652 10.367535464536525 12.08461667931399
