9
Energy = -34.50580252 eV
Ge 12.610053506785148 9.04974862820744 11.361072730772957
Ge 11.495391469339449 10.22157715846754 9.229259219128878
Ge 11.622794751811977 7.5650105132176 9.477014087843717
Ge 9.9530703756778 8.744412484012011 11.189001531904772
Ge 9.316499878165933 8.73084895205067 8.521020525592641
Ge 11.135460853102206 11.145454035980688 11.781560088140449
Ge 9.079737756419213 11.039071396857665 10.092978088709478
Ge 7.196793777499606 12.527763578159233 9.746583169338754
Ge 7.197585377730947 10.57028947807539 8.246154622447682
