9
Energy = -30.948737 eV
Ge 7.5694922498713675 9.721169974150525 10.962557634738666
Ge 10.919990873881238 7.822683813259249 8.456169676394335
Ge 7.50878134122706 10.881059053943899 8.153987338461818
Ge 8.339713635607195 6.299984728033829 7.8873701496312005
Ge 11.578289732359066 11.338080093226381 9.907034489472078
Ge 7.034344391864393 8.524546758513548 6.378310477397023
Ge 10.43977816276007 8.880600349706034 11.28614253852967
Ge 7.128089710998958 6.7875739266244155 10.575408416629758
Ge 10.354401305066316 10.566737343150777 7.235927478747289
