9
Energy = -33.94095436 eV
Ge 11.553540793702131 9.65025728732392 7.254102024178795
Ge 12.754247551961132 11.61152665907123 8.234234054014998
Ge 10.353698070713572 7.921276852951773 8.70877790827458
Ge 8.442790646237032 9.42334329008757 9.554374024313994
Ge 7.098376472221467 11.192836000737076 10.655485079012271
Ge 11.212335157763947 10.41724361215933 9.682814554786155
Ge 10.315435074036392 8.620781771161695 11.470868367036504
Ge 9.567972051772148 11.316704840689724 11.57199192609821
Ge 7.9752346730794885 9.13441387015044 12.158593901312498
