9
Energy = -35.15585021 eV
Ge 9.812620640409966 13.963081275450376 11.249820517769148
Ge 11.050139897261829 12.544583273313107 13.055002074454451
Ge 11.455347292674078 12.20691186097572 10.471832883768226
Ge 8.837557215199736 11.612678176543605 11.271871583644995
Ge 12.380768603156868 10.914130917200739 8.517544450852956
Ge 11.314529497217219 7.9572789184165815 11.505582152186406
Ge 10.584663371827878 10.15911587373054 12.42097831867169
Ge 12.918866271273561 9.770664389216877 10.703922305766685
Ge 10.404795399185238 9.582387079758474 9.629439731457733
