9
Energy = -34.24501645 eV
Ge 6.850187428150306 10.30929485404818 12.069624272665086
Ge 11.56566052719909 9.207674319188945 11.097023235640826
Ge 13.386918112781608 11.115343855521976 11.29835983811416
Ge 7.417499921043383 10.61431964550016 9.702767243577439
Ge 11.067354928713272 12.089518053016674 10.802757467036477
Ge 11.174003907252027 8.519793667575016 8.357082596022995
Ge 9.848722970846454 10.463665092662302 9.13606603817672
Ge 9.226340714844982 10.494626749481794 11.768360029112381
Ge 12.718947143455408 10.436337325514588 8.993765302465524
