9
Energy = -32.7067714 eV
Ge 7.915245795774126 7.581539237667601 9.362443915380208
Ge 8.887643309195454 7.220474566111747 7.124971132975114
Ge 9.420133940267336 9.476297180005314 9.614274181783783
Ge 10.866932296660023 7.822670177727619 8.429890727876055
Ge 11.946996603513927 12.362101867569153 10.450921704204115
Ge 9.729326278234403 11.58064192822371 12.370286938221206
Ge 11.459146636508027 10.085271160276852 11.321485276270543
Ge 9.517056175829405 12.006854976983863 9.88561471704709
Ge 11.526317412206858 13.262161413441483 12.780428622643221
