9
Energy = -34.69640877 eV
Ge 13.213970839219764 11.760559263656868 12.643950796186024
Ge 13.116607884364042 10.025176415932858 10.765459229779111
Ge 10.83006659104952 10.92681001181734 12.340290236153248
Ge 12.245795370443311 12.74436740807104 10.512727428079264
Ge 11.055655411314019 10.780461291267722 9.426137848340694
Ge 9.156328704296289 9.824621740086108 8.23717354468368
Ge 9.877845309715871 8.863144264930616 10.983911447075068
Ge 7.521700242410498 9.346773496191206 10.172894478697934
Ge 8.778098770608729 11.487402030377847 10.716241754058824
