9
Energy = -34.35443947 eV
Ge 13.330025256348845 6.840845888711523 9.157588421405746
Ge 12.698147746933364 9.171425665258745 8.996317208221104
Ge 11.201206800757074 7.288476572241362 10.261790569234414
Ge 10.35960390704864 12.647293499693358 9.540063280582546
Ge 10.506894181532404 9.708598601670952 10.10869804502347
Ge 9.766755729030743 11.36182405276261 11.861971349015194
Ge 7.246077019772613 10.81315854293184 11.701931931191089
Ge 8.363463313168145 10.804705951585476 9.3678760475116
Ge 8.177028337598918 13.065506240451342 10.67408549056529
