21
Energy = -42.00205538 eV
Ag 14.702951230969026 9.263494033308108 8.989285879136382
Ag 11.861389518531135 12.344655215220563 11.145676077128057
Ag 12.7564111946837 11.156731121375863 8.786901434089314
Ag 12.978849409072252 9.595353390941579 11.141426353875486
Ag 11.83292916248639 10.742461659338977 13.44910489765083
Ag 13.006429713675328 8.238673965799514 13.549067643412704
Ag 10.779062517381245 13.299199507474695 13.536045987735356
Ag 10.43618584408114 12.678853115454803 8.68973879187747
Ag 12.095986098979774 8.335482333441949 8.660026183870743
Ag 10.594447730225092 10.227906579493673 7.171589439523322
Ag 10.343830958466222 10.109034377752007 10.022296842013198
Ag 10.476589610685258 8.511019100977734 12.4422457393069
Ag 9.225505058931898 11.20620168381279 12.520029903694523
Ag 9.778431592101455 7.337703667753105 9.841049100654535
Ag 9.353884931528212 13.688245161449016 11.145164370426638
Ag 7.837676177720887 11.546031685435548 10.019680917116089
Ag 8.515827763067305 6.564551436631583 12.199800413620359
Ag 7.9524271089745415 9.061826031803452 11.27145307152135
Ag 8.223810951587973 11.715613819849727 7.198396014551492
Ag 8.147397105534719 9.1791007401328 8.419180465265823
Ag 7.98761248481117 14.022181242875144 8.734764412685966
