15
Energy = -17.45908527 eV
Ba 9.66740676 9.66740676 9.66740676
Ba 7.289640979150433 7.289640979150433 12.045172540849569
Ba 7.289640979150433 7.289640979150433 7.289640979150433
Ba 12.045172540849569 7.289640979150433 7.289640979150433
Ba 12.045172540849569 7.289640979150433 12.045172540849569
Ba 12.045172540849569 12.045172540849569 12.045172540849569
Ba 7.289640979150433 12.045172540849569 12.045172540849569
Ba 7.289640979150433 12.045172540849569 7.289640979150433
Ba 12.045172540849569 12.045172540849569 7.289640979150433
Ba 9.66740676 9.66740676 14.663209693093735
Ba 4.671603826906266 9.66740676 9.66740676
Ba 9.66740676 9.66740676 4.671603826906266
Ba 14.663209693093735 9.66740676 9.66740676
Ba 9.66740676 4.671603826906266 9.66740676
Ba 9.66740676 14.663209693093735 9.66740676
