10
Energy = -8.56309292 eV
Ba 5.346454488109562 7.602972043836702 10.473935736535427
Ba 8.69125761 5.174535187016617 10.475170008281216
Ba 12.036060731890437 7.602972043836702 10.473935736535427
Ba 10.75942331011247 11.535666060827545 10.475259834207812
Ba 6.623091909887526 11.535666060827545 10.475259834207812
Ba 5.346454488109562 9.779543176163298 6.90857948346457
Ba 6.623091909887526 5.846849159172452 6.9072553857921895
Ba 10.75942331011247 5.846849159172452 6.9072553857921895
Ba 12.036060731890437 9.779543176163298 6.90857948346457
Ba 8.69125761 12.207980032983384 6.9073452117187815
