14
Energy = -16.51508638 eV
Ba 15.348961642382088 18.90438383983366 14.539794969778246
Ba 17.633265820049324 15.698382608231194 12.350772108035578
Ba 15.41523707217056 14.832660483307635 15.962699638135799
Ba 13.316007613298982 15.824992950771973 12.291885599419555
Ba 11.624404289799985 16.891681980757667 16.115830307675314
Ba 18.88478643171981 12.391303554289577 15.152665996350134
Ba 12.6349599663546 13.626872959465734 19.046384583662277
Ba 15.256024944649768 14.097142382989432 8.85113237161259
Ba 15.387213516052912 12.027353095571444 12.649292670952688
Ba 15.05555352636786 10.600977924031486 16.723497607643143
Ba 11.758150589753457 12.735068765947345 14.920988896686188
Ba 9.055007337211432 15.314409211017638 12.761418349091405
Ba 11.56914253476266 12.226186907768758 10.640489906219436
Ba 12.635539828400798 8.79141866950509 13.384485523348514
