17
Energy = -21.80922 eV
Ba 19.232185607049217 15.131048084793584 15.303947659280393
Ba -1.8655603479803966 11.234884786577995 16.877701838645184
Ba 18.618745925426868 11.640889327313705 12.532644920895537
Ba 15.467232593358553 13.505984409657193 14.498933736677795
Ba 15.587925117227195 17.768240757374038 15.014152627100206
Ba 17.26195369451051 15.711636379400428 11.360847483295094
Ba 16.04101379424256 15.086834064967459 18.46523617111211
Ba 15.134135424398927 9.371165203085607 13.949235138323617
Ba 12.845349810102926 15.930773703577284 12.09636196906506
Ba 13.634163353053129 18.911437259265846 18.698401343864525
Ba 13.611849458449676 11.359583678040188 17.622684463485005
Ba 11.416219254622492 19.257744153337445 14.754265692138851
Ba 14.530020568144723 12.186937225959587 10.510375301636861
Ba 11.508207643022415 12.05071689534285 13.700742837687057
Ba 12.151372916677794 15.437364598876998 16.449925656553113
Ba 8.845658015393367 15.58345100393893 13.44576232800271
Ba 10.204158619548416 13.304914202741378 9.775106893784528
