17
Energy = -22.00209041 eV
Ba 16.449534861872536 12.778969778642049 10.301158036720333
Ba 17.09034545638724 10.551934743848426 13.995568468851872
Ba 16.080446493293934 17.223391524560018 9.813789165500848
Ba 17.74679600443806 15.005690771641145 13.941163553141081
Ba 13.917322614757428 9.427543213427851 16.971178959141863
Ba 12.907532759003479 11.059684638517304 12.395279665434428
Ba 12.551612631321081 14.330586693981315 8.723364375833272
Ba 15.170256244281079 -0.9756701856594269 13.94781120598103
Ba 13.87237681483014 15.148420514715946 12.43857223720176
Ba 9.854900979796831 14.329832981286932 12.296947007123201
Ba 17.457094188199136 12.349971511381641 18.092981153619604
Ba 10.450181703752385 12.12014886194877 16.00178435873059
Ba 13.07249596570278 13.365743599072628 -0.2652834887698726
Ba 11.693213325344695 18.25733759434292 11.137989901111716
Ba 14.395623825241639 13.172928588413637 15.620933344444932
Ba 15.763868309870947 16.479584249016995 17.638936081349495
Ba 11.73892118061444 16.408472899348464 15.766707071595926
