16
Energy = -19.94571698 eV
Ba 17.930024430493635 13.360348201277638 12.96576006709393
Ba 19.695943070302594 17.127759917595892 13.14415299761197
Ba 17.292341034016633 8.93715753901032 12.261348636265911
Ba 15.374664647316575 11.074692990007536 15.592005001543402
Ba 16.182231151322316 18.827980633243346 14.540894349928823
Ba 15.437297978554302 16.401039882817617 11.0528500040182
Ba 14.138230857486963 11.916406046166967 11.466769792421877
Ba 17.135303455897397 15.278462220794367 16.80636867300344
Ba 13.158673161394454 8.01522671113939 13.269379978989457
Ba 13.816211997932587 14.984955255591858 14.498989278407928
Ba 12.076540517586874 18.68222072958753 13.341660470359312
Ba 12.996347646633755 13.565643873588195 18.33691573325413
Ba 11.120238478739568 11.642603207347607 14.648661364414439
Ba 13.35481409273454 17.8443097194185 17.59054426299847
Ba 9.891791666525146 15.693197777059519 15.824549950708004
Ba 10.91366441489845 14.902397593529008 11.471697003516
