13
Energy = -15.346548 eV
Ba 14.999341761814383 11.557975144538139 13.19469621536849
Ba 11.335087187438024 14.190210527958616 13.585259001504948
Ba 14.295382874339795 14.420612560519178 9.762084696446854
Ba 7.771516831170413 11.088846441933518 16.085168266818187
Ba 11.281301752830215 9.803164502092253 14.207922482764964
Ba 15.518798704667445 10.05994405928129 9.282626352685018
Ba 7.839585152472324 7.932163657701548 12.579316983184857
Ba 11.858037734971727 11.40234123579066 10.591217910052563
Ba 8.026331818674604 12.032979025971567 12.047786536562622
Ba 12.007407363326166 7.53581599867559 10.30152382175779
Ba 9.79914513127722 14.463925684101348 8.932595921203772
Ba 12.341063972479322 11.313235879368667 6.6657999240636
Ba 8.653734734276501 9.92552030180528 8.490736907324477
