12
Energy = -11.29930027 eV
Ba 11.268869578035414 8.35092753 11.268869578035414
Ba 11.268869578035414 11.268869578035414 8.35092753
Ba 8.35092753 11.268869578035414 5.432985481964586
Ba 5.432985481964586 8.35092753 5.432985481964586
Ba 8.35092753 5.432985481964586 11.268869578035414
Ba 5.432985481964586 5.432985481964586 8.35092753
Ba 5.432985481964586 11.268869578035414 8.35092753
Ba 8.35092753 11.268869578035414 11.268869578035414
Ba 5.432985481964586 8.35092753 11.268869578035414
Ba 8.35092753 5.432985481964586 5.432985481964586
Ba 11.268869578035414 5.432985481964586 8.35092753
Ba 11.268869578035414 8.35092753 5.432985481964586
