19
Energy = -24.65362513 eV
Ba 15.85086374118247 11.716473949897305 19.710251136082064
Ba 12.073569333296215 11.822443614482033 17.29853798982184
Ba 18.38356874276267 15.226816530449755 18.590386385967683
Ba 15.395860552399078 9.098994330259732 16.041827286474817
Ba 15.81518779787808 13.234256384126073 15.862739195801952
Ba 13.864665771105889 15.725909686094983 18.799090178208996
Ba 19.310778818893738 11.220825659413144 16.842775384358095
Ba 17.639871972970944 11.04328186233441 12.733309893674157
Ba 13.14526751195822 11.557363393911764 12.885105333082926
Ba 19.428054509966746 14.950779510725193 14.17884663808746
Ba 12.36885427642809 15.407163668471423 14.722769369039513
Ba 16.127885648430336 17.437110690140532 15.501321215240932
Ba 15.701332340256018 14.989880840603902 11.860450636532141
Ba 11.464344579667161 15.274345592197326 10.616992279839682
Ba 17.958596277548136 18.789476883287048 11.974388435610468
Ba 12.387281385459673 19.378955221543364 16.36046206551448
Ba 9.267336452294849 17.957112708358817 13.404799857383509
Ba 13.54898518460705 18.8261733837955 12.202145147285954
Ba 16.009241728188258 0.9181556306480159 14.807228071585063
