15
Energy = -16.62949514 eV
Ba 16.79733799946104 17.162887286250836 12.969168805912767
Ba 12.353185570881443 15.82981473921976 12.830279762897945
Ba 15.640011705572592 15.082326782590984 20.344846591677538
Ba 8.229034219471693 14.326223349035859 12.46651484505013
Ba 10.271654913710757 14.012056929705146 16.0976686077644
Ba 13.834353009564222 16.60237544522646 16.78847711967609
Ba 12.103038862353554 11.863403580631937 12.633755034598227
Ba 0.02143847076278984 14.745343462855091 13.700633556016944
Ba 14.221082740782219 12.585131052929915 16.902510835649338
Ba 17.863800459751527 15.187856332375194 16.823356641694335
Ba 16.483627209960737 13.21393552138412 13.307790721088109
Ba 10.665929967605624 14.15475092648966 9.033856323751722
Ba 11.80113570337876 14.30806603320921 19.93000848605346
Ba 18.908216826488246 14.68456649836022 9.831120719997038
Ba 14.751728730172749 14.453065454059814 9.737082098993248
