10
Energy = -10.27882241 eV
Ba 13.61738297214003 15.129952837944522 17.245383174002132
Ba 15.235862789395972 14.27660551487608 10.060997284828513
Ba 12.298790709679016 15.233842531738423 13.191397456746845
Ba 11.18163433225213 14.863748449817837 9.094373943485287
Ba 16.490073021705133 14.430571903872826 14.242619868461563
Ba 15.217821948066081 11.41691812444689 16.887139024412072
Ba 9.905241546002241 11.84655517569009 11.737373232932201
Ba 12.763792192784885 11.144820192307883 8.73226873599724
Ba 14.100234034551752 11.027080443811528 12.789437222438378
Ba 11.160706142430197 11.97584293131368 15.919195581190815
