10
Energy = -10.42834605 eV
Ba 13.776179947712217 14.829310568550518 17.271678919888128
Ba 15.258388569755537 12.73665482692739 13.87616986881111
Ba 9.875930945553508 14.612284745343315 15.758209073993921
Ba 12.212438693926925 11.051389753402468 16.38167397332781
Ba 16.571631390021945 15.507019798504691 10.858066832520496
Ba 13.81558373429014 8.691721954682015 13.035979324390675
Ba 11.216014807474398 12.33977782094569 12.33618033012388
Ba 13.075042794360048 16.442662570945366 13.478785351287286
Ba 14.669230483075513 11.583623458338174 9.795921290801807
Ba 12.520885590512886 15.191756183938896 9.585152763999737
