16
Energy = -18.93801887 eV
Ba 17.350031377305026 8.994420163738951 15.356239210760805
Ba 19.64718734250603 12.592500477395651 14.058172766977828
Ba 17.32757009611085 12.352308905940959 17.798225858126646
Ba 15.475310703603435 12.302702065285734 13.37141992332722
Ba 17.586528540559083 15.490397977292842 11.239849053153566
Ba 16.770593447875875 15.838999324271972 15.545360868089551
Ba 13.505334744298642 8.196123548770027 13.509925934420844
Ba 14.261677656636932 15.005870326505176 19.136820101914974
Ba 13.659648889481913 18.88992971599808 16.977959951420036
Ba 13.44643724312476 11.217196630606395 16.74527327343575
Ba 15.143479122127744 18.651087736826266 12.896448234894695
Ba 13.059860688208556 15.458306229160577 11.112283366367217
Ba 11.135514660260684 11.749331175577804 12.940492481982007
Ba 12.505319665320119 15.254176958022994 15.167074097722633
Ba 11.068513990406517 18.883770730756623 13.426248097140704
Ba 8.787383503540786 15.328707050433637 12.776878723391539
