14
Energy = -16.32065155 eV
Ba 8.58595136341281 9.587545700687388 12.539928361511526
Ba 12.982176835277508 10.26618074843306 13.31524137900289
Ba 6.760986094022086 5.718389480934175 13.317451180847614
Ba 11.164410228649603 6.1830311269452025 12.728729178218199
Ba 4.7498478656453065 8.634347096326932 10.491594279170087
Ba 8.324533174472371 6.603580963000383 9.305849206865265
Ba 11.826816641158498 9.170355833457732 9.556311649149666
Ba 7.941956059306677 10.924220652671108 8.463767981447988
Ba 14.725614804330274 12.118762226343032 9.774984664397202
Ba 10.778522360273712 13.178236291868775 10.969060650222216
Ba 11.579632844673817 12.373878651537554 6.6302798733588375
Ba 7.8498108116031835 11.630948341670788 4.338564015654165
Ba 5.7845487013244155 8.32366517235636 6.031947299235556
Ba 9.975060653659622 8.316725027197297 5.566159280918377
