27
Energy = -38.12557702 eV
Ba 10.66131371 16.896302100184222 10.171996523159448
Ba 10.66131371 4.426325319815778 10.171996523159448
Ba 3.9853970265936556 12.953253006169016 12.158673161795189
Ba 17.33723039340634 8.369374413830982 12.158673161795189
Ba 17.33723039340634 12.953253006169016 12.158673161795189
Ba 3.9853970265936556 8.369374413830982 12.158673161795189
Ba 17.12926993942678 10.66131371 8.346916446756547
Ba 4.193357480573224 10.66131371 8.346916446756547
Ba 10.66131371 14.668687746023581 6.355288013948423
Ba 10.66131371 6.653939673976417 6.355288013948423
Ba 6.278170541502453 10.66131371 15.206874474987888
Ba 15.04445687849755 10.66131371 15.206874474987888
Ba 14.443554596605978 6.930415493570868 8.94870797539704
Ba 14.443554596605978 14.392211926429132 8.94870797539704
Ba 6.879072823394022 14.392211926429132 8.94870797539704
Ba 6.879072823394022 6.930415493570868 8.94870797539704
Ba 8.242856099423193 14.41526574777372 13.24417662757972
Ba 13.079771320576803 14.41526574777372 13.24417662757972
Ba 13.079771320576803 6.907361672226277 13.24417662757972
Ba 8.242856099423193 6.907361672226277 13.24417662757972
Ba 12.863937891497343 10.66131371 6.903062768768714
Ba 8.458689528502658 10.66131371 6.903062768768714
Ba 10.66131371 10.66131371 13.995380807412989
Ba 7.283626546244607 10.66131371 11.170526407349929
Ba 14.039000873755391 10.66131371 11.170526407349929
Ba 10.66131371 8.511820331071196 10.072264513967983
Ba 10.66131371 12.810807088928806 10.072264513967983
