26
Energy = -35.13930679 eV
Ba 14.464583159707544 17.85348983822213 0.3417326270453814
Ba 16.40034844989102 13.72324922644278 21.11339452054997
Ba 18.490865408839518 17.58186000986215 20.176552460603762
Ba 11.585204253785811 14.69513220464506 21.20144973563352
Ba 11.11026535962217 18.56615057575549 19.109570428904213
Ba 17.754746099442045 14.95753752787014 17.194453977356947
Ba -1.042995846017553 13.6052974720655 18.912101639548503
Ba 17.435948899499724 10.868268198389258 17.87540509815859
Ba 13.144373648261134 11.664019773693513 18.550785375874195
Ba 17.84261345062496 18.878906395675518 15.948064948538372
Ba 14.38744745314147 16.232265533830695 18.55972241671505
Ba 15.130928679326802 20.475032773074027 18.72116282642964
Ba 10.936101763107231 14.766679714028859 16.42219858413256
Ba 13.561475787108655 18.244394767224925 15.170420705495609
Ba 16.798626767986484 16.037917005368552 13.095268782369457
Ba 14.842806101364797 13.31149970983308 15.328832167710832
Ba 19.215787989576 12.420361828863522 14.294156858088172
Ba 12.62265286003466 15.148440236415604 12.077210500700627
Ba 20.993243632340256 16.29728754790505 14.846012803123749
Ba 15.664785465928999 0.00963476919903685 14.257277170451143
Ba 18.688163529748955 19.245065766427334 11.615187570286983
Ba 19.891090456315826 14.872586502945499 10.611658084468074
Ba 11.868317846439384 11.013895718576007 14.002707762340028
Ba 14.392897661647389 19.269315849669 11.202633908535418
Ba 15.823236432453427 12.219050318670494 11.357414726744427
Ba 15.99522930438406 16.07876261203362 8.964306033889814
