28
Energy = -37.21804298 eV
Ba 14.230096474366354 20.476013538266496 -0.6059253151589467
Ba 12.661720982437718 16.56939000082629 0.4414041893626744
Ba 13.969349689724808 17.461364953823676 17.01041755378662
Ba 16.94933064365861 16.864624589175722 19.716655239890123
Ba 17.321087753061956 -0.3376459581167629 16.879050252746154
Ba 10.927076027634785 12.576863108476422 0.8744792025879747
Ba 10.700983579942648 14.703593930991747 17.581759937766357
Ba 11.559477628698563 16.486033286353624 13.415058849951194
Ba 14.985626866132964 19.3791168846282 13.207527649083074
Ba 17.571582296140352 16.40178555947006 14.84344596683688
Ba 19.82294556669671 19.322096305964926 13.136733590147015
Ba 14.594786877350474 13.203846452077032 19.232832709548678
Ba 14.29633689274689 13.67461040480482 15.145796775510144
Ba 11.686006322823902 10.47806337006446 17.60672733080927
Ba 10.543513470427282 12.138081877319513 13.747722049784947
Ba 12.752248979394745 18.277851661458055 9.430705487111652
Ba 18.60130754382085 13.354754246074389 17.421043195707046
Ba 17.066746472657364 19.056651445900116 9.700146409882178
Ba 0.09049301113606495 17.621015792758012 17.45319422906945
Ba 12.0620625345522 8.049801545016939 14.008963419756785
Ba 11.419354229761996 13.873317365978012 9.886271478569773
Ba 15.265163981677171 15.407316256999277 11.29940416989849
Ba 15.736570620925702 9.88054913470111 16.065852003934115
Ba 19.488407388200265 15.76847245485355 10.667739189596098
Ba 0.9571936069327861 14.96086541299168 14.302594551324711
Ba 10.349049164270507 9.563473971136082 10.221831263847317
Ba 14.200584985939761 11.000574290246652 11.819356459445514
Ba 18.15327191451455 12.404489017641623 13.194695035639183
