23
Energy = -29.40621884 eV
Ba 16.737563643664142 7.790927591953903 14.853375016583765
Ba 18.741902269728747 11.26998870220925 13.224429789561725
Ba 20.046884215698682 15.129793621084396 11.597464347100441
Ba 17.693552108022615 10.812046800338788 17.668739622716018
Ba 17.815939632263266 14.88549720975209 15.699765239794889
Ba 18.150968622575423 14.716026036505218 19.91683917714402
Ba 14.794490070824816 11.503356602314035 14.592667586863772
Ba 20.233693832974996 18.65406323450293 13.675251460471898
Ba 13.677838480211426 8.869134065902164 17.607173618598413
Ba 15.955832281293247 14.637119026222086 11.756425725197433
Ba 19.119538626792504 18.44213197546544 17.861394293670664
Ba 13.36587510306177 15.394893051653431 15.175290430261505
Ba 16.133693737373946 18.654068719546263 14.43363406113243
Ba 11.718960221644235 13.272874925283311 11.840295911506086
Ba 14.230748805361193 13.157164223783637 18.694752178217264
Ba 10.710976964425837 12.149291572606172 16.091415520215417
Ba 17.38988328582599 18.405863864012087 10.35168811906153
Ba 14.995363195914575 17.472993357970047 18.54174985123119
Ba 12.756041291145053 17.7213995341674 11.635239134109593
Ba 10.737933614806666 16.01842556403141 18.419040889462625
Ba 9.358908084724765 16.223192456990272 14.114749689422919
Ba 11.88396344481334 19.383302417723378 15.675845411116658
Ba 9.140507302328386 20.244308837078176 12.32135179476671
