25
Energy = -33.32310964 eV
Ba 19.17076936482045 0.20723566656163764 12.089000773973567
Ba 16.847247487153044 19.925613400093432 8.87920188386253
Ba 19.393283030228876 17.661786922374485 11.587607942447233
Ba 15.608434612462927 19.411839768168377 13.06363063107357
Ba 15.556815929525877 15.83317134363911 10.408097626762126
Ba 19.023050178695087 13.159495712640549 11.682392309400674
Ba 19.22152364599667 19.21910191529846 15.802958275312951
Ba 21.319668017535438 15.271110328974023 14.885287043037726
Ba 11.226244003292956 19.736757809808562 15.142260771666782
Ba 12.879585769636384 16.03607489834899 14.056634081153721
Ba 17.123645718581276 15.642677529830472 14.415269286364206
Ba 14.855516215407972 12.146695143397993 13.306833628077719
Ba 15.063285784633278 18.340482083988206 17.27587594108195
Ba 8.611433215325485 16.121659154515992 14.57064417520574
Ba 18.133402579896824 19.219789398803222 20.606917810154716
Ba 18.498358427012196 15.623638926420302 18.422749007237016
Ba 10.993219305603931 12.473163626215356 15.87457719362743
Ba 18.37329655706079 11.907081452351205 16.07132921960128
Ba 11.221944992389291 16.29909701850789 18.087957073905265
Ba 14.439159321794317 9.812036818369851 17.254336775866797
Ba 14.960643750359267 16.02386631718191 21.00202968234245
Ba 18.930385037496304 15.296222267405229 1.0039564737046713
Ba 14.713434865788475 13.931708356814472 17.2783431627863
Ba 12.284934325959194 12.36031194709703 -1.5256025073972974
Ba 16.832936630837093 12.06119453935488 20.410899368405076
