23
Energy = -29.94452693 eV
Ba 19.366341613381437 17.255415594221294 18.485203494187445
Ba 15.951191764274949 15.38605455078714 0.4969758407218182
Ba 15.277911315888504 18.62645562365011 17.396124137176848
Ba 0.6219343838539936 14.1649204898981 15.625062784690959
Ba 18.354987151392596 17.830045510140167 14.191876688541086
Ba 16.648291916506153 14.739801451690518 16.497671774434725
Ba 10.948354289628684 18.798104347248124 16.162990910262984
Ba 12.60248505087883 15.121056236570245 17.711204865007847
Ba 14.736319727024016 11.441190726058833 18.542140976988616
Ba 13.888860615943145 16.769377603458725 13.331880294678546
Ba 17.70304576322667 10.676498442449594 15.454493061432572
Ba 9.754802217058435 18.185530056118086 12.088276074132349
Ba 17.627222160693677 13.822887070197131 12.472989027096116
Ba 13.7341362257166 12.596420950347886 14.231633937559709
Ba 16.905992292134563 17.26335510556779 9.957192671645892
Ba 10.642982149477012 11.064250732573331 16.74073843599525
Ba 13.848603877722455 8.475686813329267 15.357371862313757
Ba 12.734361375875517 17.412272203413565 8.970804924676026
Ba 9.535651949456271 14.813158083280465 14.800108425636667
Ba 15.573566456569667 9.795753182762502 11.593155389295559
Ba 14.537810566474192 13.526835082625082 9.585090280946554
Ba 10.894436093122572 14.255692371353458 11.076743624802056
Ba 11.0703718432614 10.153595173950304 12.28812057555039
