23
Energy = -29.1010399 eV
Ba 13.015767323615023 19.479270940125307 17.214377505511596
Ba 16.29853637093866 17.241306544547644 18.75704075088101
Ba 15.703351113846209 16.001819739273852 14.903774658726917
Ba 19.46990951807814 14.566242831864152 17.7828730362329
Ba 8.79719755712966 17.9057348864631 17.71492220036131
Ba 14.77093005540387 19.662606883779407 13.337472502403331
Ba 17.437766201720567 17.781492159640916 10.598442374239296
Ba 19.630240517316647 15.95824818098953 13.758542619120718
Ba 11.227100737019487 16.980394610920943 14.226784186356472
Ba 15.589579421835367 12.79576692738634 18.22623029024631
Ba 12.281000466291388 15.318546566092946 17.929699133855625
Ba 19.010149166865364 10.142390595197822 18.613537649576067
Ba 13.49842203301868 16.10967877627832 10.833714538457277
Ba 17.866285420195002 11.921620895622414 14.814145697278965
Ba 16.82394836542258 13.572719846682263 11.124478971308456
Ba 15.79108575119394 15.23224836297152 7.240372487219806
Ba 13.297529539250698 12.770436375535668 14.121353090997248
Ba 8.844418053875025 13.789787352236184 15.848025249537322
Ba 11.594657808736548 10.89796126016786 17.39406616410793
Ba 15.25235494543453 8.910720267061576 16.412927285530955
Ba 9.98466456843168 13.435045952883373 11.738709350032323
Ba 13.225235693184311 12.109775979752088 9.280220072685061
Ba 15.060893231636804 9.569876087592354 12.192915692759486
