20
Energy = -26.42599752 eV
Ba 10.909057749499663 13.191554366898487 11.835392706838272
Ba 8.929795631247286 16.268963067018433 14.236815080150159
Ba 14.971695743292225 14.775506170805553 10.751925028308722
Ba 14.361987672466471 11.035085425920572 13.316791796678567
Ba 13.201818886652472 16.02663110578905 14.118606146399982
Ba 11.533012656290266 13.0767805934409 16.266645340187374
Ba 11.326819174428714 17.294991856803826 17.759296927389126
Ba 18.237086883646853 9.782101416708393 15.364952860582166
Ba 11.20071160271617 17.39355872548127 10.600838404524136
Ba 14.68604782536141 10.536707562779322 17.786244170294886
Ba 11.456371733092192 -0.5041532219823797 14.241375971208141
Ba 15.372094673617186 18.600438550635204 16.288624763701353
Ba 18.417745996313467 12.372448583446815 11.857887968401183
Ba 18.491512599397495 12.281409584623653 19.001093468775537
Ba 15.044700755604765 19.13080551422414 11.835774545864146
Ba 0.3571931456368034 13.397910525813217 15.379461402654993
Ba 16.481096283167318 13.716799249726389 15.473088341598942
Ba 18.27393121932733 16.648561716899795 13.334299201877688
Ba 14.757395328749595 14.913245829594555 18.930063234267575
Ba 18.842829724322577 16.46613073341052 17.81404970874255
