29
Energy = -38.49414112 eV
Ba 16.812727626180017 11.83986624936824 11.963295886623408
Ba 16.784238330061758 13.166743862606376 16.401731189517204
Ba 12.814249703484746 12.775426501628399 13.967224818708393
Ba 13.547176057441082 16.28048218484375 16.51355009560801
Ba 0.26809848522204244 18.660635247882823 19.07984749479725
Ba 18.37519926369498 18.862281903786723 11.81645529752948
Ba 12.350388626420816 12.730933722355552 18.207705977682757
Ba 18.895174480034356 12.296304679341157 20.254915882861326
Ba 15.096706140818712 10.180595405272166 19.526766300069507
Ba 9.500723838161932 15.086836742996454 16.10037248877147
Ba 21.13256554205555 14.883917820235583 17.467473813480552
Ba 0.23723120406036327 0.3250792075179591 17.045468954303242
Ba 14.98696630348632 18.980997382026178 19.415803716646234
Ba 11.29828667690648 19.732968135300055 16.80207700762126
Ba 18.974639460810796 16.79619452112265 20.683270492936604
Ba 18.632349753182282 22.13262380315206 14.85596790939496
Ba 15.405570693666096 14.645139883806223 20.27418797983157
Ba 18.854780301253534 20.87800942217702 18.806552832940998
Ba 11.025259795884788 9.30593740673721 16.495440133875167
Ba 15.014194822791838 0.545226451203287 17.448405791456185
Ba 11.250277464558408 16.5671412613669 20.00949272415146
Ba 11.646750542327924 17.240607061214774 12.844607476926333
Ba 14.956359476225765 19.809302897373122 14.419067797905647
Ba 17.795317990663733 17.47138763083154 16.478366537140396
Ba 21.438697758956557 18.74735738432459 15.057377662339622
Ba 15.70967127854654 15.782063659187965 12.958595080175273
Ba 15.127209089953434 9.361747146311235 15.38264894082556
Ba 19.766577362133997 14.93301846488956 13.187728207688208
Ba 17.483599125616873 15.275539075494601 9.2457124861996
