25
Energy = -32.54058427 eV
Ba 10.147585586576138 13.818156746121602 9.827048563180549
Ba 13.025595847883569 16.44691623303769 11.912563733583363
Ba 14.553369968070827 13.077525384994642 9.538838941814163
Ba 9.438326951280967 15.313350211508654 13.962794760307023
Ba 16.23549919114743 19.183625847025656 14.059353710243249
Ba 17.293534339041617 15.718946446566125 11.597838906537339
Ba 12.157765784001098 17.914047959669606 16.02179539578786
Ba 8.36834811674963 16.7719014622301 18.01507429196022
Ba 19.098350284782125 12.72860641061237 9.19083457632499
Ba -0.32844018108824236 13.753345067773038 13.143155890451204
Ba 20.593195956278812 18.25874262704693 12.721711300211984
Ba 12.375067703870283 12.198481596600374 13.206425816240891
Ba 16.92689904232005 11.836828413752738 13.082475138448533
Ba 12.211080281135589 16.92249300962282 20.226687497458922
Ba 14.829476848928131 14.795362428053762 15.350435455601573
Ba 11.43376535076795 13.68136901142506 17.472625574400972
Ba 19.826050448866308 19.789464554702086 16.8856315702285
Ba 18.536604079376342 16.043630122883517 15.636786839517931
Ba 14.667234124359886 10.60591711465252 16.753519956881686
Ba 15.96443584475929 18.201794717090294 18.352081833896737
Ba 18.81691517511432 12.27895205013297 17.04494501637711
Ba 18.487168479175892 20.497751097860135 21.002704083273183
Ba 15.565255336475774 14.077385896562383 19.4328614082295
Ba 19.476508301328707 16.197837853890785 19.731882830250907
Ba 16.09359188234316 17.184563989802257 1.3716113271282127
