21
Energy = -27.77273441 eV
Ba 16.066070038985462 9.587750048865026 15.445785613510873
Ba 17.494162653604565 13.538890760772821 16.740995893168897
Ba 13.451125231191902 12.109109626261246 17.811842800098663
Ba 12.396137399356315 11.048788124937413 13.419886569068968
Ba 9.439814237461665 13.051144135711391 15.895784028080236
Ba 16.140009886017733 9.667001770673032 11.104961843190456
Ba 10.838770181240129 15.531252929583353 19.318598543626894
Ba 19.487828178363415 11.465308593085936 13.362144500197708
Ba 15.28900134767201 16.17500431558904 19.203110486989758
Ba 15.623074889506638 13.37116724270043 13.181986737303511
Ba 19.187269294174328 15.844270726595976 13.43420274243217
Ba 18.092516141868074 13.521236287217926 9.746956708977496
Ba 13.694041813814199 12.909791713059963 9.433907183551558
Ba 9.103990491283813 17.425104776471816 15.591022578862207
Ba 19.516874794094363 17.207095083770565 17.763025855070826
Ba 12.528538083642857 19.2461351053865 17.700575957668377
Ba 15.262032849930325 16.83160175701689 11.101494415767482
Ba 12.921243668817732 15.493020665688896 15.63869540446402
Ba 11.068582880560697 15.091320550881619 12.125442996544166
Ba 16.050461814329292 17.993578916821438 15.300803463719232
Ba 12.336943068831063 19.191154397044723 13.28707973759794
