25
Energy = -34.78080806 eV
Ba 10.80771555 7.416273134326223 11.356520495645054
Ba 14.459055114348693 13.140072493219895 9.202117910996078
Ba 10.80771555 14.199157965673773 11.356520495645054
Ba 7.156375985651301 13.140072493219895 9.202117910996078
Ba 8.607077143363224 10.80771555 5.493315823650616
Ba 13.008353956636771 10.80771555 5.493315823650616
Ba 10.80771555 14.563766217223769 7.0056240187998915
Ba 10.80771555 3.9834698060528595 13.694035222432058
Ba 14.418893963406383 6.500402971949203 13.347710901938022
Ba 10.80771555 8.182416522040823 15.548056062879313
Ba 7.19653713659361 6.500402971949203 13.347710901938022
Ba 8.588326069400221 4.188653451753382 9.794730481100522
Ba 13.027105030599785 4.188653451753382 9.794730481100522
Ba 14.459055114348693 8.475358606780107 9.202117910996078
Ba 13.104178281013978 10.80771555 12.793028913263992
Ba 8.511252818986017 10.80771555 12.793028913263992
Ba 7.156375985651301 8.475358606780107 9.202117910996078
Ba 10.80771555 7.051664882776229 7.0056240187998915
Ba 10.80771555 10.80771555 9.033490511764509
Ba 7.19653713659361 15.115028128050795 13.347710901938022
Ba 10.80771555 13.433014577959174 15.548056062879313
Ba 14.418893963406383 15.115028128050795 13.347710901938022
Ba 13.027105030599785 17.426777648246613 9.794730481100522
Ba 10.80771555 17.63196129394713 13.694035222432058
Ba 8.588326069400221 17.426777648246613 9.794730481100522
