25
Energy = -31.83429828 eV
Ba 9.819337731780342 17.457805084955204 20.61228261669363
Ba 8.85541559087276 17.410618183880274 16.360616629656604
Ba 13.951079696294265 16.006006366635077 0.3813441652726854
Ba 15.573313684009543 12.832435359289466 18.806459924419713
Ba 11.596520317680929 14.476442659772779 17.93012072883551
Ba 12.945151217827238 18.365482773251735 17.611784246796464
Ba 11.876709912825795 18.99034807940808 13.557445583739515
Ba 18.11342464651641 14.613340442810822 1.0271489202070074
Ba 19.58214097941686 13.64710180198872 17.786117860553013
Ba 17.04619228842069 17.070496645729463 18.48132021734516
Ba 11.120652972324313 14.683781583295575 13.518490995722935
Ba 13.111592803569305 11.126622544347885 15.51644285002825
Ba 16.074632799163542 19.287051078469855 14.581954105745739
Ba 15.227182489422157 15.0777948550365 15.106186190682319
Ba 10.642178665035075 10.207396142829491 12.099747757576685
Ba 19.615668024474687 16.71600331077874 14.843873023388234
Ba 17.448959497249312 11.299612239543523 14.76974669946164
Ba 14.730197379194951 0.34214490362632116 10.935982983328303
Ba 14.57475528518547 16.797921902947206 11.150488868139435
Ba 14.551745855383512 8.15256998192107 12.708433563939026
Ba 14.35018639978245 12.360396419418063 11.640927334207923
Ba 0.7601175335405626 12.945208843545048 13.909790354682187
Ba 18.415630447800744 18.692877576102262 11.065780551466982
Ba 18.233735652505874 14.410516361354897 11.665212604261743
Ba 1.3176487019032128 16.339045835561343 11.244793079451327
