20
Energy = -24.94057965 eV
Ba 10.404607057587297 15.211923914677888 13.310889102603431
Ba 11.186844688918468 12.834910750612282 16.822666934935715
Ba 12.97503933059673 12.5796749129349 10.98081388726895
Ba 12.491834487437583 14.40488484688147 0.6861400483611034
Ba 15.13659365136888 11.98165433286302 18.187137102268778
Ba 12.191454027155094 19.129167174858363 13.484038038040543
Ba 13.720586126158672 10.254890343109372 14.541581068164145
Ba 19.631904385859393 15.281553194174085 12.397350924624506
Ba 17.6876152374094 9.106058205223423 16.04947333579015
Ba 11.946129008129418 17.053401329165354 17.263414891383984
Ba 16.435308046384744 14.813503361601766 9.672219562986522
Ba 12.722064832781093 16.81221774910142 9.988799623003766
Ba 9.58101438642496 10.901026187006003 13.214771782239596
Ba 15.962306967446922 16.182524270321345 18.670190286274874
Ba 14.900805031103484 15.152613843935304 14.294070609011861
Ba 17.26147707380943 11.629723823800145 12.47719640092637
Ba 16.376828485943793 18.466512750716426 12.164111987935764
Ba 18.697981628091167 13.376866226480274 16.196142616605435
Ba 15.209888259864881 19.80268551094885 16.365998662171442
Ba 18.818139968996157 17.672423262995277 15.789670208242216
