21
Energy = -26.07422685 eV
Ba 0.1326339614647349 13.576842057913277 17.62784874323024
Ba 18.803940679971053 13.72292091694223 13.532781510936374
Ba 17.49429431720142 13.689811230529166 9.309816232951649
Ba 18.357443497398798 17.212872036051877 16.01787954980798
Ba 16.88303492734039 17.217620515387665 12.000224764620386
Ba 16.23588343568734 0.5267504597959962 14.37455255812334
Ba 16.346304327463944 14.644165236101928 19.086763526747564
Ba 16.79261956118241 11.108380421438696 16.435851781037925
Ba 15.467234383842525 11.208365647235256 12.208213888976399
Ba 13.79409277649717 11.220547833865833 8.230175537009975
Ba 14.423792458772379 14.601089058444154 15.084750212259541
Ba 13.450305148974996 11.370381892547963 18.98445137738857
Ba 13.018300469708535 9.289188895765863 15.23195425096713
Ba 11.192681827960781 11.379922955883611 11.844438318188276
Ba 14.296527799385414 18.415901979682083 17.461871353632272
Ba 13.53426774087027 14.775819060783034 10.622625979653513
Ba 12.080958456950176 15.32321283639558 19.502756138094096
Ba 12.85442148086392 18.27815965733307 13.18603484467743
Ba 9.674427674120182 15.435446414299319 12.47434187428604
Ba 10.672169782249723 12.963811101607607 15.981901846916696
Ba 10.201035880781253 17.33434966381964 16.34289522256459
