27
Energy = -36.15389303 eV
Ba 15.358708316162277 0.31570405663244067 20.351917086601766
Ba 16.51632757256409 -0.01351635705297096 16.27676269169802
Ba 12.75356597121243 19.675955815295293 17.50690592573497
Ba 17.22310992166247 18.1017067047387 10.234005778188287
Ba 17.662575627119722 0.41991227293750305 11.964997302389682
Ba 14.415568276387184 19.561627462715077 13.211639894048602
Ba 12.872657646679071 17.381682607598183 9.759137840314086
Ba 14.429755641750756 17.908443535825842 21.036351876212606
Ba 11.362678410578804 16.54141672900551 14.201683541507126
Ba 12.570427964518618 15.020736806716398 18.336979342791324
Ba 18.255152991135475 18.81945294019694 19.044509074298453
Ba 11.980799152139175 13.198573746278273 10.81178256781021
Ba 18.73772059729734 18.44718080266102 14.336264160462674
Ba 15.643187259854331 16.95789879582461 16.516585455569068
Ba 16.79247692074873 14.4653419664036 19.906918361042184
Ba 13.461161124588678 13.684013917010425 0.8492239886206059
Ba 12.580024205656665 12.266080808119023 15.043344694333046
Ba 14.963969760570013 15.324608996097526 12.726540993805521
Ba 15.947702731452676 14.149243554122164 8.835081127674513
Ba 18.940729716617145 14.448172493877195 12.432972958353622
Ba 19.993867919419166 14.95480664568329 16.890939849568834
Ba 14.439934045209638 11.062434952191241 19.01830275693141
Ba 17.102666409793255 11.180192479475144 1.0193316736687312
Ba 16.52352501505295 13.021642862557414 15.850872956787066
Ba 18.896675178534853 10.936337201924143 18.78703308995847
Ba 15.873542132801447 11.137862865024209 12.178567347949455
Ba 19.82970120031106 10.727799940597896 14.538334510058695
