29
Energy = -40.14619071 eV
Ba 16.717737301278035 17.758714536966917 9.94968515809294
Ba 17.534067057917532 13.32700660070036 11.100188732000971
Ba 13.256362371289134 14.785636964042167 10.732588359573223
Ba 13.101844277881368 19.25630497263657 12.469881724409815
Ba 20.133530649716 16.753525958538003 13.001049567203031
Ba 17.256685324136704 20.263052030494933 13.823523161544772
Ba 10.599560825825273 11.622023852014506 12.998578950344465
Ba 17.6852267115078 9.557378791187634 13.553052175331558
Ba 14.127140606109494 10.22770171137373 10.657346422111987
Ba 11.692463777914657 15.690222200035722 14.841787992997835
Ba 0.26851622332052255 12.046994252142884 12.917233060297338
Ba 10.30455995129448 19.84320062165713 16.20935843335283
Ba 15.933456463539825 16.279090430248477 13.760876064801039
Ba -0.1644310847422203 20.575168732580604 15.68758812517258
Ba 14.480153263433234 12.40359419395114 14.139614786464312
Ba 13.724213913824752 1.4602221398663509 15.519480651493918
Ba 13.23804881749496 8.504720673993395 14.772633920895593
Ba 11.613557401891661 16.53538243822977 19.22796265107153
Ba 20.659415177413766 10.046435244873408 16.820941825569008
Ba 17.23541705839117 0.14890585969531583 18.07027089602529
Ba 18.490401053657013 13.345024892191752 15.361764265914365
Ba 18.558354544792113 17.372536569913834 17.139204956055732
Ba 14.302132458535704 18.72378075568164 16.621417013806024
Ba 11.831086307325355 12.041647210773935 17.502977801698588
Ba 12.78666759000819 21.101096378893878 19.61427557775029
Ba 15.136399174698605 14.716158530168611 17.6236896959482
Ba 16.079475930933533 10.497848031935 17.74872608216271
Ba 15.625587468120676 17.73623172507019 20.63645090324525
Ba 14.13032982563211 13.263637112178136 0.0626518230497605
