22
Energy = -27.79448038 eV
Ba 17.83120238356029 10.93812541778767 18.248404082607358
Ba 18.00037176060099 8.232729891598199 14.656328246730697
Ba 18.33031842453059 15.287090467516837 18.187668250267407
Ba 14.15663052093506 13.171347020042761 19.4687250678159
Ba 14.622561783048381 10.63290550344777 15.533420104848219
Ba 18.14258519867858 12.629634164388621 14.318757947150573
Ba 15.013608518342883 15.018034683804764 15.976200708699716
Ba 17.664276169106394 19.467364635666144 17.14298656711412
Ba 10.426889380950321 15.408009627567738 19.443099508848185
Ba 15.726741942215039 10.353187710159121 11.42572412752078
Ba 11.124987992566524 12.82627651357554 16.185208015139693
Ba 13.545011270583426 14.312076901222811 12.368209147650127
Ba 17.947317271369425 0.5295415836053602 13.040774999117708
Ba 18.187556151494768 16.899358584816465 13.777493557639277
Ba 14.076381547030062 17.65053970048717 18.88603946497332
Ba 11.40283755543653 10.47765872505412 12.490064154041146
Ba 17.29831719371314 14.274204585260813 10.36435383300041
Ba 11.104557661300886 16.922583577447465 15.566617193683218
Ba 9.1240357536548 14.371303664977907 12.73125658390256
Ba 14.515096404362723 19.07694424115554 14.403645822756253
Ba 11.451874953455535 17.959699032395417 11.333750325545552
Ba 15.738060175571857 18.243941422616142 10.432342365660961
