24
Energy = -31.98534789 eV
Ba 8.046466988056594 18.040681625093338 12.088465043343154
Ba 9.35150584464353 15.151415307113565 14.828492416930828
Ba 12.495393172057899 12.011099076511314 14.682655549671674
Ba 14.933080836993687 12.02045030836635 9.774512702606593
Ba 11.469901004467346 14.741797711355142 11.086534675610011
Ba 12.059145644817606 19.05090634441495 11.547658920789273
Ba 10.985638766472976 19.099537107420243 15.723084557198169
Ba 11.804493476708167 15.161312114349656 18.259882594548415
Ba 13.523836544447382 11.078387699589078 19.182629733494124
Ba 19.324002019706572 14.057980385555057 10.865375239698919
Ba 18.24940593281504 9.937896777828367 11.956621098735617
Ba 15.643843630975878 16.557192222601348 10.714011185403114
Ba 16.225759413642752 9.843090809597097 15.823501101267372
Ba 13.531903397372476 16.223211960922157 14.41589776622632
Ba 16.198151863766128 13.230399023121652 13.247692995792937
Ba 15.134898278662758 18.072117531242043 17.937338639822073
Ba 15.330046897189582 14.854725837831934 0.39289644446590355
Ba 15.26956483092476 20.17690358529789 14.112952778995128
Ba 15.72379643719447 13.876314510812465 17.163588056599984
Ba 18.00897055528898 16.801271242440503 14.545855296900424
Ba 18.983642974180242 16.055264489916947 18.779427948502246
Ba 18.072426637751523 11.643061626143423 -1.087392813822801
Ba 18.67557184183829 20.33030554658434 17.169246285639215
Ba -1.0782791437149368 12.708152585295247 15.432692360280658
