28
Energy = -37.89679195 eV
Ba 18.28753220622038 20.89225771866063 11.581676778832787
Ba 17.04694578892289 21.37130664304719 15.894766768931033
Ba 14.142787291607995 20.36583420334327 12.770807161108834
Ba 15.937883821689049 17.0940152585881 10.239289687999579
Ba 19.5222308917357 19.56587472594267 19.353071015508885
Ba 20.300872737852863 17.121327843517346 11.110696002135688
Ba 20.83376949104933 19.33337085506266 14.989997238755274
Ba 12.736874894754989 20.033985472066103 16.901901175836475
Ba 16.029872718200977 17.88660861050527 18.03781225045031
Ba 15.520087726811127 21.61985658552374 20.163609517327803
Ba 13.134562511881873 16.544790784901014 14.44405335984469
Ba 18.46344783291875 13.527427477543966 9.482110442424387
Ba 15.170621348291057 13.146276594643135 12.184131664486507
Ba 17.191294209147536 17.439084359735276 14.061402944189863
Ba 9.788565508896104 16.739116366421136 17.380259370165177
Ba 11.770694945000983 12.668176441275135 15.77774505118651
Ba 19.4009844645943 13.790835271494503 13.509163711190721
Ba 16.012177996999593 13.722722094603535 16.183644565332543
Ba 19.801486663260516 15.80003128450097 17.204576386500484
Ba 16.42922622316251 17.743563728331836 0.24393588728424315
Ba 18.214615309049208 10.078898809529003 12.419999517741575
Ba 12.346394002253446 18.470699279288908 -1.006000541471573
Ba 14.988469687101476 9.810211705322715 15.099544968283148
Ba 13.307399642466194 15.195999662262485 18.80539386258047
Ba 18.817837763475392 10.975003554046117 16.98773707118507
Ba 17.345003907238237 14.139396965760819 20.232952654844862
Ba 14.41622122595137 11.088325545786011 19.25332929983627
Ba 13.738103522906853 14.334030338153635 0.8698235237321903
