29
Energy = -38.23968339 eV
Ba 18.257934786409564 0.45701987637429503 10.576081623987516
Ba 17.29931146711516 17.173135335924034 10.40833584819599
Ba 14.046901020511637 20.10544895282052 10.99567416678915
Ba 16.37207898391999 12.80670851427039 10.14178051363988
Ba 20.084281071094537 18.481446671006687 13.366683323161267
Ba 16.517301293786513 20.372987014882995 14.424637092195681
Ba 18.083451225706938 14.472758764828253 13.565647844766962
Ba 13.165345249445817 15.75986659539507 9.686860344140587
Ba 14.36479760537706 16.61202120824876 13.714255712605171
Ba 16.96302087133836 10.406407035719578 14.211904007975564
Ba 10.388313333152313 18.152231006145627 12.02896979293155
Ba 0.8467324298389486 15.316917852469592 15.78024384056901
Ba 17.65209780085644 16.999641959865055 16.860720101316332
Ba 13.084903944106014 12.414622944089379 12.765894364658521
Ba 9.486729375865176 13.975666328047891 11.138631793217415
Ba 12.36923198155504 19.84134095701752 15.560110877678575
Ba 14.755453716620078 13.142447944371675 16.528394983208816
Ba 15.620647107478066 20.236274559873177 18.712989070073643
Ba 12.915580584819326 9.305017717022885 15.798544628138936
Ba 18.698952744382478 12.995244147755841 17.690181821228354
Ba 9.269836715346052 11.154520454247406 14.499011318142877
Ba 16.640018259121007 16.43977959793485 0.007307795157888612
Ba 16.094459119567027 9.752160460365456 18.803095377567626
Ba 10.572677552917675 15.218194487611244 15.10703070798151
Ba 13.247106703612664 16.58501691433998 18.3034085474331
Ba 20.769486227314236 15.985854809560616 20.014700878599072
Ba 18.38528616006974 12.535370926025221 0.8955711257648845
Ba 11.020893243047357 12.327051457425439 18.270118637848242
Ba 14.313707469567111 13.030136841592455 20.86890589816271
