27
Energy = -34.97596487 eV
Ba 14.416374509216432 8.402076163413346 13.138668914221359
Ba 14.314750938008489 12.562999508454967 11.59658200332869
Ba 10.916856359725717 15.455852740936777 12.936961262436192
Ba 12.429103756403746 11.638627655786832 15.430928671235652
Ba 12.582911691378147 19.492125556270476 13.053705319337084
Ba 14.90528473505819 16.91219126095272 10.600413355934089
Ba 19.16997178912857 18.378454626047294 10.517129944162381
Ba 16.89462108032142 11.539048973348521 15.107415403614784
Ba 15.918356658519142 21.27706376571928 10.678235876900194
Ba 18.15933851081297 14.85266093935373 12.596451755406937
Ba 9.508421159614059 18.75552032179917 15.994812084311375
Ba 11.453144055748837 15.338183337959972 17.336491593949138
Ba 0.6435430747183389 15.169092217649917 11.112668627151068
Ba 14.545467637574797 15.417256800395585 14.797431278859252
Ba -0.25088147520557724 13.304858980768882 15.19885317430466
Ba 10.740806793863952 18.08516804574948 20.400255787669266
Ba 17.942953393898275 15.367256642015581 16.92334845025615
Ba 14.962719201128285 12.65486213106291 18.900638988151456
Ba 11.402068637680259 13.729699988670387 -0.3663895489222508
Ba 20.8918447666536 17.688236975398194 14.608252308076834
Ba 18.36167048063501 19.023309973215664 18.54932641571151
Ba 16.85098636157854 18.91801826096818 14.156911376695566
Ba 13.65052445753888 19.159464829224788 17.136418819266595
Ba 0.3040541569535063 16.200426884645243 18.561047540128392
Ba 14.86004083547124 16.583834009670014 20.13085280813663
Ba 18.567234134513647 14.63731397215905 20.97257561511673
Ba 14.987478097117574 13.906280589904917 1.977519542300465
