32
Energy = -44.19681429 eV
Ba 21.985503508082417 18.914637579404452 14.337808847175179
Ba 18.54528302324641 20.312228888990884 11.544955406827203
Ba 1.608428989010638 16.295630556820118 17.848909424412746
Ba 0.6049058314644965 14.300505331931086 14.045585855090831
Ba 20.842238098785757 19.61685927135194 18.83758347993679
Ba 17.814039421034806 20.238131889450436 15.71965498447032
Ba 19.27521370133644 16.169131823400257 12.105095857223958
Ba 15.640686883259677 17.44179699160686 10.002031307424073
Ba 20.174049374628872 15.594696019721752 20.748320173631758
Ba 21.19654456963547 12.318171585840792 17.83131555175657
Ba 18.521674260573434 12.503963255524026 14.396176616141663
Ba 19.788302342736415 16.175640582490285 16.44714967121774
Ba 14.300830463622866 20.326200983095365 12.936255158512155
Ba 16.935771737299756 17.789851009256612 19.0909178074377
Ba 15.640013052483386 13.347425719509705 11.22554228160489
Ba 12.820794983952924 14.548811016464942 8.132962176750222
Ba 15.76870909978575 16.504244630682265 14.534032698609362
Ba 17.115904884822154 13.64982443973317 18.293801036777268
Ba 16.896401913846557 21.784752677951833 20.05957936762772
Ba 17.207252467852804 9.57177112872906 17.51369738738426
Ba 11.394714894090585 17.808177043339615 10.569791857530326
Ba 14.190349377879912 12.526424233884107 15.435676000701715
Ba 13.455963525791296 15.762943844728985 18.391158287478106
Ba 11.490261645292131 17.275477103014158 14.826710244416258
Ba 11.385469492306433 13.872939989313213 12.35295855050523
Ba 13.692491688012927 20.04056953434584 17.402850358808145
Ba 10.142927245706142 13.670736464993427 17.089239016691554
Ba 15.639544067520879 14.837242836012981 -0.006223193535842927
Ba 13.534879950207424 11.592745541767071 19.633037939868696
Ba 9.883611552865297 17.954319942759653 18.921622585659588
Ba 13.518032685220982 18.728383614727747 21.541990941402364
Ba 11.072371078048251 14.748407193263986 21.67432076947879
