35
Energy = -48.60540047 eV
Ba 10.741457929628874 10.71774188884554 7.7603716428338325
Ba 6.1727378490107965 10.163305038153695 12.984662938300568
Ba 10.737455779409949 10.76354676775445 14.353017490568156
Ba 13.494816930128588 6.984042719247873 12.958463630735443
Ba 9.342990868865163 4.411302877562252 11.233081902936783
Ba 5.572461819254242 6.755135362191041 10.097796273057831
Ba 9.960885402598791 6.606446314309047 15.043622571909554
Ba 11.926296028373253 13.119126342222934 4.46278589053911
Ba 8.535633842879298 14.35500847739424 7.067124518117285
Ba 12.913725056292428 14.37064402841316 8.601922818911845
Ba 14.979942393364118 10.81321316128258 7.067889280571091
Ba 12.216814646985412 8.479762761441094 4.471087948825541
Ba 8.048249208257921 10.540269473869555 4.481989069030191
Ba 6.491981727746214 10.786141437589068 8.62768736495861
Ba 9.428457339159056 12.965947940099724 11.162078899470183
Ba 13.341353061117317 10.742479172866851 11.194007465709111
Ba 12.811303902016835 7.0055396470144355 8.610015546168734
Ba 8.680884657056751 6.991243901830821 7.084036936232175
Ba 9.482499601052814 8.47400174237492 11.165215669351001
Ba 14.717892322437155 12.223081397264036 15.06969188651739
Ba 12.562749328441623 15.006749650725242 12.942839725424035
Ba 16.762447518529196 8.24017099410834 10.05565496698675
Ba 16.89106526257125 12.70595774289123 11.19958696035923
Ba 5.966704894092472 15.093361900027807 11.1882616395368
Ba 9.880503569825082 17.20475796778723 10.044999144953575
Ba 7.491884011192443 13.480737841103153 15.037669233874443
Ba 8.07385256561578 9.663989131951306 17.195471838948492
Ba 11.10954299799716 13.627191497140831 17.177541206487444
Ba 13.01655806419563 8.994221782444486 17.16418881557287
Ba 9.027299515331212 17.07578994921112 14.232589114946105
Ba 6.081753575364374 6.079363114038357 14.294028141087407
Ba 17.02909418865908 9.067620184077242 14.241909025192037
Ba 11.415331168531008 17.412729140470844 5.7808308535971324
Ba 4.57752509024158 7.971037896344177 5.83739717803281
Ba 16.19513177002079 6.787624619707635 5.789766274012306
