37
Energy = -51.54399446 eV
Ba 16.21373170907188 0.4915467624705036 14.675836451723635
Ba 12.171781114296175 -0.04421308968149996 12.488558042873866
Ba 19.861015977500486 20.512777246302576 17.15027135342033
Ba 15.34821060180277 19.13108314176337 10.951135268840886
Ba 1.6944255976993408 18.545090168614202 19.302518944380807
Ba 15.688904595516668 19.81881779717539 18.694860582961958
Ba 19.18302090302704 19.01407086835728 13.041915283201018
Ba 0.7809495096119323 17.029083998928346 15.370437264938639
Ba 19.278029906626166 17.947985753168687 20.763707367393433
Ba 11.293604881701233 17.707409872680536 10.0870924593748
Ba 18.612637701819445 17.17515872122407 8.81582305341665
Ba 21.321623129287808 15.43282505226374 11.458255992965723
Ba 14.401575455137229 18.33397658238242 14.958224448546803
Ba 12.050539328957262 0.06342849540802697 16.71323486313167
Ba 0.007082194397897517 14.63719145573373 18.933842928314565
Ba 18.07414517944301 16.58398144022478 16.797910685938994
Ba 1.177810169755991 16.20891769381326 1.4825549608171331
Ba 14.712205369760056 15.314433025209222 8.853479268903952
Ba 17.05502832897522 15.47361348145796 12.667236683913318
Ba 10.193562669175083 17.956029845520796 14.254393198272028
Ba 20.03087041322336 13.206568467025328 14.734288221177597
Ba 9.449719835095593 13.766272006261007 11.441855786179255
Ba 11.877764550323377 17.400795292974518 18.32878759756346
Ba 18.116307410169153 12.589058528208403 9.992490203315803
Ba 15.472362188473982 15.633852531037624 20.45058353697599
Ba 12.963742837746954 14.992250325603095 12.777320605961277
Ba 18.993997056922034 13.860181396562083 0.9320577699261553
Ba 14.246851085755166 14.238426573363228 16.58336942573759
Ba 13.567233366934055 11.573101745306396 10.371181421478651
Ba 17.669363731715062 12.359150641974669 18.354389765215632
Ba 16.144263681379826 11.458477556653529 13.956386282767484
Ba 9.843921934996358 14.1097719607931 16.06571427310701
Ba 11.756596380990116 13.193864129702618 19.92758971374525
Ba 11.817680105430778 10.930545002877917 14.2511197305157
Ba 15.245690372880766 11.414208716887318 0.3341373892850956
Ba 13.978392998037846 10.141774573296917 17.866069074022715
Ba 9.584435122440036 10.003576006751109 17.87918800283636
