39
Energy = -55.6086404 eV
Ba 8.270192758068022 8.465769528448547 10.193580866345739
Ba 13.54480954193197 13.349232771551453 10.193580866345739
Ba 13.14797667347393 17.372680780755093 8.956601796486458
Ba 15.502847738073587 16.220329715934213 12.631847225640719
Ba 11.12875517873463 15.554228897751061 12.46779419273159
Ba 16.950884435677985 14.784660421593243 8.469521707103969
Ba 9.772117563916815 14.706931211151998 8.534264015150612
Ba 13.88032106940665 12.828061121500669 14.786889075766151
Ba 17.010284841108653 11.680064977551238 11.818817406114746
Ba 13.267850337315824 13.76479725862509 5.951970429633835
Ba 9.076422760140334 12.021811405760992 12.109333728815228
Ba 12.73857953985967 9.793190894239006 12.109333728815228
Ba 10.90750115 10.90750115 8.187913299549026
Ba 15.321710954614497 10.169233393915457 8.01165922668467
Ba 12.042884736083183 7.108071088848005 8.534264015150612
Ba 6.4932913453855 11.645768906084554 8.01165922668467
Ba 7.934681230593347 8.986941178499329 14.786889075766151
Ba 4.804717458891347 10.13493732244876 11.818817406114746
Ba 8.547151962684172 8.050205041374923 5.951970429633835
Ba 10.686247121265367 6.260773402248935 12.46779419273159
Ba 8.667025626526076 4.442321519244898 8.956601796486458
Ba 4.86411786432201 7.030341878406752 8.469521707103969
Ba 6.312154561926417 5.594672584065774 12.631847225640719
Ba 12.686582454652223 9.18703718010858 4.710997911384052
Ba 9.128419845347926 12.627965119891417 4.710997911384052
Ba 6.481421366572305 16.187874892029328 6.676400790584679
Ba 6.237942526491983 14.886368174779061 11.067322035509955
Ba 8.755892367722236 18.4462376050919 10.319618352233006
Ba 7.952340121196468 16.753669900288045 14.632393714808012
Ba 5.7336710905969035 12.959195717231701 15.014816141305248
Ba 12.348462360757763 16.87130744169281 16.12554486805858
Ba 9.890979823098364 13.047416385021128 16.122942299301773
Ba 15.333580933427685 5.627127407970682 6.676400790584679
Ba 15.577059773508013 6.9286341252209445 11.067322035509955
Ba 13.059109932277758 3.368764694908094 10.319618352233006
Ba 13.862662178803545 5.061332399711956 14.632393714808012
Ba 16.081331209403096 8.855806582768302 15.014816141305248
Ba 9.466539939242233 4.94369485830719 16.12554486805858
Ba 11.92402247690162 8.76758591497888 16.122942299301773
