36
Energy = -49.68741699 eV
Ba 11.794919578871557 18.724815414487775 0.981420619421664
Ba 15.169139577740106 20.448739517912923 3.1441947955933993
Ba 12.154400465072097 15.113839242498809 20.761328424412604
Ba 11.240387866970604 19.139702024853424 18.99791038984676
Ba 15.622959736035995 17.01029162952554 0.4674756740740363
Ba 14.709282577473807 20.790998930987303 20.912357395573785
Ba 11.482299237213063 15.724203542600955 16.340088819416582
Ba 12.924974997484592 11.73523683985005 17.81038943023299
Ba 10.614874310104067 19.703150147927136 14.69605734092692
Ba 16.3166201185798 13.342858903840302 20.272948811750418
Ba 14.347041273975755 20.73803656920016 16.23388382686538
Ba 15.20950718409082 17.098092524042066 18.378959553583837
Ba 18.56534294262842 20.23902381973888 0.40648951456736304
Ba 14.915983677129022 9.433093185556547 14.47570533135331
Ba 13.017510913509344 13.074733317746164 13.245447201905154
Ba 20.04054631502933 12.974696311053298 17.844034282230346
Ba 10.738592373669775 16.599037299439473 11.933438749295647
Ba 16.209931319819887 13.382649827657099 15.941250115152796
Ba 17.123009075635554 9.639028386404707 18.07028350040302
Ba 18.276524020851856 20.43288629098862 18.227803739083253
Ba 19.34142370004922 16.66339869887452 20.306811582046606
Ba 19.015606637893374 16.76114016131263 15.951117785333137
Ba -0.08666489507149336 20.023745838435005 20.061819993919492
Ba 14.705382602590266 17.097839437390178 13.887301284675166
Ba 13.626888256559951 20.125858229875288 11.421175306062155
Ba 16.079111053534056 11.414711892323163 10.784575855121691
Ba 19.071113122673992 10.889061502547433 14.058938782234423
Ba 17.738171416480483 20.177304622479536 13.69087085724353
Ba 18.072678263525084 14.883734245468643 12.227652178398012
Ba 0.6357208816489156 16.440362169076106 17.752255165626828
Ba 21.83538427776462 20.064325063339034 15.765244784001405
Ba 22.124649573593345 14.2187260955386 14.094610639916526
Ba 14.372313708304643 15.499881132371412 9.822739831383622
Ba 17.41916547764983 18.53101360787978 9.763511232777033
Ba 21.243389204943647 18.025400060675093 12.09780811509634
Ba 2.803522331482622 17.6389025220945 14.197007389543803
