32
Energy = -43.4165921 eV
Ba 3.0161215023423917 14.142679395730312 13.563883632895106
Ba 20.75364825917625 16.09324053999174 12.961240162320099
Ba 16.602281464852826 17.99810262080417 12.370345246514479
Ba 12.60823057317164 19.61829100097516 11.565901701959774
Ba 15.594740548318905 0.12127881948653746 14.228883806547065
Ba 19.63566301235419 19.758596957007086 14.972246262604095
Ba 1.781633019320115 17.878412877411872 15.578285763636321
Ba 20.914793263139227 11.785964609368616 13.181728549050767
Ba 12.869142350511224 15.253863511642287 12.652939266690947
Ba 17.050197613311145 13.65703704384316 12.16540199833597
Ba 13.56679115130709 0.7618765098085036 18.201670732257625
Ba 16.820334302029934 19.88599093343296 18.322993052321397
Ba 17.564002795467978 15.849633935068137 16.085645572168772
Ba 21.686166593060303 14.16223466869547 16.70047720066923
Ba 11.08647502907216 0.022060324358549856 14.871601176413455
Ba 16.96059729403537 9.544039225355624 12.965076431671582
Ba 18.327006558266966 11.278288750928716 16.695943516724668
Ba 13.76112516258558 18.43080512690166 15.571823744430668
Ba 12.716140224353392 10.795668140102446 12.556412813619135
Ba 14.72517741693629 12.704141320052083 15.495336982361403
Ba 8.992796620999304 13.279133364239854 13.667233439011579
Ba 20.57276777603897 17.7107657888103 18.78150946858808
Ba 10.919846416540508 19.103396017025926 18.49466849693751
Ba 14.649378471146564 8.497205200378106 16.390929623440453
Ba 17.657209612023106 17.728424392491057 0.23567269375321215
Ba 9.55195224773761 17.725441551170917 14.278718257374754
Ba 13.990576270149075 20.105684897263373 -0.16978630358691357
Ba 18.363777045198596 14.095785304489153 19.90750718635906
Ba 14.572360296102488 16.3159824846339 19.41563087401991
Ba 11.423370233439686 14.852042821577784 16.948052996398115
Ba 11.050245806251231 10.677535223475681 16.580797192171413
Ba 14.513832454792428 11.870307811713905 19.418345804876225
