34
Energy = -47.09227626 eV
Ba 0.09158592627067971 19.07704680624008 18.220711160262017
Ba 14.13491859592861 18.68078170729045 20.751005475850082
Ba 18.382362897166256 16.913621488237446 -0.9467476428708731
Ba 17.54010107927549 20.92535534744317 18.98110515659025
Ba 13.384086260323821 0.8963283961643017 18.91896557927842
Ba 14.93983475495597 14.899853466913504 0.9838077839262249
Ba 20.68132091809677 14.473275266013626 17.637794124037057
Ba 11.864998045469092 14.384451373345684 19.576619648436694
Ba 11.372685464773667 18.602358485012708 17.356636231833548
Ba 12.106407851689182 1.3693547380185376 14.899535815804354
Ba 18.34473866435256 17.700792072349344 16.312386012737534
Ba 15.09617567749076 15.96060257420974 17.82387427427081
Ba 17.17714111083764 12.658462201155153 19.7401340996127
Ba 14.984662399240943 19.951746861090097 15.831833957072151
Ba 14.713305137960235 16.30807804346432 13.509483710468436
Ba 13.38538771050901 10.929686753053252 -0.11629071460771248
Ba 15.45668161201829 0.09980331658080505 12.143259347197631
Ba 19.274908419564145 -0.2191443695653204 14.832346429162392
Ba 15.684838316859738 8.63036930767751 18.71945689806394
Ba 18.216548558420143 14.192022801488822 14.232990300131235
Ba 11.809285143231904 10.39632140415344 17.07569955595695
Ba 0.2182196970183365 17.080526706559514 14.143640789655358
Ba 11.719581047967688 19.05029269959546 12.965272220585028
Ba 11.415081317079508 14.650626944615023 15.223446444355092
Ba 19.046338620190326 10.326289521397065 16.2583142256734
Ba 14.453944063644068 18.345326961486965 9.541487718423095
Ba 15.275200447406533 12.136755464253733 16.098737638730643
Ba 18.1613052055119 18.053052947655605 11.9278030528366
Ba 20.530852953347072 14.191862132862148 10.855353037335254
Ba 15.237670557278859 8.202590980073845 14.496574660925035
Ba 11.666331276595356 15.235620431719004 10.64287889631807
Ba 13.43876901592313 11.73703195931879 12.538446483630624
Ba 16.174993887642255 14.349491026728465 10.074474744190983
Ba 17.76550607949131 10.782978342754372 12.024513576211811
