30
Energy = -41.09255208 eV
Ba 16.537821262128922 12.799887342515651 8.523666419589853
Ba 14.27282033544652 15.101333593602796 11.31229825343125
Ba 14.86279408399957 19.462625674053562 11.869513251984108
Ba 10.610752073612833 17.72227945109478 11.120868327819448
Ba 13.894741135626997 10.815503144541008 11.817736351764001
Ba 18.433866707521315 16.54671270196167 10.607162655223982
Ba 17.83072658541051 12.76270254813383 12.744907648798577
Ba 10.59823615855246 13.512851069326276 13.204231252744844
Ba 11.226419090995408 20.974750873742448 14.14409553978533
Ba 16.72847629091881 16.52082449370262 14.44345005144372
Ba 19.171823383262772 19.924265353082514 14.054800929897409
Ba 15.208080452493546 20.308854583186665 16.231195416807488
Ba 14.286660692793024 13.246379991390437 15.29390596048451
Ba 12.524997654886597 17.11777095381361 14.741396795665443
Ba 20.884066283970608 15.81240938223929 14.705218534120117
Ba 11.918936721758499 10.090853889062346 16.015541675458863
Ba 10.842466273222916 14.328545209393353 17.679327698501734
Ba 18.036482649773063 13.461660742887103 17.309791511596597
Ba 11.502191926824239 19.114847917570454 18.37875660772598
Ba 18.53225720213294 17.86886030487465 17.806465807822157
Ba 0.4073632531252818 19.201714870631815 17.407666839443905
Ba 19.04230784396239 -0.03069668724080706 18.27553927283211
Ba 21.406190471156243 15.159992172476873 19.44947086791436
Ba 14.500983645789624 12.118750016034024 19.50324011515596
Ba 14.647067928280904 16.29747347495936 18.21414360689361
Ba 15.795470452465523 19.7927599965965 20.55668927241447
Ba 20.2243923586418 18.872516406673068 21.504432000111308
Ba 19.08407115557651 11.668350819195702 21.221661424611806
Ba 17.30945353425123 15.526134753930409 -0.7000511769698845
Ba 20.739008869174544 14.964238869797425 1.8325511227705154
