35
Energy = -48.89878455 eV
Ba 20.493088665587248 14.363542054972607 13.183075678698591
Ba 21.11286719918589 16.172469959676157 9.182100671224347
Ba 18.273067061928934 19.194133232977343 9.800719746422235
Ba 18.951700869436678 12.576475631743019 8.385213556206947
Ba 21.059545892401566 16.60555080454513 17.253190412432193
Ba 17.06181547240997 15.41410355647024 10.969111491653068
Ba -0.7383717844631338 18.740267192467332 12.842492390471403
Ba 17.86864568288034 -0.2896148801713412 13.235974342520848
Ba 20.40572930069118 20.94224871722816 16.68173610298601
Ba 17.37535842561815 11.220822581378252 12.45309615572761
Ba 14.592878211929571 12.48204470472956 9.121686200352803
Ba 14.726927987993793 19.054381554574334 12.208617473339011
Ba 15.538991358712936 14.235894643694413 14.616508481357625
Ba 17.95373289324055 17.817053618777575 14.647437024529397
Ba 18.6695775941768 12.964503953426274 17.091009843625084
Ba 12.685454814979199 15.442876206863428 11.702769318962417
Ba 12.954805743893392 11.319206355135899 13.430935275719031
Ba 19.237774559230928 14.978978611395144 21.387159631279918
Ba 15.89976140262641 9.791264599435058 16.43519084058359
Ba 18.794626322131197 19.16283727595367 20.31618617095221
Ba 16.3610557870082 16.194753794292353 18.678791490001565
Ba 15.985318905431697 20.848906555761495 17.20520831698327
Ba 13.540504106658206 17.641357689655063 15.984513910959262
Ba 10.44763076324732 18.911084796454027 13.684692801862457
Ba 16.692818053739025 11.558031868454012 20.780033927925878
Ba 13.210504010312507 0.08813353843829141 14.2882175930245
Ba 10.569773959221187 14.741556349138625 15.405680565241518
Ba 13.619612448105865 13.014137159109913 18.074983073486273
Ba 16.755653280630153 16.296856513988466 6.822241110129527
Ba 17.306534467597665 17.59403789430778 2.0123866893065654
Ba 17.476548121733025 13.200145376562487 3.208075792284317
Ba 14.379504846642542 19.19911611700632 20.93375299510814
Ba 11.36433437069613 20.619892006701615 17.784113501352923
Ba 14.609332786329734 14.925406208996638 0.14591516060620088
Ba 11.420310688956329 16.452120832468864 19.412990308039493
