39
Energy = -53.68518344 eV
Ba 18.35886745341573 13.567811326768187 23.941871589574024
Ba 14.921283058025562 13.54971212396684 20.744173793309688
Ba 12.063909067650528 14.47925968831326 17.16220543304975
Ba 18.09044653858047 16.563525365651987 3.698463965644839
Ba 15.386587474142036 16.622871999223452 0.012864543139691077
Ba 19.23647199441325 12.342354387428255 19.671120405977202
Ba 12.634881840210229 17.279765355434858 20.77895411325349
Ba 16.50537647515183 13.78905662273128 16.534345715019608
Ba 22.139036033863995 14.493846515033663 21.94067577696195
Ba 20.535731739624453 11.984280734462152 15.601570883098159
Ba 23.2299987605747 10.824502102641642 19.260992685600403
Ba 10.21571553696595 16.26034120452205 13.787432143336625
Ba 19.60162311283832 17.74568785316208 23.807335522681168
Ba 18.04845248200954 16.19492223836566 20.184081516851307
Ba 14.85104178905091 17.77525748473133 17.251780191008212
Ba 14.24935989314427 15.508192535016336 13.194143286459774
Ba 10.269625143126586 18.410382361529912 17.23261382336877
Ba 16.935828627621976 20.636106838794745 1.4038598859065488
Ba 16.234517822023246 19.68139288690981 21.345395615418482
Ba 18.419304577798297 14.65656109681198 12.527318823187354
Ba 16.728447388224794 17.407704127459027 9.577782800953585
Ba 19.653938035795168 16.634732723224676 16.06655460915211
Ba 22.90550468635235 14.834999914510162 17.732625270730182
Ba 20.597273681507215 15.134801507256611 8.767733037086082
Ba 13.129879489032298 21.353809587623296 18.719832108320684
Ba 12.677895901800822 19.68248103787105 13.883773645726771
Ba 21.6981600403851 18.458185760389444 19.841139044234183
Ba 16.99345207630509 18.745118516503602 13.771543544173943
Ba 19.93244898666336 21.69919862584944 22.123455965407928
Ba 18.464411066313705 20.637755910151274 17.883367349760626
Ba 20.64524492751429 18.364196049201162 11.752410483992952
Ba 22.713932791585584 14.940917324174267 13.18252559182162
Ba 16.449814220303363 -0.2205688842399227 20.14744306943361
Ba 15.656657806496986 22.57284063061523 15.437804975672359
Ba 23.0252894199948 18.95315822139377 15.593795349882335
Ba 20.034337885424517 21.860162325363763 14.219336564435023
Ba 22.212503709845855 22.720943154219874 18.215609030732104
Ba 20.276392958706698 1.4965696623323301 20.673512308742488
Ba 18.91487358802474 1.0572957980744315 16.856230532994193
