31
Energy = -43.24133151 eV
Ba -0.009670902245119564 17.38079268868916 13.514116884341625
Ba 20.006130737725673 13.058815466596352 12.19956174361179
Ba 20.7736178802824 17.136761319065716 18.303291984089388
Ba 18.64808546091649 10.288623874245449 16.21226204331426
Ba 16.472746797948155 13.078148886071082 9.28578310049333
Ba 19.669111739870964 16.511590457972755 9.138821648291385
Ba 17.368923406873396 18.96538494856304 15.648972764470058
Ba 15.885973317652962 12.237209651689822 13.493074712814652
Ba 18.898737587295045 12.974099643544855 19.91225772855746
Ba 17.80841474896793 20.222675051871786 11.408053940654895
Ba 15.369669542656117 17.524906145783344 8.637380100809617
Ba 18.476413049900305 14.675688108768123 15.921636508446204
Ba 17.01381477047767 16.12616886124262 12.199925414382221
Ba 16.33697002133689 16.539870960873433 19.2759347223135
Ba 16.034906873619963 9.22045281423073 19.903716948012097
Ba 14.820763397887742 1.7386502907170085 14.473263972603007
Ba 15.284502341107512 12.519174448512997 17.700404680392506
Ba 14.251677897044248 8.86431611606561 15.68699975449067
Ba 13.787663797233401 18.96281089233571 12.731090170149315
Ba 13.206480223365219 19.374453748825275 17.24059146449104
Ba 14.661038104117695 13.04500413197381 0.8693238359407495
Ba 12.929024826025618 14.720164241496242 11.359756337554975
Ba 11.6822648937024 10.807059068539779 19.102932365308913
Ba 14.422860440370265 15.78937859773119 15.367264485935063
Ba 13.117250601225154 10.176882426476071 11.161067603031876
Ba 11.68269181043849 12.440682198219898 14.975452709691174
Ba 11.993618516649496 15.192842342006784 18.719889159977942
Ba 10.388913991804273 0.1918962642957144 14.626056003314725
Ba 8.152365473404593 13.900980017330077 17.49679760342139
Ba 10.38409717599958 16.665750930981037 14.693154606555671
Ba 9.000001120797247 18.424220616633306 18.207367969404505
