35
Energy = -48.14071409 eV
Ba 20.731539721486232 16.19101866499317 9.864918579528485
Ba 17.565678915566185 17.538239703190108 7.462925058273615
Ba 17.61807739350146 13.495599622611357 9.205605312892176
Ba 14.546543279581497 14.71993633640541 6.1999644867249755
Ba 20.990124747087858 12.857107368815774 12.786810493713189
Ba 16.53699522451627 11.288080593283043 12.83707899788858
Ba -0.28579809965637254 17.429801678477354 13.717237462325285
Ba 18.929283426124773 11.145708908024584 16.514422762361885
Ba 18.115677681776756 19.415473855093797 11.642027606142669
Ba 14.693171255780042 16.574327048228696 10.331880576070127
Ba 13.428143369804799 12.479451605363016 9.901889842807336
Ba 17.811899411123967 15.436304652719214 13.174005249078196
Ba 14.759572288709503 10.914834610090963 16.691818743212917
Ba 20.819369812480982 14.965315669061642 17.04114458190855
Ba 16.86829141601541 8.842029303757387 19.7928121819039
Ba 0.31838508163056284 19.087006960054243 17.861376878451985
Ba 12.068774613695789 10.098066741773431 13.439373120875976
Ba 16.344724215053265 14.930357685688989 17.318830713115595
Ba 18.667057084717595 18.61915309872104 16.083916154894844
Ba 13.433294089994515 14.134987228026054 13.971902630501523
Ba 18.253435188565824 12.916832258884414 20.488380022659136
Ba 13.872453304888374 12.21296352088146 20.50066175862388
Ba 14.68446885332535 18.301736166323277 14.486573099571464
Ba 19.036389772621366 17.420917972963625 20.245551477274294
Ba 10.877812452933075 12.452020302048638 17.37772885501027
Ba 15.494826072889573 19.28188751779026 18.62843610701455
Ba 16.251531165886405 0.06679334165693439 15.563278331831134
Ba 15.015134732785663 16.167190010294572 21.59566387287248
Ba 10.648007229015422 15.010585581442228 21.416676808313998
Ba 12.412851878558241 16.46722744234306 17.831462524663372
Ba 18.93177577962415 21.725785671927838 19.158521812269644
Ba 12.048086849440281 21.023813701517184 16.935088895101767
Ba 16.3763845836578 20.260638093705893 0.4673560428353486
Ba 12.118867653004848 19.45397259523329 21.202624516714696
Ba 14.60455871637804 0.9923599504693322 19.793938415027778
