38
Energy = -51.58230264 eV
Ba 16.55225928781833 2.789961008706489 14.811284406572295
Ba 14.559958050810122 0.21637721734407522 17.427892851107472
Ba 12.851960530290635 19.598062525174203 19.666207341314408
Ba 17.244500851205554 19.73338462655704 19.332496114093658
Ba 11.127799416093467 16.14026231685067 21.524729352499214
Ba 18.971788030053343 22.7611444177781 16.78818123699407
Ba 15.551586989361562 16.412600919134515 21.629741230347772
Ba 9.688318178499957 16.56157434578045 17.550878384411433
Ba 19.942677736496545 16.632176484035362 21.48329091536834
Ba 11.774304146407564 19.87063870182571 15.468623352200657
Ba 13.610025243451386 0.3588672060603557 13.265156143432408
Ba 21.605405554472544 19.710737448084142 18.948071380627617
Ba 17.748123759925768 22.285551867428552 12.54686374155159
Ba 15.935447832162202 19.447201214764874 15.280109254071531
Ba 13.965039397693271 16.07488231889819 17.664594568576213
Ba 9.09170934319957 13.055789445900118 19.805894363543754
Ba 22.254050506074254 15.12544431404723 2.091643840517925
Ba 18.204380800124994 13.591632268136635 1.3361674293661097
Ba 13.266089744845786 12.658878314894233 20.387011046933925
Ba 12.362314522334392 15.914290287736604 13.67951916340071
Ba 14.183879202385034 19.239562753751432 11.496568243538134
Ba 11.35282550130599 12.576493609070557 16.271238955592388
Ba 18.429005717082326 16.080011784441638 17.392605918082886
Ba 17.59433846655623 12.936796785550834 20.033453832406316
Ba 20.208881124404474 19.065621808524515 14.972592276723445
Ba 21.75473634176269 13.06760636935085 20.921090171752137
Ba 16.572962383126665 15.363222627746635 13.433672186072007
Ba 15.66222899960437 12.27688006243521 16.297382684285388
Ba 1.4836857448937533 16.834717619267522 21.35252948454606
Ba 18.418439716539254 18.218771468595264 11.067772322060675
Ba 13.729872520296702 11.991077817284507 12.423501503164072
Ba 14.743441796738885 15.328663928606392 9.573867015651874
Ba -0.20190404556372102 15.731361097988591 17.515240750664972
Ba 20.1242694558391 12.14725079283666 16.59252816839867
Ba 20.802897180709873 15.080693200832206 13.425525551962371
Ba 18.178120715746747 11.395665548087683 12.576280968856164
Ba 18.905948660683254 14.248864830604052 9.500188888842162
Ba 16.02500901091649 11.385607518618338 8.964147984109804
