37
Energy = -52.14774544 eV
Ba 15.32947149077955 14.956647017539595 1.4001606016928736
Ba 14.12045311658684 14.47702636455517 19.239250779236496
Ba 11.300613667118963 12.38099787567369 15.913068066142916
Ba 13.571420797746413 9.003934542642302 13.93674990631743
Ba 15.516477051987168 10.972509693576294 17.255505450311087
Ba 18.237430054595414 13.003001520647414 20.508107406750504
Ba 17.809432097963423 7.838894349186558 14.82793616174996
Ba 19.696729386569597 15.966000574552638 1.6350107623977654
Ba 13.112369662291092 18.31599252428354 21.184959675687818
Ba 11.078852758290987 16.924170967933783 17.091013589953462
Ba 16.46119173602118 19.20037296465657 2.0447723596978173
Ba 10.53902032332164 15.798760552214251 12.929170476149254
Ba 19.686026056479918 11.196993392568809 16.7273297846226
Ba 17.357890702541948 17.22127436192559 20.63316843340282
Ba 14.414477662293798 14.769178092731897 14.898217006339404
Ba 12.834611442876467 12.615765548494071 11.645460352082551
Ba 12.105090934620947 21.21807878763838 17.495838710289284
Ba 9.179389786106444 19.789005413833795 14.429217430308606
Ba 12.253512877485695 0.8691094879136031 13.277148208990603
Ba 20.20639570970791 20.00326187814967 21.996650436641197
Ba 18.261555129499744 15.135642041216732 16.712402368877424
Ba 16.878470836314893 11.747715531480276 13.172652995399796
Ba 13.338748192417496 18.886273612354945 13.766042336049649
Ba 15.191785464039263 18.26846512190874 17.410644866091026
Ba 21.403668000904293 16.232037145638483 19.386169152415807
Ba 21.181579011922707 10.504746715863016 12.943834736211581
Ba 16.087643906612914 21.42879998098002 20.23356528917855
Ba 17.695444724434854 18.381216195493643 14.015306699022798
Ba 15.744820240985685 16.1218828659592 10.99502484480553
Ba 0.5546356569665502 13.823405013518352 15.779966230079468
Ba 19.29967524993327 19.854760043019848 17.646063098659006
Ba 19.79133875642156 14.742510109718928 12.727900265839335
Ba 16.060252509518847 21.06683087339341 11.240237484383869
Ba -0.24153222671586427 17.958512968492602 14.770077237159553
Ba 15.936751884656406 -0.020323449418122086 15.584861820172277
Ba 19.844196644078263 18.699951144373006 10.520664621748699
Ba 19.880881168549493 21.90723916193252 13.532000410483494
