34
Energy = -45.82279248 eV
Ba 20.36451684397211 9.186954725947201 19.986863359165785
Ba 19.623186521509346 13.435937099001647 19.342269737632744
Ba 17.49053788153913 11.495206858564021 0.828775458220917
Ba 20.104239035979653 10.871141986562245 15.80970585277214
Ba 16.57160262678375 10.633480565395574 18.40265410667399
Ba 19.436865524492106 15.198732067828104 15.088783339383129
Ba 19.13096462262655 17.724391165969607 18.778248689567047
Ba 16.694982593217453 15.916894018567364 0.22509420214672987
Ba 19.784725433295996 12.693427164922047 11.452347907793236
Ba 15.865552345572056 14.858375003824591 17.735430935533195
Ba 18.01339199025551 20.276099899495605 0.37333778314011334
Ba 13.518524772012146 12.950819787040217 20.909298725943575
Ba 16.259080206854538 12.302688854640015 14.112060405830439
Ba 21.016579273169274 17.17307173918255 11.535902599090429
Ba 20.713447462327903 19.52475848005197 15.083488230731602
Ba 12.702668584240497 11.853678308442838 16.797508269771157
Ba 16.526194173252485 18.424648291140592 15.215860021552555
Ba 12.117898580542695 11.685634893628212 12.441441674256092
Ba 13.269716262487128 15.462849112074307 14.21079693292355
Ba 14.831326419516945 18.924222738228014 19.206466105947307
Ba 17.89535686775928 0.09204771713332267 17.785642017959844
Ba 19.39880662054304 1.738579891914622 14.070324257561978
Ba 11.62951171804625 15.958951917930605 18.26105566807212
Ba 9.289188558082008 12.316504180614137 19.35350139676107
Ba 18.00247357750074 20.240936915480816 11.653438495901542
Ba 8.819684511710022 13.740450351961062 10.836771425037906
Ba 16.77915618259636 15.925288274913349 11.61050959277784
Ba 15.473524939310515 12.095473405421423 9.831087131072195
Ba 12.237286258164387 19.48965581982921 15.709232161199667
Ba 15.274559374193773 0.7621151269069775 14.421938992751448
Ba 9.263559505528416 13.902867920381581 15.146640716901638
Ba 12.633639196241841 15.332832226225275 9.988437419473463
Ba 13.727462097289488 19.242991973852366 11.691732162382618
Ba 9.782412863119456 17.417679641008213 12.696564685884871
