31
Energy = -41.9003829 eV
Ba 20.27996033880654 14.024500811245725 0.4398765807509929
Ba 16.38846244065975 15.262992132709863 0.5624566079562527
Ba 19.47627530510526 17.94024376330506 21.269176495944254
Ba 17.570888611786632 12.357515082065813 19.69447755656707
Ba 21.2361417836642 14.847833857840259 18.582041338606643
Ba 20.067794611079393 18.443059679416542 16.655060699758447
Ba 13.421957983064278 14.234230949969843 19.48419640121559
Ba 14.041658973332742 18.44220993478332 20.880770087018895
Ba 16.83515726482123 16.405454592788615 18.246300528642475
Ba 14.69998627229948 11.314768450344806 16.419622618983812
Ba 17.16253310757621 20.818064738399144 18.897307006886642
Ba 18.50684888487679 13.552643141429387 15.488455284310417
Ba 10.120596627190178 13.27298371237182 16.50295924914453
Ba 10.394369146689067 17.11748624922594 18.369823165066705
Ba 0.26349291259270474 15.731540422355614 14.031531565236671
Ba 21.365648087966676 20.03884424995624 12.836963705321406
Ba 17.26019248036048 20.835781355420554 14.446141871123766
Ba 18.34078720679877 16.887274249654656 12.983778494930165
Ba 19.863278774555262 13.22813479593042 11.194385276068898
Ba 13.67562262565134 15.17914129721321 15.27197297411501
Ba 8.275951182253781 13.80785191941486 12.686360040790381
Ba 15.691844074578526 13.172715059979573 12.265434800563861
Ba 13.759952389823457 19.190550920341753 16.558470231483653
Ba 6.581201095594408 15.926939112313113 16.16104002091508
Ba 21.067412828678506 17.051648656079966 9.67194247860059
Ba 11.826494541812789 11.4449859571028 13.083361952446833
Ba 17.90949068500249 20.05694235299341 10.090408477078336
Ba 16.647534056492454 15.934796677417859 9.131398454277388
Ba 14.418807606656385 18.227262837099612 12.27895423929921
Ba 10.266563614234359 17.26945427857219 14.08278351782229
Ba 12.064732496670937 15.018697123679887 10.739152702948301
