45
Energy = -63.91383547 eV
Ba 19.64485331562602 18.765908040700804 11.619328759505509
Ba 20.807712379136102 14.450319541119235 10.741170850652232
Ba 15.667960030277113 19.5881910219675 9.6282238658509
Ba 16.723209642700844 15.772351395009562 11.238088343282785
Ba 21.760380400251393 16.102170139430505 14.483920749471723
Ba 22.380578051271897 11.806327847377458 14.249615197673137
Ba 18.294609084657882 13.084837486011061 13.977875840297543
Ba 0.6887467444766644 9.975363940040886 17.816960197914387
Ba 21.270662274254015 20.116636175934417 15.524164535637125
Ba 0.4013914168813041 14.144198998664546 17.500181101168767
Ba 17.705280331726303 17.49813486080037 15.296983275035123
Ba 20.97852331044913 17.217816899590204 18.602364934761365
Ba 12.477321257615838 22.06274932287558 11.670825549273665
Ba 19.99274657251087 9.41431387806755 17.12723428050993
Ba 15.599858455584453 14.631432601293067 17.500383683196194
Ba 13.90456514814396 13.537526411757993 13.803170548470122
Ba 13.774363499700339 18.091875242345402 13.449415903771621
Ba 19.96180569203922 0.49507196665077025 15.489151521865086
Ba 16.6971953520299 21.45054813834742 13.398745710757224
Ba 19.802660294910776 13.451711049215293 17.797593834532744
Ba 15.83659826591253 10.459659468677554 16.292534919713486
Ba 21.66404832507476 11.229458553304497 20.830840782421433
Ba 15.637835093863506 1.551215102636073 15.803815298647152
Ba 11.06306786874058 15.68372064799184 16.23983237197497
Ba 13.843143831056466 18.418462370449745 17.836804765408036
Ba 17.34622898062435 17.943728232249942 20.10220639879264
Ba 9.791055841021908 19.481111456471815 14.765148486780891
Ba 16.994208356229162 11.303846987901583 20.318692062644097
Ba 21.22223948222605 21.804396248442675 19.34946633141511
Ba 14.770397428165786 14.932039216057756 21.686039506514188
Ba 1.1268088978996003 18.589085882241463 18.30707207187197
Ba 17.29982499437899 21.46798336255356 17.57865508431281
Ba 13.083916062069695 21.83579779363364 15.792529765039943
Ba 7.304069141481387 17.168842223192954 17.89846115829943
Ba 0.06414689941848647 15.183321719019448 21.428919001673076
Ba 12.488717110853875 12.248362700752933 18.67913693388824
Ba 18.1832390275524 1.5467922335565163 19.473734054790615
Ba 21.174449697082476 18.733284606031646 22.485059102400868
Ba 19.303059892312206 14.713953760266119 21.978697435698066
Ba 10.92666262392925 16.153964193216872 20.386707954387
Ba 17.160546196378004 17.80040018717449 0.7546325221687474
Ba 10.318216968557897 20.281152317955605 18.98038770241735
Ba 13.67840790943881 19.294315017413705 22.009210778058414
Ba 14.086629815282514 23.065830959811535 19.747745496663477
Ba 17.620934407758305 21.555817945411853 22.07347659560684
