43
Energy = -59.99938003 eV
Ba 19.961556773009605 9.808398829374575 14.598816005029622
Ba 22.396341229665826 13.060387863409325 16.470051861004546
Ba 22.23237398364575 16.158416540434967 13.321335488586152
Ba 1.809942263024318 15.315439303870074 15.57795021945365
Ba 18.062671757818762 17.369990842103075 11.560397831927936
Ba 18.57062608218385 13.970535823516604 14.07363829164632
Ba 17.49476162096115 7.822204024068844 17.727882947307755
Ba 18.421810680742563 12.11988015073386 17.910579612974818
Ba 24.049305021440137 19.10112579459828 16.010562261738585
Ba 21.25360924274176 12.786514359417401 20.786871050505592
Ba 20.31741650934331 20.107636222252307 14.179255118694961
Ba 15.624274245463086 10.968418220464947 14.868125763849083
Ba 19.920275829746735 16.60135414080216 17.098425852068072
Ba 14.449848618048938 14.891415582729058 13.290840949573976
Ba 22.41727990274015 23.46128840371602 16.475282434040597
Ba 16.106712654914652 18.766710556063394 14.999451101684064
Ba 16.676456072132865 21.614277816351457 12.022409498549987
Ba 23.653286566651403 16.26256040328607 19.277424698691235
Ba 14.539041207113813 10.898562693607348 18.898718934382007
Ba 15.475624113559293 15.149986401601074 17.308918307990673
Ba 17.731417851350958 10.116520620617418 21.70826278218317
Ba 19.592966471077848 0.25251651823232807 13.238337517636822
Ba 13.793677255096242 18.4861118212235 11.129774672992935
Ba 16.111819209727287 14.232278812905578 21.307081235429678
Ba 21.278495700071712 20.19220754085708 19.105246807076178
Ba 11.860277574745954 14.09458745529601 19.52609679186875
Ba 13.335687129072635 11.163780785158712 22.920613546635995
Ba 18.187067520398177 22.496565073528505 16.880236302786344
Ba 19.103607151630186 2.6594959993131995 16.793904500416875
Ba 19.884448413416287 16.743200681831414 21.63715157643489
Ba 17.066022250502105 19.02145600610504 19.46130530331671
Ba 12.759878667091513 21.55088102406431 13.853953811629736
Ba 12.160629608289053 17.646170549395254 16.06127641494615
Ba 12.470520240796862 15.37435356068197 23.809909644193624
Ba 15.424993330336957 0.7196665875404397 14.979634062169982
Ba 20.1789748112076 0.14667613477899683 20.291973786149008
Ba 13.952412514636892 21.565222206670704 17.842442986460714
Ba 19.020702916024725 21.031257571543296 22.74625839584293
Ba 13.195697857837908 18.00027663171503 20.43535286643316
Ba 16.097473257148085 17.89226464650733 -0.5050571967517031
Ba 16.0303865249729 0.9033323450642416 19.518510962398125
Ba 14.898355676981458 21.778742846227892 22.12717353603064
Ba 17.455338914608667 0.8691152745271412 23.662149520271196
