46
Energy = -68.04675528 eV
Ba 20.590339291611006 15.088361613943878 12.260143466775467
Ba 20.65794862652873 19.364712250350717 11.062656473302193
Ba 17.65977965050882 20.069235173250643 7.380462561744558
Ba 19.567912657734347 16.093285336707112 7.7963086445605505
Ba -1.1534099392164703 18.00738072065651 15.668060428922278
Ba 20.53775938855258 22.07055057527376 15.19980439180543
Ba 16.95371845942142 21.680758378380634 11.835509260919453
Ba -0.2386087976128025 13.699742969251718 16.46991275858931
Ba 18.139476231103153 18.40401948044381 14.544230121904423
Ba 13.400295356275691 19.83630801864593 9.7168013617312
Ba 0.27952966070966445 13.470304086866756 21.16357888158372
Ba 16.728556415627573 17.286916807767856 10.714998244263686
Ba 12.77685801647786 23.01120081783867 13.16672963773838
Ba 16.229509094992473 -1.1029661717269819 16.266510152551362
Ba 22.720094277237642 20.751838975151564 19.479942717771646
Ba 19.337278001749354 0.4961281004193411 19.27068450340872
Ba 19.024410943093557 14.655279384756687 16.04778178648291
Ba 20.924753701054932 16.19026871537705 19.391355376583412
Ba 18.98660006357237 19.773398010623406 18.553503795328588
Ba 20.050460179980288 11.778162191670472 19.061972881179198
Ba 1.6924842560905016 17.017968561064365 19.07913763448155
Ba 14.118933553968503 19.188791061144414 13.9701436653036
Ba 19.64516223596285 21.288888909125287 23.061382373358622
Ba 15.646877278050487 21.531040674366924 20.833735295614282
Ba 15.285146487733035 18.31527005435652 18.015713258270953
Ba 15.099298575200606 15.288730636250643 15.51779298010325
Ba 22.30825387053296 17.662820997496084 22.909546297614355
Ba 12.60857171554666 15.81952777084343 11.92476013897953
Ba 20.04024520562723 10.985886486283789 14.414310474569929
Ba 10.047379327843252 19.354777258387028 13.199902362334914
Ba 12.06162332727438 21.045362480362446 17.39763724723009
Ba 17.722422135935293 17.882793468342438 22.120777301541604
Ba 16.84205532582223 14.816072619183412 19.638589159489797
Ba 16.55383571290859 13.111083650544874 12.371110747545027
Ba 15.408695916418909 19.550806845590078 1.9155975202731712
Ba 19.575701845403497 14.010488488897673 -0.3614002215165348
Ba 13.020929461466181 13.675391165312217 19.258460995677794
Ba 11.336044506388449 16.74408153341946 16.491426605407796
Ba 18.889756272098385 17.413731697757488 3.006563956773525
Ba 12.085640670677382 12.508455945810422 14.802591410017943
Ba 13.12219214390869 17.792424943396618 21.359133989810903
Ba 8.59906677801914 15.017572569944035 13.514444650381702
Ba 16.15883952054514 11.41960661367125 16.848048647194368
Ba 16.23197772950145 11.18677225987049 21.537323410911096
Ba 15.315866143659465 15.019664748251069 0.7393526275472815
Ba 15.423704246688432 16.709379609293595 6.076126015862689
