42
Energy = -58.60652943 eV
Ba 11.739218313271637 20.036452412295525 0.05728503264107858
Ba 14.603557297290173 16.974011947881365 1.6609082019844275
Ba 13.079254392394922 22.74112231512721 20.086318823328504
Ba 10.167743632917128 19.654761785692013 19.191805173407996
Ba 15.87047136797355 19.747694099344596 21.950243438987037
Ba 18.615327245812566 16.71862748359356 0.2691985064622999
Ba 12.958777068772816 16.579235998090308 20.91983279238591
Ba 15.767386887725946 13.522322678830847 22.613076344671455
Ba 11.44063082023697 22.27322363341941 16.060982954631637
Ba 8.542698572494292 19.04567325548802 15.043369244783129
Ba 20.058227934478325 19.48986785480743 20.352825842631667
Ba 17.305588541958667 22.503728251626313 18.63937399032168
Ba 14.225841308667276 19.359580447741255 17.728433185046633
Ba 19.833617258806264 12.578184402454658 0.11804649023836233
Ba 11.314536593086828 16.068376820668874 16.72623933796146
Ba 17.111266071186314 16.242060467135456 19.55283047700711
Ba 14.159690020262119 13.096220919947319 18.454335438641728
Ba 15.694586495311533 22.08819728422088 14.580781441951377
Ba 18.6414444048238 2.0187538473629276 15.48467558258174
Ba 12.676924784748774 18.861661751167382 13.488530070367112
Ba 21.320095215764702 15.235081256626408 20.29869104430051
Ba 22.582284290675336 11.035888419285042 20.23618147508667
Ba 15.479587351998335 15.871240559924248 15.203679504693206
Ba 18.402618427684153 12.012492892701468 19.437934189397918
Ba 22.781343800547305 18.106881121749698 17.10970442816751
Ba 19.87512291480085 14.81185080223387 16.155717508709838
Ba 21.33308702858716 22.317853435070038 17.085453552692403
Ba 12.717766741395174 12.691805838405786 14.210274939085748
Ba 10.014417628533996 15.62776666250124 12.677563680365447
Ba 18.568749964283583 19.111211133068814 16.159743463619904
Ba 14.025864770116893 15.36089367517474 11.104835780889307
Ba 16.801152958045577 11.685216586646842 15.200261409082518
Ba 19.852934286723404 21.91533862919216 13.049607463520665
Ba 16.934980866703423 18.64354601723352 12.068330852812085
Ba 0.6994103429532149 13.765930120737258 17.004367087286795
Ba 2.13389313138516 16.680602669272236 13.904613174320348
Ba 21.06981020202873 10.691846338336074 16.080790297117712
Ba 18.227718069664263 14.401212679463345 12.07034215367118
Ba 15.29849032157225 11.210840546377655 11.068484221147598
Ba 22.52024324139687 13.432472478196825 12.993630335287072
Ba 0.6153883782697008 20.823743885468335 14.01199255470151
Ba 21.24290856003502 17.68934841532151 12.910274360834233
