47
Energy = -67.08438427 eV
Ba 16.88708126268058 11.507080455025477 11.658503617724234
Ba 20.68162332385419 18.104048593581282 10.42300181919549
Ba 17.862906290100877 15.268362937945156 8.777970737141322
Ba 20.447116147025163 13.979358466479987 12.112102824088812
Ba 1.4611245244133135 16.712029391843426 12.67144202604646
Ba 19.886523567199173 10.923241273644608 15.306708905615318
Ba 0.486698909246123 13.96919026186316 16.12658661166437
Ba 12.69938302850961 12.596039770758354 13.692655244438336
Ba 17.165317585135984 17.333423881156858 12.55945625418513
Ba 15.309742075512391 9.7086357050014 15.739793260183907
Ba 21.87646797068348 20.609357770177038 13.723358813577438
Ba 22.102663871022635 11.05404653205366 19.31470790611671
Ba 14.365389520190568 14.788899071561186 10.879831567900819
Ba 17.01661060510536 13.887547167651343 15.141546721973002
Ba 20.525360742143423 16.936736257656374 14.985002830621655
Ba 1.5845101248109073 18.379695941146124 16.794864147881615
Ba 14.421821024725505 18.92561303296949 9.611483431582487
Ba 17.57257720833868 11.072966822801432 19.124443189361017
Ba 20.68263731514675 18.477587831866817 18.655089834870026
Ba 10.87244245720443 10.327785064258151 17.012037321912455
Ba 19.725502648664357 14.382888035303347 18.506907433548943
Ba 0.4157826910193394 15.381143435782555 20.504375952149115
Ba 17.84497616007415 21.388865634091616 11.389130151173338
Ba 19.604939172620547 12.775224267492307 -0.158610587888225
Ba 14.04345496761533 0.654469505243997 10.177205940398547
Ba 13.853230160624248 13.166367416686535 17.760120281994443
Ba 21.66679810280024 -0.408521645050535 17.649315473153504
Ba 13.838616730763501 16.766049310957047 15.222637517638997
Ba 11.080706450156505 16.909264071854572 12.239217755314153
Ba 10.419355296643914 21.066551328594336 11.294918954662378
Ba 13.678398237441831 9.874529246552067 20.395641493997108
Ba 17.971367688238807 20.38662545598122 15.756107099119308
Ba 9.951554830831931 14.785515227526057 16.312984053915702
Ba 18.93979513779559 17.05108113164536 22.201033400848075
Ba 16.639880078763277 17.136480846005725 18.388150845572586
Ba 15.292358132480661 14.216497205704318 21.57623322869997
Ba 14.008657887950156 20.54025761561815 13.480160987370658
Ba 17.967942203909008 21.20658535610229 20.271581932453426
Ba 10.650354993907305 13.157061672371796 20.573465596016042
Ba 10.369674758206777 19.38697616893415 15.922234843269129
Ba 12.305864151463208 16.814440945843586 19.22200567790813
Ba 14.056747381837482 20.723402985017294 18.09400493517503
Ba 14.820927221891717 18.791886641050628 -0.7205871587179212
Ba 11.657371160160041 16.440419711153183 0.8265933782661846
Ba 10.838460729513093 20.249163440366274 21.235967275498282
Ba 14.20711881422083 0.298843624188496 -0.5520493566704702
Ba 12.860361795695086 20.27319109170103 2.767088297693569
