43
Energy = -60.86925517 eV
Ba 9.555982834325558 13.61874383814128 12.785132217775294
Ba 10.016854795221278 16.397968127390154 18.451847878505735
Ba 12.711440319917195 10.909156094090491 13.324591721700228
Ba 10.2718154855977 12.333298900292316 16.88130583208814
Ba 11.29776946127018 19.260029352321588 21.75044446127421
Ba 11.355359915840985 12.21030883087919 9.143323131856562
Ba 9.411961580760796 17.604284938228833 14.317792911500023
Ba 14.01492972711941 17.373742211948926 19.431587204093315
Ba 14.452465125104322 11.121334312357119 17.42612586356817
Ba 13.002655878177253 15.191055644274364 15.154553732903166
Ba 11.711464809874977 20.193094696170878 17.247619201176093
Ba 12.7516710040906 13.62664965914428 20.568281138937827
Ba 17.069005981753055 11.933170310840955 14.143484664465147
Ba 14.97305725372948 21.638644330225482 19.897787191255862
Ba 15.630774555218347 19.076819587821824 0.4839331530934869
Ba 14.836000248459015 13.862477905127827 11.061920171523935
Ba 11.68188274236224 16.451344166523917 10.554705224595176
Ba 16.40269902456603 11.076386518402307 21.324751515800592
Ba 15.959669234594434 19.222995529354122 16.409276882792568
Ba 14.685845139020989 0.33171063872763035 15.705714247745966
Ba 16.681235127736056 14.681896789932695 17.644906527316145
Ba 16.78143436796463 15.060833371736475 21.91624915500317
Ba 13.360240869214122 19.282690233771536 13.186943784148633
Ba 15.977414478536149 17.862264397964914 9.781210195487306
Ba 17.997597265326192 18.63164895053218 19.8311706789416
Ba 19.28072200063974 11.339657368442424 18.25821317593095
Ba 20.445400433148592 12.786023158681486 22.516092163441115
Ba 19.076130137083354 21.84564718178855 22.127801871888728
Ba 17.055595126753396 16.438853567184193 13.554688403413348
Ba 19.071349002663386 22.1365858473679 17.37419664708993
Ba 20.41368508402936 15.404366805742189 19.326515789060867
Ba 20.195467570568912 17.48868910959995 0.4142976676216084
Ba 17.452542532514247 21.076334372272537 13.00179983662066
Ba 19.40302545909182 14.326519987643218 10.859043730311129
Ba 20.330919776114783 18.207696701763773 15.879801301197714
Ba 20.04939161936661 18.48079964684179 11.18341127407824
Ba 20.59226454188168 14.063596681752971 15.036464665873845
Ba 1.0498462802973014 15.72454798834375 21.738173050204058
Ba 22.19755068662593 19.399786718502735 19.680214453651917
Ba 1.2078158673754467 15.425454296091424 17.325541186375784
Ba 0.545028171396956 16.748226880998057 13.046036104872119
Ba 21.90199521211694 21.408501996455826 13.689898120397773
Ba 1.8738710488788113 19.532243690043074 16.149586706233276
