44
Energy = -61.66712246 eV
Ba 16.87398833686877 13.6593872593191 1.8163680020831507
Ba 15.67927773706348 17.52292525568512 0.18548135921496206
Ba 19.93333139201252 16.76792407909886 0.6662809432945813
Ba 15.177392469934972 21.453117474509313 21.868902328074824
Ba 13.693152211782065 13.70715792455297 22.907245309263697
Ba 18.506710832943597 21.064253654072104 0.48371708536871716
Ba 17.76047563424027 14.59378483466425 21.9066432679067
Ba 14.055912153075896 17.22918980821283 20.55493547961893
Ba 12.08943841194377 21.0469382325854 18.67600950922619
Ba 22.28590947577086 19.982824183953117 22.68894504038649
Ba 18.366458860546 18.625983095582157 21.316341647879877
Ba 11.68310517474661 13.678693031083645 18.977616718633637
Ba 16.1506503666131 19.78218998712223 17.991887435496356
Ba 9.585955524968444 17.319220727297974 19.097340196863897
Ba 15.682367737818181 13.717590711575019 18.316397480011194
Ba 19.30617455946332 22.630013081257346 20.455174592226385
Ba 21.79761410386192 15.976858306556444 20.926551447654138
Ba 9.53532861727892 19.28550864070142 15.234310341589502
Ba 13.68678510339226 21.347438717514017 14.651062880763607
Ba 13.136156911243834 17.30603130441991 16.5054545272854
Ba -0.41592564613655464 22.952802084721938 19.718946278198615
Ba 16.009376622342902 -0.4561830615736549 17.704912261083198
Ba 20.506322943693192 0.3515678008583529 16.80958050428693
Ba 3.527502728462916 21.588760916099755 17.479833391440966
Ba 21.452784528839377 19.536913846517074 18.408869769267483
Ba 13.200805140522315 11.17611989374733 15.892519393822267
Ba 18.60714030616902 16.50829427864307 17.24116698710936
Ba 17.231842108159004 23.612325569302925 13.392472970107594
Ba 10.377877765636754 14.701689380076147 15.033160477363376
Ba 19.093203231514543 21.121907926067042 15.785792861214398
Ba 20.09667748190195 12.62642655277649 18.482189324838625
Ba 0.9210157692563549 18.69620091182299 19.342639668594018
Ba 12.510017844958442 17.789230465614104 12.248716534030258
Ba 16.700705959025857 18.52047901894366 13.617332005848004
Ba 22.92984370801557 15.541465905281983 16.66938724976096
Ba 17.696557353543447 11.316570576608065 15.262979217540435
Ba 23.753663502446805 21.635828021641235 15.750819444136686
Ba 15.004965065011483 14.510911724118625 14.06626543061961
Ba 21.61436954389871 18.438762703859062 13.807240204634724
Ba 14.841908313023465 21.164250784211312 10.43507644442177
Ba 19.5607456579153 14.712377297042464 13.557864718077111
Ba 1.7826493890901922 18.123121036830543 15.06193392954128
Ba 22.0600912398252 11.52093339157544 14.748292049960204
Ba 23.96071698148944 14.931455116982542 12.496930867234934
