44
Energy = -63.2352062 eV
Ba 13.846865743008347 22.627684424279888 17.043065851344178
Ba 17.051578828937373 1.300929186151878 20.394194588124773
Ba 16.79658013530453 22.159187411928727 14.043411361330204
Ba 13.602538189265067 1.1908517240378682 12.878990726721549
Ba 20.35239087755992 3.7153394436522533 18.72047617536431
Ba 20.59841534821528 0.2346154017493304 15.491865921606987
Ba 15.232703638699686 20.448472753993723 10.790375626440868
Ba 16.854803369352783 2.570239553307414 16.249486882547377
Ba 12.206356453414303 18.447698183427413 17.914315027264642
Ba 11.982572136609246 20.39740658368366 13.70416724026288
Ba 20.020023831312816 21.05395161301322 11.50576261482079
Ba 14.257156421804254 20.784840313856343 21.03672661917511
Ba 18.49120816286165 20.268066270703653 22.202495330003103
Ba 19.787397293242954 19.105643245977777 15.134037573434357
Ba 16.357751407523846 17.552061188040234 19.35773305367146
Ba 10.083089200743853 16.355019618660062 14.889420090745526
Ba 15.446100045142142 18.55800219641003 15.1695275974876
Ba 21.39200483641641 22.60133793537364 19.59868456756183
Ba 13.428955486958955 16.423333197055264 12.01918586490414
Ba 17.913166073467863 16.969143286647256 11.975012551496988
Ba 0.2978369220953076 20.15091103796189 15.943821643839344
Ba 10.910884353933275 13.005635036937544 18.104123955303074
Ba 20.772437612057026 18.03279698997457 19.12524068167708
Ba 11.504680807255058 12.506756686989094 13.44767813592503
Ba 13.01316891703543 15.533024926264767 20.950136709130415
Ba 13.860732962827624 14.854939216821323 16.07703911448202
Ba 15.489255605976018 17.49694858808667 0.5305252885389742
Ba 17.76314415475227 21.273448809013285 18.048427841328813
Ba 18.28887050921718 15.23393257294921 16.256507504162364
Ba 22.41132805719645 17.405067829023658 12.350254441637567
Ba 20.501730513524407 13.419228783295148 13.127858407386837
Ba 16.016672169703796 13.126984190500982 19.165647559286317
Ba 18.643718366724823 15.22616128581287 21.961655811889937
Ba 16.04072527360959 12.902768402039985 13.125891685836418
Ba 22.733678739312182 15.575747369532204 16.142352296183777
Ba 14.185501798838235 10.429235584051689 16.426406291498374
Ba 13.482709505195734 10.189498766029573 20.689772266724887
Ba 15.349465517522606 13.032726262535725 0.3371897525251117
Ba 20.83879944307559 13.015829572677657 19.034094724427423
Ba 18.50575351025864 10.638543501929215 16.29887174522832
Ba 22.979577401047504 11.201972087388398 15.835345079262636
Ba 16.868972928139463 6.710975170593683 18.72487946407166
Ba 18.05588733774528 10.245473520303777 21.106601007416366
Ba 21.264782144345087 8.367040456150379 18.892495204168558
