45
Energy = -64.33088447 eV
Ba 0.6259948026646746 17.386891576786923 14.675229656921374
Ba 2.145261150807398 13.30051469650906 16.33887020600908
Ba 22.82951956048031 11.930139604328073 19.77685526134546
Ba 21.146052004407057 20.97633745294524 13.431162848536914
Ba 0.9297991195281853 16.379658027242094 19.264624557817992
Ba 21.38375309454519 19.545410751951444 17.492267897347546
Ba 21.12965479993729 10.592405368852953 15.820587419824399
Ba 20.509353595481937 0.6225854766904402 16.892104494555213
Ba 22.650902319917392 13.744034765498673 12.89449349785499
Ba 21.728959375941578 19.243546457576237 21.743087382701766
Ba 18.482265367708916 21.650761033956496 20.256381876351526
Ba 21.1657140506072 17.208578884116626 10.770589436982911
Ba 17.909060884244525 0.9061418509565977 13.328542031438655
Ba 20.490518171419218 15.047543764770596 21.802166647917062
Ba 19.0803036787827 17.15540683086351 14.331987582446382
Ba 21.10303487496339 14.597362593090196 16.924174132185556
Ba 18.384796043512583 12.216890559204078 19.114751733218586
Ba 17.671403993852028 18.396415891368942 0.3327888142737252
Ba 18.469808860742276 17.30296445170837 19.12821657889114
Ba 17.52777917441627 20.037707271194876 11.51385833926188
Ba 17.20052786771398 20.53605875390117 16.12725803499587
Ba 18.6391441900647 13.23028306233613 13.134688053918035
Ba 16.745343854724975 15.898310326876324 10.134488085245039
Ba 15.955955669664208 0.3590965322904067 9.447623412156213
Ba 13.962411028867278 21.902109940666442 13.281910794516556
Ba 15.926121246019372 14.991816027687374 16.657249280394534
Ba 16.369468527776903 10.505841789683338 15.649365461293165
Ba 15.800019727958164 14.873502099706359 21.460462128242675
Ba 14.66742693673758 17.496341624481158 13.380108832087407
Ba 14.937919317773487 19.183428229019928 20.17151684228658
Ba 13.670171459245761 11.981953293972161 18.718881963443426
Ba 14.630970694015259 13.08964320002602 12.783857293098944
Ba 11.847309077341746 15.410804790053614 10.73880724034245
Ba 13.639275916754254 19.411676399859115 9.686016601971073
Ba 12.1842459775782 16.055257816906614 19.500146178560772
Ba 12.817313758131975 19.15745851328124 16.689250307741723
Ba 12.801229314720562 17.455829628934307 0.49889075643923814
Ba 11.69380924440577 15.040371534917565 15.30137352575855
Ba 11.69014974488393 13.171154107847782 22.544408341962015
Ba 11.736022913103405 10.822938138560428 15.008776319705042
Ba 10.490519202739366 18.870054949615454 13.114610810835853
Ba 10.612794388875614 19.947571344110063 20.49206088691501
Ba 9.35382617264132 13.036516157535408 18.49844602119937
Ba 8.689950278318582 17.419212766542028 17.37215577670117
Ba 8.588413539644623 16.20776232928474 21.745012492849142
