48
Energy = -69.52120078 eV
Ba 10.73415980270704 17.86098660641431 12.71546221551491
Ba 14.840498635630011 16.60918921717494 10.982143657757115
Ba 7.472134521305321 18.99303393567653 15.914481527964815
Ba 15.475433193498816 12.381162237334332 9.481426966545241
Ba 12.036134322796864 13.4853489703076 12.403971566352359
Ba 10.04203953734967 15.378415267489459 16.348647949051934
Ba 9.284377226279616 22.72195753976422 17.78417915874609
Ba 11.75295943202657 19.711585380821226 16.39559000339327
Ba 18.210067457002076 19.344524055192156 10.651492095508624
Ba 14.545615526718967 20.31029444680973 13.288207566002557
Ba 14.60710683603527 9.58407037684436 12.897217483946845
Ba 13.307180893030315 12.08957480816023 16.306113678556567
Ba 18.981963030004188 15.061594350926237 10.600218653415347
Ba 13.844644253992668 0.30694908282876016 16.209675113721406
Ba 17.94324772814039 17.870834950725456 14.709651276391618
Ba 16.893475006132583 21.383362935958154 17.39405698489506
Ba 13.91703710980366 16.312415020161986 15.295288097699169
Ba 9.976243545370655 18.348173217182364 19.74417659427368
Ba 18.228651634415474 22.46526265744504 13.529198439193426
Ba 18.953777959682814 10.669019343480903 11.934962123527752
Ba 16.065491267532355 1.137662037972215 20.027420853778466
Ba 16.148243468460215 13.417711381744544 13.422953153607084
Ba 18.807460361531817 1.6517435943838663 16.80346571362578
Ba 12.785478391521846 21.737539629099754 20.161180238578577
Ba 21.913711255568334 17.810618529956507 12.814316899322886
Ba 19.969187848608982 14.011348212575243 14.4616714954554
Ba 14.762206899141544 18.23685984346189 18.947329505422548
Ba 17.589870893472266 10.553322388198632 16.33404676801698
Ba 20.155246966503842 22.575766060155924 20.247661153956667
Ba 12.977071892493283 14.629505145608125 19.773098650846126
Ba 16.56742763552837 20.671789826086744 22.018425419674113
Ba 21.86048828055954 16.61336564868814 16.900609405462983
Ba 13.157922286573136 17.753833531186256 22.94846094384757
Ba 21.315062556019814 20.905075926000176 16.210637063867605
Ba 17.271266010665517 14.550887139395652 18.014905387768437
Ba 19.146473083033346 18.50980227996888 19.279695844276734
Ba 2.095048493888404 18.33435213081732 15.868278895200284
Ba 15.028088961407219 10.814618488781548 19.920283047014557
Ba 21.54215400415321 12.346715734256378 17.992048107339446
Ba 0.780762569770819 14.130808035929887 14.485730824840417
Ba 20.55528717231278 19.156210953257798 23.297136367515986
Ba 17.15229172508007 16.157812977949153 22.16323069242122
Ba 14.591579438565137 13.15345059585197 0.09441151628125174
Ba -0.011720643381399718 19.18458664545519 19.867050567986606
Ba 1.6959119088758265 14.913052205525997 18.9257825382964
Ba 1.5443705241176094E-4 11.85734084213606 21.939302727312036
Ba 18.779123050212238 12.085259283423694 21.49061858423937
Ba 21.37882093997003 15.464582194249694 21.01145606628316
