44
Energy = -62.51264886 eV
Ba 12.07675332 15.31241980952808 12.07675332
Ba 12.07675332 21.61715477670474 12.07675332
Ba 15.209734770166195 15.209734770166195 15.209734770166195
Ba 12.07675332 18.37433354415196 15.182683173337962
Ba 12.07675332 12.07675332 15.31241980952808
Ba 12.07675332 8.841086830471916 12.07675332
Ba 12.07675332 12.07675332 8.841086830471916
Ba 15.31241980952808 12.07675332 12.07675332
Ba 8.841086830471916 12.07675332 12.07675332
Ba 12.07675332 12.07675332 21.61715477670474
Ba 12.07675332 2.536351863295259 12.07675332
Ba 12.07675332 12.07675332 2.536351863295259
Ba 21.61715477670474 12.07675332 12.07675332
Ba 2.536351863295259 12.07675332 12.07675332
Ba 15.209734770166195 8.943771869833808 15.209734770166195
Ba 15.209734770166195 8.943771869833808 8.943771869833808
Ba 15.209734770166195 15.209734770166195 8.943771869833808
Ba 8.943771869833808 15.209734770166195 8.943771869833808
Ba 8.943771869833808 15.209734770166195 15.209734770166195
Ba 8.943771869833808 8.943771869833808 15.209734770166195
Ba 8.943771869833808 8.943771869833808 8.943771869833808
Ba 12.07675332 8.970823466662043 18.37433354415196
Ba 12.07675332 5.779173095848036 8.970823466662043
Ba 12.07675332 15.182683173337962 5.779173095848036
Ba 15.182683173337962 12.07675332 18.37433354415196
Ba 18.37433354415196 12.07675332 8.970823466662043
Ba 8.970823466662043 12.07675332 5.779173095848036
Ba 5.779173095848036 12.07675332 15.182683173337962
Ba 15.182683173337962 5.779173095848036 12.07675332
Ba 18.37433354415196 15.182683173337962 12.07675332
Ba 8.970823466662043 18.37433354415196 12.07675332
Ba 5.779173095848036 8.970823466662043 12.07675332
Ba 15.182683173337962 12.07675332 5.779173095848036
Ba 18.37433354415196 12.07675332 15.182683173337962
Ba 8.970823466662043 12.07675332 18.37433354415196
Ba 5.779173095848036 12.07675332 8.970823466662043
Ba 15.182683173337962 18.37433354415196 12.07675332
Ba 18.37433354415196 8.970823466662043 12.07675332
Ba 8.970823466662043 5.779173095848036 12.07675332
Ba 5.779173095848036 15.182683173337962 12.07675332
Ba 12.07675332 15.182683173337962 18.37433354415196
Ba 12.07675332 18.37433354415196 8.970823466662043
Ba 12.07675332 8.970823466662043 5.779173095848036
Ba 12.07675332 5.779173095848036 15.182683173337962
