43
Energy = -59.72706253 eV
Ba 19.5452598117744 12.589696713887243 11.956209813888387
Ba 16.560869749939314 9.626862168417693 14.144759759718076
Ba 23.071925687704095 13.870576135256972 14.034618889983358
Ba 16.410324293713035 14.011432763647871 14.369495927794429
Ba 13.44361026413492 8.244520344052859 17.220226608851924
Ba 19.6886408630325 12.01585137855585 16.31409944054505
Ba 12.791604560447473 11.881430581874787 14.701740934543858
Ba 15.665786168171339 11.760171556103776 17.85645557908376
Ba 22.041981019018817 14.671595476397219 18.524238632034397
Ba 1.5213959102218473 16.674902759175147 16.59169572159105
Ba 21.17276352279188 16.471318208727308 11.06986372553327
Ba 18.85346926384778 12.766123643573529 21.000037188469324
Ba 16.559447385319448 16.46955798929445 10.755725827345753
Ba 12.770339531361257 15.79242662104844 13.279993657141828
Ba 17.539949753495026 15.525959240454178 18.271653591643304
Ba 16.075893214536872 18.3653874515863 14.541895963102553
Ba 11.38017533067637 12.078264208248433 18.63635423090047
Ba 0.8559015261325821 18.537317374020898 20.279297358133256
Ba 19.882206038671722 16.365288363249675 14.848635023231312
Ba 21.761553067954164 15.912860365613065 22.478809955935514
Ba 19.08749706339609 19.95647165867581 11.883716293631673
Ba 14.361241076239795 14.134517870552218 21.22587138176708
Ba 20.418428212486074 18.524906568332305 18.89242456163641
Ba 13.43756298106999 16.07384667238417 17.515896902300657
Ba 3.02338754777673 20.606515261674407 16.973894378252584
Ba 15.706480288453683 22.501146312187792 13.16126392794856
Ba 22.744568904508313 19.48686031230579 14.745503978000528
Ba 10.028346894726141 15.936594239668112 20.119183536781595
Ba 17.685779596111608 17.159010972816173 22.193430191662436
Ba 12.90099897046549 19.510814371059528 11.703726490342797
Ba 9.691969458254844 17.50368939207743 15.859697191852769
Ba 21.07348231959068 20.31040825762161 22.777438705617346
Ba 15.819881622369385 19.623102717561878 18.93406379537117
Ba 22.70922489347337 22.105041224456322 18.50513486933098
Ba 18.85336997449471 21.319011625128407 15.979479609728614
Ba 12.859392279858705 20.659728747555658 15.94650729563202
Ba 13.348530213291838 18.23517452229315 22.168700785471113
Ba 10.758800283781234 19.903813842487416 19.315946081665857
Ba 16.643010539627284 21.226015551794156 23.519763342183925
Ba 18.609181858114788 22.47769047180967 20.103191634411694
Ba 15.63220174121651 0.45980196850905297 17.446893059148724
Ba 13.60062720275846 22.643646865462323 20.916225290173916
Ba 16.472035276132697 2.023081152273899 21.949259255258255
