48
Energy = -69.59580869 eV
Ba 18.21858387953173 19.48850770075154 12.059559352603312
Ba 21.01133258730242 17.597366975915758 9.418381224467332
Ba 18.412076007599463 21.200016945202815 8.35236104252846
Ba 22.665468241119427 20.277890283496212 12.568351012683113
Ba 19.48604752008897 22.78855598892452 14.803396355094701
Ba 22.45130357207486 15.670700250763753 13.10003579821106
Ba 16.66440681960127 -0.11040379467020556 11.662530031588926
Ba 0.5272041877011593 17.621391953409663 16.246252741051887
Ba 22.833093893886925 21.53154940159207 17.326798921058938
Ba 16.88013975192434 2.331116368687555 15.550423848691617
Ba 19.811363505059248 0.8206030370862523 18.822256696373067
Ba 16.65100489177507 17.205017136911433 8.715094578991891
Ba 16.2404092285507 17.137682464107417 15.105297103200272
Ba 18.549472050096245 15.077573049541503 12.106768529406931
Ba 14.300152195632556 19.9158652373719 11.195635532725884
Ba -0.25976197109442534 14.330772941774377 19.107986205996518
Ba 20.199815947356665 18.70725986022665 15.470487158831794
Ba 18.148037998269377 20.571336036100575 18.809370026890505
Ba 1.6557389006401777 18.74739654092827 20.252906146635166
Ba 15.396748538904944 21.513395283326474 15.41442349598806
Ba 22.06994092502059 21.514935856514295 21.639711764540916
Ba 20.001733641051825 14.94522017695978 16.637489193879983
Ba 18.154225522531757 -0.5679500757296944 22.768739313693597
Ba 15.510143781087233 0.22579404273630407 19.07023316220959
Ba 14.034494454836805 15.526699315748916 11.954504330847989
Ba 20.925882950842666 11.517984994941104 14.432148400010988
Ba 21.446439067952596 18.00785648439075 19.39954276246343
Ba 18.84187900742172 18.955278156792755 -0.9715346949412579
Ba 16.379941599535055 14.53776224988089 18.68735320899612
Ba 22.711280906118915 17.01336750526654 23.3259311884921
Ba 12.002964858191307 18.523509453549366 14.825271954579181
Ba 14.865051044187503 20.81680136370541 21.704235096437536
Ba 16.617907619519045 12.518272239329814 14.955066584180127
Ba 19.643028039415853 14.795071060293774 21.267376570091717
Ba 14.0612960850575 17.994416392574422 18.632443004362212
Ba 15.694687584723928 16.56263545897113 22.21679069309938
Ba 11.774733695145233 21.355700263478735 18.528622637006617
Ba 19.14993164379842 11.260688441120857 18.61452667540714
Ba 12.810338951899865 14.430970649148785 16.27749190514462
Ba 18.225901307897455 15.44364481777314 1.6490553730183946
Ba 17.75686952992962 8.211489697887481 15.699623651380394
Ba 16.273527125561856 12.301565996207465 22.442032084353645
Ba 15.4499813034844 19.040953263562862 1.894086944203138
Ba 14.698368287977964 10.594451236757472 18.3868259723389
Ba 11.713347154779186 18.130072857971363 22.480566017522467
Ba 9.867151034561415 17.167985988636328 18.500284039411685
Ba 12.562969304211734 14.158050790774396 20.715395679628212
Ba 13.611824056586201 14.837647775623823 1.470460715921855
