41
Energy = -58.00856521 eV
Ba 9.336962685184341 15.246285601371296 19.76367761632387
Ba 10.870747490733525 19.01593604802764 21.338691782219172
Ba 10.485983356684011 21.954984944906208 18.138601239725794
Ba 9.567847073096464 18.013390753170114 16.697041143336254
Ba 13.223987769802532 15.093868200199092 21.8668309143762
Ba 15.115446049444364 18.86009377814303 23.12933024737196
Ba 8.815273771955878 13.906282592687804 15.579666655938556
Ba 16.9297655929964 14.626024079056476 0.1620471013967642
Ba 13.761435521683117 0.549436978737726 16.37164097009887
Ba 14.49667045462411 21.573023260302808 19.58298000871423
Ba 12.711364394024354 13.333902869010002 17.752331888777256
Ba 13.505099129775617 17.555083989325986 18.507277092969968
Ba 19.490962775807347 18.01021406586414 0.2517250943283732
Ba 13.286871617929489 20.32078246907407 15.259255454999819
Ba 17.92881065672802 -0.08668606409033913 17.64142799085353
Ba 12.698598542358763 15.948110586646088 14.275960388695516
Ba 16.622192028483504 12.818622323812264 20.033392156684485
Ba 17.49248666148227 16.909508179965773 20.415799066008923
Ba 18.68370647875659 20.875256141481366 20.93285846359686
Ba 12.326465752082544 11.645510742320756 13.732167825112292
Ba 17.31966552886061 19.727371160772837 16.814137708420137
Ba 22.406156550627895 18.529213125279842 20.998814393737263
Ba 16.754484495890683 22.625645890484016 13.643344020083466
Ba 16.54954891906035 15.327225368931137 16.29912873720852
Ba 21.628244048955654 21.309727091917832 17.55095887736468
Ba 20.7052482329722 14.474569501504956 21.44296068004448
Ba 16.173117311610845 11.133910587647286 15.878970616046916
Ba 16.30566194756129 18.148404418571285 12.783354302846819
Ba 20.78445928491489 0.3188805089991847 14.35229277309485
Ba 20.121639979904135 12.896727356870674 17.241978071507038
Ba 16.030348062939645 13.610291303262338 12.371891579965684
Ba 20.665960015615827 17.11103256845021 17.489077247624557
Ba 1.6266320965254943 19.21670523325239 17.959057940876697
Ba 20.304764988109813 19.99375679551057 13.685190029711606
Ba 0.29366751334035673 15.12234881072179 18.50833398709608
Ba 19.89097956333966 15.51972027436758 13.52332231305416
Ba 19.703759439945113 11.240131970944118 13.226640137005203
Ba 0.5881810812914403 21.73261880760705 14.290590095278827
Ba 23.646930065664314 13.283569578310587 14.620099764515816
Ba 23.77478943571511 17.528716184127866 14.665384409832066
Ba 3.8661144154323464 15.806248959437607 15.915348969757979
