52
Energy = -76.07670342 eV
Ba 5.03370059241203 15.079482028809474 21.75648050629605
Ba 1.6973671847197986 18.258583871438013 21.951577962775993
Ba 1.980820884287972 15.77181701776033 18.49932773332252
Ba 23.619894848434956 16.697155564561196 24.511173148732468
Ba 25.687556207769326 19.819770429159 17.97616435069357
Ba 23.737251524835607 15.923306016218755 15.980249136613509
Ba 0.607257973971038 13.96693454596601 22.399218379181097
Ba 23.32246741875761 19.760674100590297 13.91967087663258
Ba 24.73901720289821 12.634133391938143 18.600464466795568
Ba 23.27148147528579 20.534812986205562 21.918025675517953
Ba 22.440497629912976 24.03452543589545 14.637211515431185
Ba 22.105430481277313 22.403786090260006 10.427951596054621
Ba 20.06743860897053 15.557303215092427 18.433321834835066
Ba 23.95404317922835 16.55935954483495 20.15915821753776
Ba 20.394147086126697 20.14918310595291 -0.49098504477593224
Ba 21.67291629825109 13.133995481387773 21.595959067517864
Ba 19.80837193386415 17.10716409168225 14.705183929195739
Ba 21.26531336638587 19.518593991048796 17.907991587909656
Ba 21.47185712436184 23.54408113776011 18.873067880236643
Ba 16.48297220697294 18.569689948942347 -1.2713670685444265
Ba 20.502619031204258 18.3119916568372 10.708709871801004
Ba 19.03265917604426 25.181076603072086 11.708280996640388
Ba 20.274706072358782 17.264811443802284 22.0901922419941
Ba 19.45814688284201 21.400263969458 13.516598005560372
Ba 20.57156681851235 24.23195497790374 23.387128823355027
Ba 20.75737798297901 11.850412429126411 17.084814408094484
Ba 17.428858106679293 21.28900183252359 17.037748885250245
Ba 17.635378562597168 21.539829886196667 9.695087234818653
Ba 18.87204409193338 20.92079406431699 21.332538970484215
Ba 16.297323418204982 22.78165096655848 24.112772279877067
Ba 16.30677777101415 17.14268916124457 20.95098466482108
Ba 18.166069828851366 14.555245441336792 24.328096002844156
Ba 17.400036251933308 24.750949999087016 20.19616353108772
Ba 16.15759584423422 18.560931779429136 13.011901890144149
Ba 16.980204683480093 13.665879564119251 15.4584285531919
Ba 18.388832018160194 25.166214723043108 15.96217943080919
Ba 16.27777306923378 17.359041594300457 17.1395366288916
Ba 12.34848879394362 17.659429458552204 19.457621334077018
Ba 12.6092307713309 19.77490601519278 23.35485177774759
Ba 17.40792458725621 13.143970972167107 20.157899544423493
Ba 14.034619113338266 24.379922520661047 17.422954806902908
Ba 12.69324742746904 16.00804195115419 14.960308833274501
Ba 15.475337081289712 23.042114239175618 13.375118025766357
Ba 14.822510707037367 21.099988792002158 20.221707478860367
Ba 13.195757483352269 15.206846357136703 22.90714517477547
Ba 10.37370501246049 21.363848992625808 19.814895352150128
Ba 13.591810109642893 13.92313861398106 18.541711808500136
Ba 13.15674083560742 20.30214639818608 16.15021103367504
Ba 9.13275838152066 14.449425535164316 19.463934855128873
Ba 8.779442406116532 17.70252563544056 21.979735735444887
Ba 9.176710000990516 18.09754121647819 16.98429179410206
Ba 5.509648247129291 18.570356801921733 19.289020546623142
