51
Energy = -74.6357981 eV
Ba 7.537568477982719 14.033195693527396 18.22915570700295
Ba 12.02845881698547 13.749243461009927 20.763628816175245
Ba 10.413685460041515 17.833700125091564 19.85118706550193
Ba 7.270864951787032 18.068905602266828 16.62552388783241
Ba 8.73619776252208 20.719187962217624 13.418983581712913
Ba 10.22724813221275 21.960910013809446 17.80664424786636
Ba 13.802229023427598 17.260625322071036 -0.18012292330129062
Ba 11.166857167453271 10.743976113409193 17.736012769777115
Ba 14.882112908774026 9.995267692222372 20.394979211052693
Ba 9.51944286682695 15.85426772950565 13.21544865401687
Ba 12.64709270533653 12.056025779520317 13.755983068677587
Ba 11.272146921403726 14.848267700166783 16.754471176419607
Ba 13.475438027623415 21.108007278633306 21.22039917011346
Ba 12.4501452407324 19.025012034411002 11.423721131661228
Ba 12.733745865620538 14.786220754746006 10.228241551596271
Ba 11.611028560664312 18.756025526908452 15.550134454831708
Ba 12.820920931444274 22.809226327855004 14.16698819620046
Ba 16.743052481159186 20.587141259534977 1.0096737123607697
Ba 15.0624096664297 12.91460096956214 17.41390351373804
Ba 18.4125269314792 11.958096571426468 15.269453056953745
Ba 17.317929557488625 18.398783313765506 20.96011646974931
Ba 13.935235703108521 1.4181010035645385 18.31917538920093
Ba 16.40707914198873 14.026811349764358 21.456108591881474
Ba 14.387041658147918 15.93314745346995 14.058514227372587
Ba 14.46282502891748 16.97299168332088 18.567531820209826
Ba 18.974472300842514 15.229611646955409 18.037072355925524
Ba 16.54975686996294 13.043196409609694 11.660545814607897
Ba 14.633588594067803 20.819742763958267 17.475105741972637
Ba 16.609133192358602 17.14243407831374 10.213153623747987
Ba 22.54586615160835 15.540766337151815 15.406983990534844
Ba 20.964445197201698 20.27943524573643 22.0700524787216
Ba 16.174427414955495 19.88420966777633 13.621364136670094
Ba 20.38373502341943 15.640758872108659 22.092731690233407
Ba 19.44829459747665 11.437908351953542 19.509992711082464
Ba 17.529548905134728 22.586806189982997 20.19850117445955
Ba 18.67187549736507 16.228381328833727 13.919566586864613
Ba 18.45851203028918 19.319092128518594 17.28350087931613
Ba 22.733780650908496 11.405662188771581 15.760339886328723
Ba 20.963196134265907 13.188244091071027 11.896136023183812
Ba 22.42745665622263 18.000182773406813 18.864458051610107
Ba 17.631577179300734 0.02882700215634951 15.791657101538126
Ba 1.9252858627012246 20.921441060181717 20.103163149916977
Ba 1.0334878030840202 17.291187371876095 22.605025298116782
Ba 20.923803360081404 19.973780637607323 14.078572807919267
Ba 0.2663405400407178 13.968059445782723 19.375267720563613
Ba 3.4009219673930278 14.70266866704284 15.839101220183034
Ba 23.085873705856347 17.016561385589803 11.685257412410166
Ba 21.591822544440756 22.13819708363325 17.925327362811505
Ba 1.9200450933609636 19.043729959358785 15.69526104921273
Ba 1.7254445615338898 13.23549688959215 12.288076844658278
Ba 3.764592738228567 16.98646013242061 19.22810551989105
