54
Energy = -78.42294772 eV
Ba 12.916661380559995 12.92428213 15.310388106187549
Ba 12.93851730406688 12.92428213 19.714397404411002
Ba 9.100550610876585 12.92428213 17.397775122383727
Ba 9.098060818326738 12.92428213 12.92428213
Ba 5.199843408033712 12.92428213 15.028618416298704
Ba 19.242665485309207 12.92428213 15.104604716044918
Ba 1.0777333342784252 12.92428213 12.92428213
Ba 6.675258028860428 20.11305068852706 12.92428213
Ba 12.916661380559995 12.92428213 10.538176153812458
Ba 12.93851730406688 12.92428213 6.134166855588994
Ba 11.76328240912558 9.34316269786655 17.38237776950825
Ba 16.007999949644603 10.717154972038106 17.33935281089353
Ba 16.007999949644603 15.131409287961894 17.33935281089353
Ba 11.76328240912558 16.505401562133454 17.38237776950825
Ba 9.100550610876585 12.92428213 8.45078913761628
Ba 11.76328240912558 16.505401562133454 8.46618649049174
Ba 16.007999949644603 15.131409287961894 8.50921144910647
Ba 16.007999949644603 10.717154972038106 8.50921144910647
Ba 11.76328240912558 9.34316269786655 8.46618649049174
Ba 11.769754686491046 9.351892169275297 12.92428213
Ba 16.014112860284442 10.707501908355859 12.92428213
Ba 16.014112860284442 15.141062351644138 12.92428213
Ba 11.769754686491046 16.496672090724516 12.92428213
Ba 10.543453307059494 5.766356324179233 15.04013672726043
Ba 19.171473790453955 8.4705209750578 15.059653878460368
Ba 19.171473790453955 17.3780432849422 15.059653878460368
Ba 10.543453307059494 20.08220793582076 15.04013672726043
Ba 5.199843408033712 12.92428213 10.819945843701296
Ba 10.543453307059494 20.08220793582076 10.808427532739563
Ba 19.171473790453955 17.3780432849422 10.788910381539635
Ba 19.171473790453955 8.4705209750578 10.788910381539635
Ba 10.543453307059494 5.766356324179233 10.808427532739563
Ba 14.865743109746804 18.834304409965274 15.124608561946802
Ba 7.842016318165687 16.536392479789107 15.135169319203278
Ba 7.842016318165687 9.312171780210893 15.135169319203278
Ba 14.865743109746804 7.014259850034729 15.124608561946802
Ba 19.242665485309207 12.92428213 10.743959543955082
Ba 14.865743109746804 7.014259850034729 10.7239556980532
Ba 7.842016318165687 9.312171780210893 10.713394940796716
Ba 7.842016318165687 16.536392479789107 10.713394940796716
Ba 14.865743109746804 18.834304409965274 10.7239556980532
Ba 9.342395222648387 2.163409901377311 12.92428213
Ba 22.312251560933127 6.221047644787422 12.92428213
Ba 22.312251560933127 19.627516615212574 12.92428213
Ba 9.342395222648387 23.68515435862269 12.92428213
Ba 3.9008950478448323 9.313282653387835 12.92428213
Ba 13.58830297539229 3.2959932572319444 12.92428213
Ba 22.474470128679403 10.668139856645231 12.92428213
Ba 18.004103962513184 20.924171595833396 12.92428213
Ba 6.675258028860428 5.735513571472943 12.92428213
Ba 3.9008950478448323 16.535281606612166 12.92428213
Ba 13.58830297539229 22.55257100276806 12.92428213
Ba 22.474470128679403 15.180424403354777 12.92428213
Ba 18.004103962513184 4.924392664166599 12.92428213
