54
Energy = -79.40027196 eV
Ba 10.810718566545699 16.323692706748528 12.742204913213772
Ba 11.784452431720142 13.964090803809023 16.106553617724312
Ba 10.453249449132144 20.817437218273238 14.98970760614292
Ba 13.557217659944746 19.5655334205392 11.994165472314098
Ba 15.031281713292097 15.424209745396524 13.638576870917714
Ba 8.796479390985699 17.06940152683679 17.074611659136398
Ba 11.496471885281277 9.734109570438 16.608395565378874
Ba 9.135045585899418 12.60374957075763 19.351689566433514
Ba 14.759283776394392 15.421082728541528 9.729149227284658
Ba 12.818350934060101 12.031998397331671 12.368053869102777
Ba 12.127130078092533 0.9854286303866369 17.220867164239777
Ba 13.066236368143715 17.87197115923744 16.245210652138315
Ba 11.835449021429142 8.945949238146108 21.077341012992818
Ba 12.981230127104041 0.5325859918566256 13.138884225327914
Ba 16.54522974374466 19.321028593081206 8.769797853970948
Ba 16.781687958728142 22.772531462052317 11.642953543903593
Ba 11.689430256748063 20.458878421473784 19.292245167948433
Ba 15.716173054862688 15.130557456044766 17.816297585626923
Ba 15.56561988384116 11.471084115758513 15.847109856669451
Ba 17.501510727325385 18.82371347198866 12.927119008043261
Ba 11.948130697762318 16.249969042055167 20.126728849639814
Ba 15.17997876842225 21.312975335989147 15.992396986837337
Ba 17.627962378016683 12.239005993128172 12.015201326451459
Ba 19.192589925899036 16.029843701421846 10.529377004847714
Ba 13.270697181363381 12.304750138036969 19.507792302656703
Ba 11.489271190003253 12.909730488112729 23.19658614697003
Ba 16.39010217512942 1.7702452216799405 15.832924529461593
Ba 16.158541595915345 18.769465383709704 19.959172079918623
Ba 20.103412397562632 11.480354214792722 16.28779594128504
Ba 18.799455515332827 18.61488939160034 16.79739289054697
Ba 15.432386125506566 14.70264041170102 22.200537524530368
Ba 19.92391508195483 22.1691140519394 14.417619826853853
Ba 22.32903565262821 13.655779612581874 13.020435260705284
Ba 18.8550728256212 15.029281116588626 14.936664684199437
Ba 17.31230986740967 11.118141508990124 19.96500275575994
Ba 20.489322639671144 20.47915311768251 10.335947834107085
Ba 19.00758288048023 22.48332606733406 18.56238477425987
Ba 15.06868379176253 -0.3572193078105955 20.208329952898996
Ba 14.082163185510634 19.234712587760534 -0.020034148672631456
Ba 22.405948536160253 15.64502552351853 17.65313654446014
Ba 21.87136561490161 17.97621884801343 13.73043383949113
Ba 18.500856360169166 17.333918309347567 0.3436035105114215
Ba 1.191006062353668 12.199385307921284 16.337699160133404
Ba 22.12061238293792 11.799654819099427 20.103789194250126
Ba 20.71794237851185 18.92917862536034 20.4555026113011
Ba 22.941070676097745 20.42352541893551 17.088130235162748
Ba 19.077748399790924 14.997429996300843 19.903265955698245
Ba 2.586820532022844 16.582670348201656 15.916343492825463
Ba 22.70844340746192 -0.8311771544226325 21.05570243480695
Ba 18.37370747705049 21.56072238333546 -0.5347873529791727
Ba -0.8102030304178449 15.530382958005085 22.392390941287008
Ba 2.6852937546195754 14.260283596159642 19.791114879937975
Ba 1.6170119961059541 18.54166216548956 20.34620094064391
Ba -0.9752892145672145 19.564177258622475 0.8017716661210769
