5
Energy = -3.35885238 eV
Ba 14.106472001917162 15.415399388959624 11.616379934878088
Ba 13.715574549963392 11.767545062871433 9.717228326045452
Ba 11.464733110842351 12.679630981037889 13.090326369456523
Ba 10.987688271448052 8.937036110140175 11.327141826695765
Ba 8.943216987561026 9.94495600297818 14.77242019634591
