53
Energy = -78.42732197 eV
Ba 15.25949768620312 18.45825165360362 1.3002885323235083
Ba 13.670882900124937 15.330230005683333 22.105546538660878
Ba 17.973619689946318 15.583872777364581 -1.1470697329409043
Ba 15.796296001883956 11.7474133955691 0.03621030335505764
Ba 19.24516297752034 19.901027495242126 -0.209799935326859
Ba 11.985041048294626 19.52622234300667 21.854879304902102
Ba 20.21867968586373 11.680632472172706 22.40991732389437
Ba 15.516935432395602 22.61521314652182 22.405750723758857
Ba 15.412855334217479 15.824887847105815 18.33424899973647
Ba 22.40375040797578 16.097397121041215 22.459569299812554
Ba 15.890614877701527 19.024287254453583 20.615136724846913
Ba 19.789036287321466 0.9001945580074747 22.766682622806062
Ba 20.03337904866112 18.07213245696059 19.498088350367112
Ba 22.857024331644723 21.054055524106097 21.06534520111983
Ba 13.162136680970837 11.532674259862254 19.704887820643222
Ba 17.023972672694377 12.449988995948559 19.671604866970274
Ba 12.07326549277928 21.77563760949726 14.528727509723
Ba 11.085159865431248 15.494234865906195 18.64110981197562
Ba 20.604193544993084 14.260381726583834 18.926731407004716
Ba 12.356152097456398 -0.024241889239077826 19.160164754442487
Ba 18.964663451135337 21.97148072052867 19.558170274346814
Ba 12.440229961814666 19.203741993917234 17.785995055040566
Ba 15.490023908848032 21.815076804326047 17.469097487516088
Ba 16.924500894603046 8.332487905814014 20.662461362668196
Ba 20.289026567641976 10.014465254713363 18.257514952002737
Ba 16.84783137669651 2.104102058442511 19.23073028958693
Ba 21.40584926870471 1.7395539195963405 18.71590742957342
Ba 10.536456152242394 17.00520536228265 14.309554299283814
Ba 16.118505795590053 21.322146477813096 13.337186985026097
Ba 14.46444541276378 17.614408082311762 14.726590377233682
Ba 14.761872522111856 1.7963394594777442 15.213822801257214
Ba 0.5368282695007888 12.461586281055677 20.06671924385269
Ba 16.085149416589722 9.75489039597077 16.482833891768124
Ba 18.514560644049514 5.672892802634292 16.87763197824588
Ba 18.106249774721782 18.955422637970965 16.136721923315804
Ba 22.750061366172826 12.633217889183136 15.64992518672114
Ba 0.4564310190132687 16.773169777634795 18.38612691415311
Ba 18.12068596025812 13.663360755689807 15.535781809688421
Ba 13.988345026981005 0.17156154959843012 10.791794677190543
Ba 13.40352833829485 13.377042403916475 15.458206866323563
Ba 13.134988285263763 19.296216661792386 11.039325322995206
Ba 19.71536342115203 9.594072488007692 13.995270500601686
Ba 22.044504366727164 20.82665015918736 16.709315881312587
Ba 18.868679998259278 0.20408616904277677 15.522318734084635
Ba 13.542753137642524 15.036617161085086 11.21332399774602
Ba 17.41488075146011 16.930409710756106 11.866843453857511
Ba 21.29334618911475 16.66807246595903 14.91086850667896
Ba 16.238803681715897 11.770922337786104 12.276050664072997
Ba 16.942911489098673 20.539672582905958 9.305164037215295
Ba 20.297984950866386 13.450107041653348 11.776961312593773
Ba 20.224432997800136 20.40424187087989 12.481290227597233
Ba 17.137780196423122 13.98940355141457 8.646452919473118
Ba 14.616019319335429 17.294216346314332 7.567014770020194
