54
Energy = -79.44911654 eV
Ba 10.88957705778449 14.272248768306442 19.643977688041804
Ba 15.633412484429343 12.711168380511321 19.240488049922043
Ba 7.252441018576452 17.181708648695185 20.071575741267868
Ba 17.773512650684417 11.773997427545966 15.427803964340844
Ba 18.9626466100015 9.301856042003205 18.77585617267086
Ba 10.88763637666358 16.965775239026406 -0.7432149015402459
Ba 13.997582465870735 13.506720520110877 23.304583004590455
Ba 13.53415846963644 15.4032158988775 16.088726269023024
Ba 11.987143129527418 16.642978875398036 12.084782224302796
Ba 15.137330840256958 17.710989430640222 0.8196101521724509
Ba 18.41567281759981 11.374330384580537 22.653910295388258
Ba 9.133683606584286 16.560050504395758 16.008351034337508
Ba 7.986699538219412 20.71939109073428 17.379173050470804
Ba 15.53688746036141 19.041993544910817 17.44343452520722
Ba 17.846370057196435 15.790118012060729 16.30298215019728
Ba 22.228958085837288 11.686242353439086 16.433390968792914
Ba 12.995520020646344 20.970727634145764 11.04286434415655
Ba 11.223037627089013 18.683004404464064 19.13219061064789
Ba 17.68032493200036 15.47378083981418 -1.8751429343644388
Ba 16.31563110763653 14.515563970725179 12.234051286129743
Ba 12.841474758298714 21.08144108723875 -1.2173488346596517
Ba 22.74493000450054 10.61421174135475 20.663310772605275
Ba 20.88947178643422 14.695289123568147 13.546222303847046
Ba 14.26094414742852 16.678891277293094 20.523562333394448
Ba 11.936605222811952 19.80289644864238 15.155067784206738
Ba 15.272324253477837 17.794670514151136 9.133261310767619
Ba 19.918800644688645 13.484934618414938 19.17141089065866
Ba 13.51862737409466 22.59530935396121 18.470686121642142
Ba 16.945033152544887 21.90632569627893 1.1853788634130338
Ba 16.53211013159262 20.045942075206128 21.444451135752573
Ba 21.75594493072316 14.56531174369084 22.75990961036945
Ba 15.632841751212336 18.42536154469269 13.254098553069511
Ba 0.8757921024995554 14.257799529710583 19.47824955150636
Ba 19.342412113301975 17.534609536290017 10.976270004486048
Ba 2.4216425931879515 10.744838319426568 17.55457205224973
Ba 19.527102088573336 18.215673651640152 19.496683951786064
Ba 22.2983455002767 16.494126324657557 17.21223492464288
Ba 1.4449661637376918 14.52477864669516 14.850881765122143
Ba 19.48432822530578 19.426349769651473 14.799836968536733
Ba 23.608887294295105 16.513577017995857 10.577924154748546
Ba 18.13933637420216 22.162678615768588 17.997032701502253
Ba 16.630723293734793 2.074172916197047 16.992458964607202
Ba 15.577625124598587 22.447448315293958 14.538204280060876
Ba 16.595364147527267 0.48445659966157306 21.274704381369453
Ba 19.731835589688778 18.436389425010265 0.2300517947688012
Ba -0.4565156782486143 18.319397247902906 21.140062779593997
Ba 2.6641747793251205 18.006791121098242 17.67010433126108
Ba 17.580895476913813 21.474941885095117 10.845650600733235
Ba 19.993788800474753 23.65584097378193 14.368000620346708
Ba -0.1393870227374047 18.736973752369185 14.09004336985118
Ba 20.417373469192864 22.01747488702395 21.70515246049342
Ba 21.9172079434123 20.904313964253454 11.077820640852098
Ba 22.486393540343396 21.145358347086127 17.61390947110612
Ba 20.613933782443993 1.5330516131558636 18.72847294209463
