5
Energy = -4.10542307 eV
Ba 9.909140022802136 11.790892539646098 11.84439569150673
Ba 15.811820116760183 14.21753384070745 14.251351677346946
Ba 11.646390816916998 15.155138599223127 13.846111918135032
Ba 13.887782459925784 12.858632907735165 10.660359185459749
Ba 13.028640275874968 11.17065775770223 14.474916313545831
