5
Energy = -3.72428667 eV
Ba 12.311420272293669 12.919370215152778 12.376883726184731
Ba 10.081229796128444 9.770479316312494 13.572043672973095
Ba 13.85092042318647 9.386546038889712 11.178886666501183
Ba 12.311291429123498 12.547096241030228 8.357448166170304
Ba 8.582360244127248 12.884964807663833 10.826062500152846
