6
Energy = -5.43913307 eV
Ba 12.450986726926304 12.945770563289857 15.624003625033385
Ba 15.250571121388605 13.965077785536826 12.464940649098768
Ba 11.38721253780432 15.090779277167718 12.172717083976332
Ba 9.789833607521045 11.249338765672238 12.568200281215782
Ba 12.714032911155712 12.306719250601258 9.535856460024165
Ba 13.847784502200728 9.976729891766137 12.912230403673213
