6
Energy = -5.12955894 eV
Ba 13.086693522426868 10.00653084677558 14.802217589811194
Ba 14.89237201425889 10.289918513959437 10.928467225722066
Ba 13.510421598112345 13.746797222998541 12.907588020444177
Ba 11.567319172036523 12.575673198094707 9.525312659435665
Ba 10.303201856789078 16.067692373311345 11.60176783164411
Ba 9.736662947952638 12.279855433323572 13.433899594438248
