8
Energy = -7.36367103 eV
Ba 10.895388582704886 9.320729731705171 6.359947206910938
Ba 5.521955877295112 7.096614728294828 6.359947206910938
Ba 9.320729731705171 5.521955877295112 6.359947206910938
Ba 7.096614728294828 10.895388582704886 6.359947206910938
Ba 10.895388582704886 7.096614728294828 10.05739725308906
Ba 5.521955877295112 9.320729731705171 10.05739725308906
Ba 7.096614728294828 5.521955877295112 10.05739725308906
Ba 9.320729731705171 10.895388582704886 10.05739725308906
