9
Energy = -8.96888928 eV
Ba 9.032582255 11.155354245130507 5.3414633713113036
Ba 9.032582255 6.909810264869487 5.3414633713113036
Ba 9.032582255 6.955984160179792 9.798818368509918
Ba 9.032582255 11.109180349820205 9.798818368509918
Ba 6.139735525248172 9.032582255 7.299785397697037
Ba 11.925428984751827 9.032582255 7.299785397697037
Ba 9.032582255 9.032582255 13.489303217494127
Ba 12.607682381723295 9.032582255 11.461901406856684
Ba 5.457482128276704 9.032582255 11.461901406856684
