9
Energy = -9.03424834 eV
Ba 7.606724628286352 12.004187880092072 9.283031092806443
Ba 6.051932341813183 7.892990338523434 9.976844815308477
Ba 6.563987502964402 9.454157509307052 5.956964372610293
Ba 9.526738741418379 7.155858422498066 7.934805387642495
Ba 9.768670871548219 5.509780032824145 11.59965697672718
Ba 11.62874649788184 12.792824173836657 10.496408135249386
Ba 9.334546420806715 9.502728251631941 11.884138929775416
Ba 10.525076206209732 10.853837240285802 6.78920784490152
Ba 12.820873022750513 8.660931683642854 9.906238444978667
