47
Energy = -101.93207751 eV
Ag 14.812807266077266 8.72409876327049 9.409357170892799
Ag 16.311252210877566 9.912379439641935 11.419593682847426
Ag 13.82986985359953 13.205429419579868 15.327660833137383
Ag 15.455738051046024 11.825394217835287 13.348277990314223
Ag 15.703480436324728 11.002748663345285 15.9723548041993
Ag 16.603730648878066 10.808898181931276 8.807486497051409
Ag 13.88720190355416 11.391775680594472 8.628178804918708
Ag 15.708191789495887 13.451613996973341 8.06955036559548
Ag 15.373353090207898 8.840619133100816 13.809309648745046
Ag 14.40594208874144 15.211017564195137 9.993484942639986
Ag 14.123825262616617 14.211696479743068 12.67765601343151
Ag 14.320119070218569 8.639144274170373 16.61145664952305
Ag 13.244114031573499 11.213330668558209 17.42417841269844
Ag 13.533075711932703 10.59833650675274 11.637091809240367
Ag 12.917546303859131 14.006686035847835 7.9057893547404685
Ag 11.325414794180846 9.158342118738235 13.181974503387421
Ag 11.08408246253219 11.842849524489958 8.430577659540983
Ag 12.971656101202075 7.444138827552515 14.569279321463831
Ag 12.058363050354206 15.916217739859587 11.507671954347149
Ag 11.195710251718667 12.44393282514182 16.012724442928462
Ag 11.761533246540138 14.927299814910922 14.15344252725198
Ag 13.329768916782909 10.429725223590845 14.676253719499933
Ag 15.530208411864267 12.655447764413818 10.70179628560961
Ag 9.628448665601526 16.392476021418275 12.929323514910141
Ag 11.26853911388935 9.421081210682015 16.09808493646262
Ag 9.849651426047139 17.202768398719126 10.18004061149963
Ag 12.8515279140158 6.6995881319340835 9.315007631663493
Ag 13.45199208222172 7.782158560051102 11.78954483845326
Ag 12.281687210189828 16.688557697414684 8.825399929889565
Ag 11.905406040241527 12.3130292152831 13.269365716817559
Ag 8.641523401366968 9.268853088187992 12.310824898053166
Ag 10.002496838965955 13.849099573249575 11.811839659010941
Ag 7.379508169573239 17.445277577148598 11.62994223434217
Ag 9.183415684602044 13.718836929891784 14.488393437572693
Ag 9.545482615315645 10.91219757647934 14.38247328720106
Ag 10.434598626754326 14.620680627813346 9.065869065140342
Ag 10.623666005829865 11.038693731461818 11.167603903800957
Ag 10.595556759227383 7.654872409970491 10.900138110061288
Ag 12.551345945660056 13.098897779107933 10.572930757142935
Ag 12.094783017162989 9.355956459861964 9.294867386400346
Ag 7.944771582864602 15.128873377828127 10.266786228099924
Ag 7.852912255777775 12.088257075448015 12.434267816593563
Ag 7.229788105292453 14.880236138851476 12.902943734075688
Ag 8.596415963358675 12.44222970538411 9.660634303411321
Ag 6.880518308817399 10.30355648818255 10.442961450798016
Ag 9.293169477938381 9.667047356754452 9.139293484044334
Ag 7.850747805700459 7.590589975230498 10.2712536411413
