19
Energy = -37.02022012 eV
Ag 7.36167724390325 10.335808675597258 12.801603595726544
Ag 9.671180044193978 9.123947775058864 13.66461360313816
Ag 8.629860791931945 8.842443627766588 10.905793416689598
Ag 8.278289188072044 7.84263153141006 8.310706279340005
Ag 8.704229685238259 11.668445835306803 9.430109680751297
Ag 10.298137423329015 6.735365622022994 9.78657185833977
Ag 10.117916020369771 11.156534770797066 11.746683374320089
Ag 7.842400348074461 12.832280772550957 11.861165548620072
Ag 12.216199590332662 10.438971603081901 13.383190369595717
Ag 11.397168601862386 8.397627348170579 11.663696741458208
Ag 10.092879690887745 13.906895495116588 10.77926579451333
Ag 7.810050431046969 10.30578368071254 7.255250372067213
Ag 12.464048896561057 12.803703589279536 11.783784156021765
Ag 13.046933363757567 10.36287164237845 10.590903615702112
Ag 10.478568199461998 9.475808844365101 8.937779239129199
Ag 11.55524219207581 12.245768646817453 9.188085150681715
Ag 10.312346449288938 11.369313946811962 6.886319390995368
Ag 12.843742570962675 7.8928394873033145 9.333470924252936
Ag 12.813412648219657 10.256018849476982 7.6820234277878265
