27
Energy = -54.57351781 eV
Ag 15.6104710931371 13.114591044625882 10.700394270084658
Ag 13.598684787226425 11.265423403279481 10.624112786641035
Ag 13.079547071776252 9.242512938954043 12.57109088740204
Ag 14.195685763062437 11.81141859368579 13.284405670797787
Ag 11.655730683537097 11.460144425480033 8.582203034758306
Ag 12.967687577815687 13.787409509608942 9.621505958313632
Ag 12.30259344633156 8.855983682387265 9.922391319089074
Ag 13.748838416233339 14.365883634021573 12.206411611630875
Ag 11.039520855486606 6.571558507803571 9.085652871882626
Ag 11.929378910898278 6.7409342447821565 11.768820330259762
Ag 11.98256608681591 8.42016257477431 7.12815929048622
Ag 10.52161645150989 10.631071117752358 6.194115657637029
Ag 12.057486005493054 10.651432605412804 14.712559740439062
Ag 11.232333175640077 15.269744561214427 11.640974026998956
Ag 11.597176245487743 13.011114500845391 13.362390613500319
Ag 10.55076715216223 8.594767223441547 13.591412886630732
Ag 10.864580316288064 10.84553190076055 11.413209153593176
Ag 9.781810213128786 9.220751855666004 8.51815378075646
Ag 9.61532632445606 8.054225672640905 11.035003532740019
Ag 10.226230585979566 13.54828473574684 9.786620121928978
Ag 9.418177526673693 11.1867303778817 13.856995172769576
Ag 8.886525312711537 11.833040894540312 8.083656520804492
Ag 9.096620357241033 13.512375096765316 12.354202259821049
Ag 8.136414759443207 10.410172764098714 10.493263245992496
Ag 7.7629821992981425 9.043491662895041 12.893346117386677
Ag 7.479558534500599 13.11141030026749 10.171936958831138
Ag 6.892801240104825 11.670943263106736 12.628123271262275
