20
Energy = -59.55330658 eV
Al 6.4445611881213 8.8550401740265 10.686045647143255
Al 7.7491061443748555 7.58474908265141 8.814337448151361
Al 9.45293895265546 9.677612708907345 8.480581403593051
Al 14.123421086769719 12.29703374014351 8.606739686097336
Al 9.56794745610476 12.491903568905904 8.846045075065122
Al 7.706763450989758 12.47187690123162 12.985091354172763
Al 12.23406251099541 11.642546816491746 12.658540133222415
Al 12.034112306232128 8.582475211742171 9.170760855934903
Al 11.765389113196122 8.840634945389608 11.993914083436552
Al 13.426853425442799 10.48878547220612 10.553892901817608
Al 7.1540890578849 9.94171151553581 12.870392878938713
Al 10.777821716638867 10.726656657715186 10.496115218193031
Al 12.001568929618172 13.104466562396569 10.023362338382965
Al 9.780073228842866 10.51407309809975 12.955374217656653
Al 14.198655001689815 9.777453503439048 7.820920546014484
Al 9.171578681139087 8.559856189115926 11.082255231761788
Al 9.95760725699832 13.005924601991119 11.713162331136846
Al 11.699662831068267 11.102817038116186 8.00131624781251
Al 8.126364236768731 11.078267861403209 10.542270412515627
Al 10.152103281831362 6.7807942078533685 9.223561846314823
