20
Energy = -59.61817383 eV
Al 7.543338106544969 10.281040852184024 9.340417292016264
Al 7.694162556999557 8.65338788563015 11.566018234095292
Al 9.040211020458656 8.70072980835556 7.99104679388707
Al 8.641096381180292 9.749479614505066 13.802162692314692
Al 10.235271790232765 8.091622696158973 12.455409668994717
Al 8.333142123184253 12.963346633772053 9.313103013548487
Al 9.321188666266883 6.981169948632011 10.11842930649954
Al 12.932867379703435 10.778107379282496 8.529162631735609
Al 11.803081106140706 6.529313755298221 10.978173512331692
Al 8.375341844958031 11.319830948110338 11.572357287572064
Al 11.155694462842863 10.050598846494387 6.7576846798823444
Al 9.117866752607945 11.617814393003899 7.213734712206505
Al 6.87790536022131 7.6171065284589785 9.257924471079034
Al 10.747621739260065 10.792138867836336 12.395820773769342
Al 10.334913864944903 10.716309505632124 9.57565916674724
Al 11.43877213084928 8.187731126165865 8.833364539723304
Al 11.316117111377187 12.964662678180336 8.147758253049153
Al 12.294101001290835 9.222535289889626 11.015274025799178
Al 10.49374518334773 13.266670593845095 10.747025585818232
Al 12.76075169722114 11.973592928196844 10.846663638562896
