54
Energy = -116.19278003 eV
Ag 14.956605734079286 11.252385961809685 15.632876520723261
Ag 15.03350258745577 18.129483541975564 17.736080193994557
Ag 10.341728355523895 14.8656566265878 12.067836902383938
Ag 8.933548865982015 13.60029108694708 14.183463454820277
Ag 15.058792854422455 9.4605024069931 13.332261407211073
Ag 9.343827071116916 16.325071096862068 14.37099337012701
Ag 18.609910710857644 12.087914702993551 11.42091553548155
Ag 14.372141664498455 19.97679983655201 13.535181117594577
Ag 16.836679348126307 18.393563838886433 12.412696877681766
Ag 10.916303088271727 17.379521261098734 16.700062064127067
Ag 18.480866582019196 15.082370217204533 11.221513821012483
Ag 16.552715885589848 13.37194557845854 9.814548046224743
Ag 12.080005518824374 16.21582168549682 14.234681784876962
Ag 15.276855253673121 13.101291352140265 17.800441231419793
Ag 10.012314565718569 15.265434987761218 18.803179171283734
Ag 10.73368946334918 12.526037030946533 18.29989853243116
Ag 17.1902908976216 15.96612659586232 13.779082571398174
Ag 11.795325105460316 13.428680772475287 13.952212921170922
Ag 16.11518497775154 18.456786255900482 15.154238753482067
Ag 17.48394826596956 17.0580691489562 18.668820069901173
Ag 11.608673213204407 14.021477557533682 9.715726379082302
Ag 17.000015684169636 13.508756287651114 15.44149205604448
Ag 13.840097774875725 8.615356481832137 15.65296319710585
Ag 11.66567923749054 11.065296862223226 9.21734284939635
Ag 13.341945498410096 15.929898420658727 16.811834018330142
Ag 14.523842207989276 14.571467422893242 14.493678157810825
Ag 17.40421116153019 11.342310814289162 17.067830227485803
Ag 13.197968358489732 10.025931617317271 11.343328229800413
Ag 13.278525232889505 14.93262019183379 11.837587976536602
Ag 12.956397460195939 13.044614410373612 16.401975786378593
Ag 15.874380868884854 16.045442161839105 11.191501412218217
Ag 16.2562205249326 15.992745094047564 16.4186423380986
Ag 13.875436219132638 12.50198763814172 10.16317081119302
Ag 19.119841065645588 13.741563811697414 13.62124333664942
Ag 10.680706790066543 14.678203478382512 16.24970847109392
Ag 12.263229849051966 10.477260002710379 14.11708262423853
Ag 8.368455747715299 13.50023829878945 17.03753999485302
Ag 14.444803207747446 17.184613764381556 13.245060686030431
Ag 17.74148814901354 14.284446942841763 18.110152877738326
Ag 10.254120490440624 11.72208154898415 15.677453307280429
Ag 17.003314578074455 20.782641966700083 13.800653694431633
Ag 16.500796318453126 13.505972760414119 12.636150098998705
Ag 19.13533364946356 22.16687859587953 13.244384948890985
Ag 14.14670716838662 12.184989182233446 13.000686527900521
Ag 16.62468243291588 9.009371953978382 15.631253624872027
Ag 17.431072355516548 11.132903224651674 13.92374516024289
Ag 14.27608844440051 15.05576858003454 9.135511011647843
Ag 15.190581973214707 15.587976980812122 19.060366285057604
Ag 13.235352036035838 18.492124515441095 15.5765716567082
Ag 11.170941804938503 12.038526061555231 11.714555360641818
Ag 17.055074050913404 15.827514657245827 8.738848956702236
Ag 12.32875008195577 10.46756731933817 17.06897123624055
Ag 16.05360036331318 10.989266376664393 11.260344112122413
Ag 12.731292879742266 14.299949314545806 18.977241864300535
