38
Energy = -118.20704815 eV
Al 10.33868385 12.324381317780835 10.33868385
Al 12.302032468077806 12.302032468077806 12.302032468077806
Al 10.33868385 14.292862983116509 12.306543601867368
Al 10.33868385 10.33868385 12.324381317780835
Al 10.33868385 8.352986382219164 10.33868385
Al 10.33868385 10.33868385 8.352986382219164
Al 12.324381317780835 10.33868385 10.33868385
Al 8.352986382219164 10.33868385 10.33868385
Al 12.302032468077806 8.375335231922195 12.302032468077806
Al 12.302032468077806 8.375335231922195 8.375335231922195
Al 12.302032468077806 12.302032468077806 8.375335231922195
Al 8.375335231922195 12.302032468077806 8.375335231922195
Al 8.375335231922195 12.302032468077806 12.302032468077806
Al 8.375335231922195 8.375335231922195 12.302032468077806
Al 8.375335231922195 8.375335231922195 8.375335231922195
Al 10.33868385 8.370824098132633 14.292862983116509
Al 10.33868385 6.384504716883491 8.370824098132633
Al 10.33868385 12.306543601867368 6.384504716883491
Al 12.306543601867368 10.33868385 14.292862983116509
Al 14.292862983116509 10.33868385 8.370824098132633
Al 8.370824098132633 10.33868385 6.384504716883491
Al 6.384504716883491 10.33868385 12.306543601867368
Al 12.306543601867368 6.384504716883491 10.33868385
Al 14.292862983116509 12.306543601867368 10.33868385
Al 8.370824098132633 14.292862983116509 10.33868385
Al 6.384504716883491 8.370824098132633 10.33868385
Al 12.306543601867368 10.33868385 6.384504716883491
Al 14.292862983116509 10.33868385 12.306543601867368
Al 8.370824098132633 10.33868385 14.292862983116509
Al 6.384504716883491 10.33868385 8.370824098132633
Al 12.306543601867368 14.292862983116509 10.33868385
Al 14.292862983116509 8.370824098132633 10.33868385
Al 8.370824098132633 6.384504716883491 10.33868385
Al 6.384504716883491 12.306543601867368 10.33868385
Al 10.33868385 12.306543601867368 14.292862983116509
Al 10.33868385 14.292862983116509 8.370824098132633
Al 10.33868385 8.370824098132633 6.384504716883491
Al 10.33868385 6.384504716883491 12.306543601867368
