38
Energy = -118.71136039 eV
Al 9.052115350452436 7.82592842222604 9.287530558297549
Al 11.037532020246044 7.398451488496882 7.266210183328085
Al 11.851924816361912 7.315331129951888 9.78697646983046
Al 10.047092503049008 7.183603860952502 11.732338365144075
Al 8.979920387374579 9.13395900319333 6.92947579059205
Al 13.408924635072431 8.779254809568432 7.649154757047825
Al 12.777442223201978 7.308183735407621 12.42941463132578
Al 8.290363307994555 10.60184647808668 8.996422837034594
Al 11.033428351730416 9.71117707120229 8.80943702401072
Al 11.435860850892725 9.819349044394668 5.945818234542316
Al 11.413947541561678 9.589040422544981 11.57498462377457
Al 9.300576612335696 8.648461294333499 13.725636764213705
Al 8.245939139753247 9.376235404409307 11.355889118064983
Al 9.876361496037612 11.244526804601932 12.954781418205698
Al 10.652553592016478 11.971827155013596 10.408785536325066
Al 7.872534800232578 12.102223586514533 11.22525299466819
Al 8.968340862766604 10.52189151666581 15.543535690819253
Al 13.980390233696843 8.834809418432258 10.396253567792247
Al 7.2083316357097456 10.613264747231183 13.433316933551712
Al 15.140414638807323 10.784987437502776 8.855876514430097
Al 10.191570786677747 11.827382829914013 7.413005028933971
Al 12.833318862289948 11.496174343910992 7.705794689911311
Al 11.63941007172694 9.794951399339155 14.583622611719937
Al 13.884150054644305 9.812590577956515 12.911038976619489
Al 13.275113380878667 11.46038619088157 10.682117626444882
Al 8.11093850003577 13.235165971052258 13.788668552565099
Al 8.783131567061721 13.33448766207617 9.053131410736247
Al 10.573278239115584 13.910611895028543 12.674345531305935
Al 15.34834648314109 13.20430859951629 10.269047230932726
Al 13.07880196568988 13.759174461049827 9.01033427596326
Al 10.631661379601246 12.55280237265265 15.343665249170405
Al 8.344097617408625 14.882041835175533 11.352912102557047
Al 15.059162090731595 12.259479268611699 12.697239741391657
Al 12.510694304833882 12.086729627647227 13.50969994332062
Al 13.15619679803785 14.0996088181369 11.852328698885694
Al 9.688573547340303 15.039620277059113 14.999633690906805
Al 10.889562107308782 14.698105793840766 10.1531010138567
Al 12.354672448056663 14.727713371895948 14.647855613902987
