38
Energy = -118.80121461 eV
Al 6.344663597506611 10.637407617832999 12.05078657928659
Al 5.614720145245184 9.048820125252032 9.893819804487268
Al 6.743593342022914 7.165102614532012 11.446947295948117
Al 6.854647809719134 11.321485433995319 9.382283444878706
Al 9.214756978835286 10.909485209602131 12.847534115207093
Al 7.874357982910076 12.80647027686895 11.465188807993046
Al 7.69863349629445 8.740492523184736 13.391738540563654
Al 8.636229276744245 6.987224212796709 9.435168486213733
Al 8.097220010155153 13.464638425531373 8.630000066843449
Al 8.406490850991396 9.40507839489619 10.720405643497745
Al 8.96422730097783 11.084446524096412 7.289889505645857
Al 7.499742259229858 8.967902199468101 7.985020993417315
Al 9.469233335686827 7.124004238393715 12.025871503066208
Al 11.503917294333425 11.122017114912836 14.17935099774981
Al 9.714902858819775 13.565160000725243 13.50462417973229
Al 11.409061199290045 12.391621829501863 11.723194275507048
Al 9.808777741061384 11.510594838210988 9.806844073481741
Al 9.864237331457558 14.292276556490236 10.412994243468471
Al 10.35491039572969 8.707281597371589 14.073491455024948
Al 10.653718417088186 13.310677863496837 7.839569446505593
Al 11.709792538150001 15.214901175394145 12.068100679669033
Al 11.915649081655651 6.7466444729758175 12.859987074753942
Al 11.30877832891692 9.384111695781822 11.539938496995111
Al 11.61777188642185 10.788203893244747 7.240320707039234
Al 12.806040238521847 13.376427333676661 13.87447664295071
Al 10.264866442278633 9.027464885027715 8.7619539958756
Al 13.160647232047326 8.82941671939485 14.239599976401813
Al 11.471956595445826 6.95337084030975 10.136981285913032
Al 13.229639520058516 13.12106895514711 7.250521960286543
Al 12.694518222888664 11.4926238229274 9.639671783432043
Al 12.490312519255491 14.27484834307835 9.626961568560134
Al 13.841365355670172 8.244189673713409 11.590202750839005
Al 12.953484711295596 8.80586338160272 9.013477787891132
Al 13.607309410024664 10.832378656256152 12.42395042967921
Al 14.36346206697272 10.5270874534298 7.486059477116883
Al 14.103872185272516 13.324347145953963 11.50037291111838
Al 15.193294252582172 12.864587703782396 9.075429587334407
Al 15.108700450222388 10.217589612782072 10.17389452982043
