38
Energy = -119.44385684 eV
Al 10.12687948336952 12.943461481316945 17.48609539396745
Al 11.558423717395252 14.6968138982118 15.98001227439719
Al 12.29179408695333 12.067478389882483 16.200502190875795
Al 14.467198293855992 8.710089850971737 14.123891846016638
Al 13.733560190198396 14.240035266363913 14.588200673350318
Al 14.344849541463894 11.456575509716462 14.575771529254501
Al 15.37826663584602 13.26564630268858 12.714260231541225
Al 9.74608082094357 11.215778274331457 15.346632143951231
Al 15.712939537023724 10.478138173141822 12.393004042554432
Al 9.080514438134601 13.79899047761718 15.075253387578261
Al 11.229324714010259 15.696234656396982 13.525724692522502
Al 12.060985839927714 10.245328836465864 14.118198370576392
Al 11.409690511187678 12.912473441289862 13.776377603181322
Al 13.11669894580977 14.74050243543885 11.954644091086951
Al 16.999597742721896 12.235865907710686 10.712442524377831
Al 13.580450322120361 9.078552058610667 11.625733356088514
Al 13.076647714550942 11.816651317499982 11.985690797459267
Al 9.698665510223025 8.974483703681246 13.919038258993222
Al 14.635969530180116 13.572093450662367 10.110953654632436
Al 12.037952661895412 7.634283372262517 13.45117292470549
Al 10.701367620117162 13.797453812793954 11.401434410238958
Al 8.936718816684223 12.138149016287828 12.84642285235479
Al 8.655586737945429 15.244202544766084 12.93746344858572
Al 14.63037933832086 10.92037460310735 9.83596108616178
Al 12.352502097346964 15.053548303983966 9.302586193108983
Al 11.046701629496178 10.033541485453792 11.722879026955116
Al 12.16197648094477 12.248638688557918 9.463187434235598
Al 13.829507522203745 13.472274033719238 7.601090752060965
Al 11.653264742011348 7.365220704806242 10.830933577663036
Al 12.570254754750392 9.252981094191325 9.198118113690292
Al 9.93011519966885 13.90799899690997 8.807803282802304
Al 8.093061222634454 13.825942315791869 10.778520552204055
Al 9.500886810105287 11.599443599557373 10.196402944901426
Al 8.33947231948879 9.669722025670412 11.751339315233727
Al 11.39667424772559 13.020921304674788 6.76942003199512
Al 13.295980866260921 10.886045739053243 7.220693893846007
Al 9.751803614380172 8.86809188605633 9.604958735475565
Al 10.639609226619656 10.68832652487367 7.83953784589236
