14
Energy = -39.92605728 eV
Te 16.268324595504968 15.529869435943825 15.3946839385997
Te 14.021319753964399 0.444423905509386 9.632226364620612
Te 9.457623235151477 15.839631396716545 15.389647750410692
Te 11.860873762195594 16.143291226028882 16.78215094746908
Te 14.9010435032706 -0.33153236001941677 17.570573051711317
Te 16.018255792168432 17.891014632642644 13.94966632753677
Te 16.579760064408777 14.298316019549322 12.783268609291625
Te 13.800929780164973 0.8753506669260207 7.089935880214553
Te 11.400463540337997 13.205140606748733 13.623332538916697
Te 14.942729120294615 16.70397498482525 17.966557068280576
Te 9.097996843134405 13.132716374218045 15.23550311591703
Te 17.038685692179335 -0.1905749865289405 15.858042730139346
Te 14.556546303500113 12.504726979990808 13.210935336726445
Te 13.328082754694005 13.950983783738067 15.49115599477758
