12
Energy = -33.45374461 eV
Te 8.975507097338436 14.197295487052752 8.994726745354061
Te 16.464855446263993 12.672076426194883 15.744224758458358
Te 15.11886778029743 16.311919021397742 13.24055715596937
Te 13.698747734823408 14.41063700830754 12.089040861113437
Te 13.99703679670074 10.102028827698668 13.03290776791589
Te 8.894186748730393 11.772839331206423 12.501215859422034
Te 7.338341326990674 12.30105574902593 10.35852607287363
Te 15.363418651997225 10.35154158591514 16.09090954041471
Te 15.417807436763345 12.132288299467886 11.943547820301522
Te 12.325916634036467 9.412004168904877 10.802042093744936
Te 10.37972034298284 15.328307218232123 10.903630268659882
Te 9.930651568222274 9.236571835249372 12.055426229356936
