11
Energy = -31.40174325 eV
Te 8.818705936082623 8.33885815965582 6.732775291636751
Te 9.758313210046015 6.788569096175215 8.982292161220313
Te 10.85867915573487 8.774896666264484 10.440110937970802
Te 8.946098516553617 10.763667072850168 7.709304058119309
Te 8.992561465717742 9.807679949793027 12.20241254137343
Te 8.316472085041244 12.239182112987327 11.171081589802137
Te 11.062511595260704 13.374770426395266 11.008430096212445
Te 13.961058762044365 10.738931905059369 12.433203664210641
Te 13.8317219502761 12.606082378331074 10.453145385824273
Te 11.048891609402123 13.178334573400761 13.802416755000934
Te 13.680822899696988 12.693460818190824 14.360765892426118
