11
Energy = -29.48688209 eV
Te 14.298034341333953 9.215286415363964 14.270906799211946
Te 15.599558372143873 13.101208935272156 9.269235487949379
Te 9.138455766827166 16.18730197980383 11.608624391691515
Te 9.97728970534996 14.938171895215742 9.506073009751614
Te 13.28713554206063 11.692039714910697 14.9154593329876
Te 15.328668719364986 13.18178178753173 13.923871910272084
Te 14.171946562682267 12.428069340449099 11.350275920131136
Te 8.00141748065516 10.471581890102886 10.433456885255433
Te 7.472741437569184 11.388401566429662 12.83258893764561
Te 14.395921495692797 9.541781768517898 11.529173426589407
Te 8.430679446314228 7.889032621293073 10.299192263034554
