14
Energy = -41.09677702 eV
Te 11.85476809008673 7.29908139500696 8.735495915779463
Te 13.606524684604585 9.403128082777775 8.544870380006921
Te 8.313462708417218 9.222664763089488 6.352762331143171
Te 11.89742190540555 6.744205340626195 11.435682525544877
Te 13.536098436473067 11.978294074536933 12.09297350271318
Te 8.51320847655416 12.071166866130412 8.129283133127453
Te 12.23529217296962 11.479078470284177 9.769236879276807
Te 7.18765629731078 8.062969833823832 8.350185778680604
Te 12.19794387897382 10.41747335995225 14.041906401273149
Te 9.504023534130532 7.598309901328864 12.402442153635619
Te 5.844359110831119 11.419395291028033 6.158663191576171
Te 9.765246305429157 10.354369310305612 12.819566357486973
Te 7.283284150078811 10.908951641184844 10.07906504525765
Te 4.657461158049184 10.285204473178052 8.146344865334957
