5
Energy = -12.70986947 eV
Te 12.73180127292279 10.946161607785685 12.973991692622889
Te 12.680899038333603 13.444817092361745 12.312623591258733
Te 10.526172971872349 9.015564028790699 8.717343698860894
Te 8.588211151174526 10.512811128389162 10.0026353139164
Te 7.85862273634865 8.368737650944372 8.412500760974517
