6
Energy = -16.51508523 eV
Te 9.12935997689083 12.31204609214611 8.876538210256832
Te 10.850353336159221 7.26661251478886 10.053081151183974
Te 7.323074119898 12.624165204356247 10.752035860448032
Te 12.168224640809253 9.428451356231465 8.547373390218079
Te 11.530093833623425 11.453259404037677 10.144375157698397
Te 10.063997305426737 8.488979688108744 12.205365544771901
