7
Energy = -18.36501671 eV
Te 6.142707534260379 12.097729126503156 12.432044482304807
Te 8.820664613175277 9.350577872038553 10.247684266421569
Te 8.217379230267051 10.509459955018741 12.705734164446243
Te 11.123621257485894 10.919426098745378 10.328877125870621
Te 13.068780724632497 9.202724867503553 9.425003848126792
Te 13.759954339602276 12.42740493961083 9.198430328965523
Te 14.606518993272182 11.33729560857172 11.515005771201476
