7
Energy = -19.44670642 eV
Te 11.774705314090635 10.980821154670648 9.302923740308897
Te 10.812500463382916 8.452103396396913 8.086401444673596
Te 9.766317274999631 7.33572614189769 10.256853283947963
Te 8.112902781073066 10.613694152913135 6.98934658607084
Te 11.246495100160091 10.560665116921564 11.807313352396983
Te 7.359181832973767 8.739657853433517 10.6441286852741
Te 6.540288663525493 8.711223492142812 8.017863602461167
