7
Energy = -19.464246 eV
Te 9.63501565092305 12.695141929876476 12.991065321004134
Te 11.067708006715051 10.389297190237134 7.675272004232605
Te 10.491009206837976 7.740696861234635 8.221512982284821
Te 12.959521536895059 10.836345149742426 9.539961567590181
Te 11.627095903472895 9.648128727257216 11.812363171188483
Te 7.762669528471461 12.041539071843525 11.32011813968316
Te 9.39350555305993 8.822392560438123 10.58120624392132
