8
Energy = -23.19040026 eV
Te 8.19781042419993 13.093012783495979 11.83333217462788
Te 11.65976841670664 13.11383010854133 9.261901016531215
Te 10.359867399306285 9.324909702364447 12.334533555870287
Te 7.905174482239072 10.226987727128934 11.897548599789348
Te 13.326865424121392 6.935671572474508 10.451016374329155
Te 10.838828450825876 13.450018237460723 11.928266870787496
Te 13.301433129529098 10.983711422163859 9.495181682939869
Te 11.553235910460955 8.725973522846134 9.718990638859463
