8
Energy = -22.47740584 eV
Te 8.783624624995104 13.944161834264857 9.608279108815964
Te 9.939420406935259 14.986045309385378 7.488816931459934
Te 13.738741730988927 10.334754955024112 10.36471113953016
Te 14.260967666923786 8.29672175557502 11.899188252362096
Te 11.706161463011972 7.745743595330128 13.165863151616819
Te 10.068945160152156 9.208553024721866 11.630625390745566
Te 10.878397499501789 13.515628454752415 11.465836539704007
Te 9.648615179553273 11.625900681273324 12.968523174953011
