9
Energy = -26.49688945 eV
Te 12.96781673388844 10.942138298689173 11.145744345444868
Te 12.906058797492815 8.695078786503817 9.124584474092142
Te 11.014679672458005 7.271251376591099 10.33561323462862
Te 8.635472402187572 7.688054323649962 8.954565130561276
Te 11.733055398533311 13.194883148561457 9.612374011331017
Te 7.162825652259142 9.473876524693322 10.405389988854349
Te 11.053314517493762 10.237514557734105 12.743581316406397
Te 7.5697404695642305 11.920011318898226 9.240293088875983
Te 9.38826471711969 13.230821604342006 10.87152633418051
