9
Energy = -25.0820502 eV
Te 11.065524176284667 15.315992219402492 13.03968090186589
Te 0.7626914140738936 9.773093520167194 13.382949385622759
Te 15.320430031561415 14.351218332058869 12.974274617421267
Te 15.706584961482882 11.681115530261861 13.208867596383453
Te 9.672738544279081 16.404167679771966 14.990309340827846
Te 16.52831522985118 11.759072832985257 15.998577372946404
Te 13.299585831346555 14.910153101873812 14.762660323049953
Te 16.00271987158085 14.248513061668644 16.677478482701066
Te 1.1285319803965452 11.311124817266027 15.462589476531502
