9
Energy = -26.78490395 eV
Te 12.141245940713002 9.322318245054575 11.900811822347476
Te 9.823717119175994 13.178800872553206 8.757810852441246
Te 13.342900531391843 10.661903422410687 9.808087784466954
Te 11.369312019818672 11.053577894853746 7.9543045224354145
Te 8.299345820980582 12.01846845348228 10.723508841597756
Te 11.28140548049445 6.957810938660753 10.796582820982994
Te 7.633145239174632 8.227703302676609 8.647289124761011
Te 6.348132993463439 10.496804992419815 9.549597384443418
Te 8.538588282312586 6.97352062892833 10.92457977571955
