19
Energy = -37.46497273 eV
Ag 12.743880003507941 9.228223420310696 9.740174398810286
Ag 10.190140037227602 8.193382293217436 9.295356131611747
Ag 12.336328254361558 11.929501470224375 9.94803910142902
Ag 11.227824204171664 10.36304541763964 7.778958842246739
Ag 11.624829296175458 7.7184148858632655 11.76927925518998
Ag 8.872866590157674 7.302979960069555 11.543651322415633
Ag 11.513395075424718 13.156018071167159 7.644160766525562
Ag 8.341392045856432 9.827215438920577 7.819113029440909
Ag 9.455994095780317 11.822938688674444 6.236602077770293
Ag 7.2362022248867515 7.88332613831044 9.395307161586823
Ag 12.599670514439556 10.41976341566112 12.245151006484344
Ag 9.288053263800006 12.124093741673999 9.097907644436106
Ag 12.092883207840623 8.778528147022971 14.361308866434758
Ag 8.269300596946124 10.053902833912243 10.703073032035384
Ag 9.788128098245682 9.522170554376377 12.94714875248833
Ag 10.76542241737405 14.219253050814647 10.25050156495512
Ag 9.800145172574469 12.090463682658816 11.839544797144555
Ag 12.218773825582089 13.279062283426637 12.479934931752886
Ag 11.081084100788924 11.528304609063186 14.332938381262688
