7
Energy = -10.76075476 eV
Ag 10.892764325219206 15.80187394676477 10.850304919413919
Ag 10.85173945623269 13.196506638241267 11.693246982947684
Ag 10.943111641107459 8.134325996906686 13.753164515295861
Ag 10.872308808987016 10.686075798293619 12.712304846403258
Ag 13.001086784453879 11.561032099870971 11.150283763523577
Ag 12.943755524219382 9.009236635892176 12.190179216739216
Ag 12.893344666977702 14.146217761024763 10.161872614044485
