35
Energy = -73.91391854 eV
Ag 15.055702644446129 11.508125160416064 8.275395224000809
Ag 13.605955018890658 9.343336538067751 7.0397446534917965
Ag 14.716539438840867 11.877574944198155 11.062304586974257
Ag 13.895121791927954 9.522455749152037 9.783604126445459
Ag 14.7980822982343 9.41034332168654 12.422406228760671
Ag 13.524110251427166 13.652036147656002 9.221636774109438
Ag 12.434260290794402 11.824324253410067 7.4034468471525
Ag 13.329481928697275 11.495643018199504 13.475240923206828
Ag 12.577559360220835 7.937100323480563 11.578468039502106
Ag 12.954583306441839 13.829845734563904 11.93861478589535
Ag 12.069242585781376 7.6352984511955935 8.805326950824789
Ag 12.677343780245987 8.854586060073956 14.213068083642211
Ag 11.829933151700468 15.694889331621537 10.194388712538384
Ag 10.81263957776055 13.723902077558874 8.550927404591002
Ag 11.595000716412514 13.534895890467299 14.343562053468057
Ag 11.098408192622744 6.5624371889238144 13.515189223367496
Ag 10.930661986159143 10.915003257275888 14.893045706788431
Ag 10.202345000660198 14.597352240293946 12.18690607498836
Ag 10.833362446369248 9.522967451357397 7.079784105177826
Ag 9.753996600347268 12.035171548647979 6.635870169606414
Ag 10.641314745455757 9.732116267384658 10.102706148971851
Ag 8.893764292692802 12.787093653842373 13.974359407629336
Ag 10.77211629933943 11.7265346684646 12.044985640866111
Ag 10.256221056115377 8.244967128717212 15.587745623738224
Ag 10.080825496495162 6.903097535658513 10.908287687223952
Ag 8.282262842036879 10.113193720239673 14.975552923430923
Ag 8.999349273714166 15.379285306108631 9.804923598419222
Ag 8.04077572087103 13.033561381899261 8.593952392185585
Ag 9.26767139285329 7.629106877929121 8.369018784604132
Ag 8.332034624005566 10.252092103925284 8.210627960419998
Ag 9.94042490105412 9.0050518349579 12.844173912869525
Ag 7.847779975684097 13.345413876544589 11.36078993556724
Ag 7.844981570131341 10.792605098175287 12.368427989871178
Ag 7.931430082714011 8.735476778671618 10.585857995199186
Ag 6.495211100066904 11.198298650778355 10.035910193698987
