19
Energy = -85.27498986 eV
As 16.214195965006617 10.996030650819977 11.677370874040166
As 15.781059790145118 11.066715274134927 9.435786978433661
As 14.261406415738216 10.650357648042224 13.133708102814724
As 13.443690791897138 10.589545110295031 8.862147910005337
As 12.2403340658989 12.403643525761659 10.072069380460576
As 13.151776771074141 8.518317437830632 12.41442413775981
As 12.746862086505972 12.510543903943882 12.478915698258785
As 13.285360052826949 8.341041132752467 9.96941368688147
As 10.87409758335347 15.474917312978583 12.841595336644131
As 11.051572456777512 11.325149818750026 13.863528878519796
As 10.9896227717922 8.031802110024 9.22858328375901
As 9.290482608046004 14.37961757338949 14.406039502031156
As 8.476115339218723 16.10652013224054 12.816183269952505
As 9.99172414428185 11.434880584255591 9.633304488309166
As 8.440866880723501 12.781515366231398 11.040581490293102
As 10.767135436393826 9.039905051536707 12.936854038751994
As 8.778474023992414 12.173831476068791 13.420917645968101
As 9.581703850549495 9.262048010344877 10.777682578736917
As 9.491038168942538 15.010251226067117 10.837532489313604
