14
Energy = -62.03639398 eV
As 9.100332425081522 6.352567656381115 5.271374328010802
As 6.773464717239248 6.975209350023249 4.573616193104214
As 9.597958172452596 8.82242626087293 5.204013276900006
As 7.158067147424192 9.399315648656382 5.14738090271354
As 8.529976384735992 6.7592981686698925 7.776192802629933
As 6.87149846291431 8.629514711323653 7.615319112660839
As 5.263145784727909 6.829355644581072 6.598721702895268
As 8.763415079749286 10.108749658697125 8.668007662058882
As 10.343603941050784 8.650035586785478 7.618437703938815
As 6.429097808940357 5.1965855717106235 7.903602181412983
As 8.64714072647641 6.377672403640941 10.35303842829743
As 5.867790183713838 8.656454984422515 10.010453062426766
As 8.260845906740432 8.816003172272273 10.785667321397192
As 6.138873369361435 6.172021292571634 10.21938543216307
