13
Energy = -58.53089818 eV
As 11.244547293675891 12.804607267245316 13.030412348658077
As 11.542927899012005 7.9842763736516185 12.389839601319004
As 10.192093468230187 9.581243167765564 10.980064239654144
As 10.17845105046009 13.953199542764072 11.155790191265671
As 11.151743544324933 9.365076284343262 14.429054930360499
As 12.157553407478602 15.42373872612516 10.768260721045497
As 13.191934519432273 11.765188586893279 11.950381779441388
As 14.047158087646412 13.810920480925033 10.838529532199482
As 12.765540240716918 14.060511817957257 8.728211057974546
As 9.666197496654632 10.911912483161776 13.098026730197967
As 9.626484328196108 7.552291281822278 13.840091613376229
As 10.782649400878599 12.602168741277096 9.13287232189833
As 12.124466549882891 10.746154648295999 9.981453253971663
