15
Energy = -66.34096321 eV
As 11.30169592616956 9.367300225695708 5.824600846869915
As 9.265793650968806 9.306938683093808 4.546424647918229
As 7.833999439775078 7.762517662786986 5.705994409857385
As 10.647544283871577 9.105282956855065 8.179119572674544
As 11.5689786128546 7.175422824978886 6.896757855336996
As 8.335033098675787 8.029609537070568 8.097799620782409
As 9.266578875947609 6.104931352209003 6.813596125240955
As 7.189193091290219 9.556334979857727 11.024168627721478
As 9.022768046497415 8.651246647653256 12.440427674167395
As 9.724247065434517 12.918799962641778 11.762953802174797
As 11.62911713661369 11.614272577608473 10.842493563571605
As 7.165779722357039 9.940355846918267 13.46074046878232
As 7.470416394291823 11.858424840401149 11.915774883770059
As 11.273331018537194 9.737238173148821 12.412797670507555
As 11.49594138984804 12.061741482213762 13.266767983757472
