19
Energy = -85.51465478 eV
As 12.370632603838203 13.559044684997845 6.979968713004389
As 13.393166562379793 11.033418915035282 9.369536117974246
As 13.778106049832349 13.422626931817069 9.080813232519874
As 10.661003885091091 11.821020247749113 7.242226913256468
As 13.556214617332051 10.981941902306701 11.861975627494498
As 11.959248039571081 9.095193455994247 11.713439502878055
As 10.999931251330175 10.393702600195352 9.399856832353613
As 10.324184750170101 13.965680916906875 8.381279166296506
As 11.899625434286358 14.355573163735944 10.385850538940925
As 12.191137532790735 13.005466877518508 12.476524980729465
As 9.962993718977183 6.6946136261105345 10.370784635893111
As 10.673034340152318 9.839236147639495 13.640430168759673
As 9.263507275258336 11.730764638496987 10.615315542002323
As 9.913396636410727 12.09767984761849 12.948009572745079
As 8.213037472494582 8.198222629021654 9.475204390006814
As 7.557089426813013 6.123902283408837 10.663478682679212
As 8.98108435055446 6.593402113111031 12.641871942627871
As 7.626301755153483 9.907631872916388 11.167325358202584
As 8.392590626804187 8.897163474659575 13.302394410874461
