17
Energy = -76.09020616 eV
As 7.636462997897318 12.065353134087632 13.697082851867577
As 8.707615197629318 13.840786638574933 10.876034062256087
As 8.056017990872293 11.442716410490634 11.413972494401749
As 9.816323003920466 12.774381545231789 14.473780826113833
As 10.091786882768346 14.60021529133283 12.793069478955667
As 10.857941919145052 10.618092339405218 13.885053062456432
As 10.093291540475942 10.025861404853307 11.576645039039933
As 13.21491452939486 11.337693052028735 13.675505597382925
As 13.101810883890622 12.39922539958068 11.45617619801686
As 11.761742656164172 10.931740615719693 9.985120738521566
As 10.718235255703007 13.9147308802046 9.475552078730583
As 12.157579876432315 14.707808812841396 11.312076011259082
As 14.162262178460521 9.257506592075359 12.806596648283255
As 13.286497619263805 9.032662307588517 10.455781125337994
As 15.49824008915019 12.25573303376086 10.700494361174057
As 16.295009410263287 10.25856738154767 11.920967373136508
As 15.408577543756358 10.06080268503166 9.566254151407424
