10
Energy = -44.20610227 eV
As 13.900662445568162 13.036586219562555 8.368790416112972
As 14.219727151287135 12.813093010524435 10.797461484172386
As 13.232970260445132 10.96273239814853 9.521612596408868
As 11.089066304718562 8.681158371635929 11.768329032382292
As 11.956034718446208 13.031533234081756 9.870049343477172
As 9.277280106695384 8.588780473471978 10.066343638322037
As 10.305567116125063 9.995663605454993 13.418236567507524
As 7.157184917207226 8.842776453896205 11.332731510239741
As 8.145267031326618 10.789827063893965 10.199556843541417
As 8.049092639405725 10.725366884736179 12.679794173451786
