16
Energy = -71.8222131 eV
As 11.43571959719502 7.49877754893768 13.716989534077726
As 13.059071862353097 7.472384738234174 11.781133673196038
As 13.269709202437808 9.169131907590113 13.59144377411226
As 9.645398674053402 8.553729034200693 12.32490455340025
As 11.109733499375096 8.025467154266885 10.357035573750847
As 12.361434198458314 11.350203842680823 12.930926304631933
As 10.007627305644395 10.73151837215042 13.433371436751823
As 13.055757408228597 11.471481015239817 10.501464200446895
As 8.310713247549177 12.308029931998986 12.619617419470005
As 11.775373435220136 9.993872006408894 8.97372279292497
As 11.73304499758532 13.549312219208797 10.59019339874912
As 9.402419942206198 12.678364631931817 10.581283750827696
As 9.47518054485298 10.85330755442494 8.867969494325235
As 11.28880510087831 14.330376276498997 8.279888244408681
As 9.78683654762433 12.659255875510098 7.198947042782928
As 8.830347892029836 14.365304250511508 8.758407057388412
