17
Energy = -74.86000139 eV
As 11.002502032030284 10.810255103528249 13.30302198526648
As 7.848868097602931 11.622698342782948 10.962066579002103
As 12.601631449686755 14.64848837911991 10.169658516296076
As 11.18720758202338 6.910012518813701 12.117567669174267
As 10.515228660527665 9.253864517441627 11.39620453888866
As 11.709596508302745 6.476867230404286 9.737178246746256
As 9.00652334562768 12.248223620862035 13.1653831735642
As 13.01565818684618 11.878927382418398 12.289491977414258
As 13.253038221641964 12.216220610512249 9.776383314590868
As 8.185236934007076 9.25913216595201 10.763694081378683
As 12.293454268011548 8.973681400334394 9.651567232187826
As 13.462701339437082 7.157335875788001 11.267602104218918
As 9.951183414347566 14.498409502791088 12.573152194670707
As 10.125000116509478 12.11915611240077 10.058932962956865
As 11.513410969361958 11.31451435972489 8.253701381399841
As 10.089489913473054 14.565551859058134 10.041969122874882
As 12.453612815795529 14.261005033967775 12.686768613935548
