18
Energy = -81.12754043 eV
As 9.37089823751075 11.843642052236033 7.858827226706806
As 9.217755353690944 9.368411579080297 7.515799213748288
As 8.871794293830185 10.39927744967772 9.771616662024094
As 8.394685959538998 15.269864366512655 12.565225943405796
As 11.871967125802799 11.617318366952192 7.664266712871582
As 9.029462810009642 15.248635571618669 14.955594097470351
As 11.712764223906879 9.130044150234824 7.956675926057701
As 10.917336993361921 13.187067542519358 10.9450956549336
As 8.529644407348473 13.122925005515198 13.785192633064145
As 10.66632046880235 15.989613973155457 13.249791744556694
As 12.190500176329833 14.065939544975512 12.88517292706855
As 12.572383986856766 11.547118621942131 10.060231626362905
As 11.158884770506965 9.532503352999303 10.382250703675613
As 10.722685539699098 12.131504971547612 13.175788923370801
As 14.635052518806143 7.698520036109239 10.938412747520406
As 12.888724068390651 6.846172119023162 12.440836558505628
As 14.262707481356518 8.761341764839047 13.121037320972729
As 15.262768383923591 6.5164363307344235 13.004520177357302
