14
Energy = -63.21974214 eV
As 13.287373182701305 11.280587228539092 14.482706731180471
As 11.255626231306325 12.43711327676645 13.634428407593722
As 9.679754832416368 10.803255926166415 12.58448971643696
As 9.019160068480227 12.54215740381674 10.91335122208783
As 14.561458989736874 10.374240100334037 12.57416279475732
As 14.630543200489594 12.814948586886768 12.976090898332425
As 12.529593361311957 13.677582024349903 11.902427937684857
As 7.093475431567092 11.195962232060579 10.195932076698012
As 10.925559234102078 9.122073223929911 11.269334847776754
As 12.795846670590867 12.322032137468302 9.854161989688672
As 13.151509365664664 9.987087186402555 10.590667355652245
As 7.894666220300202 9.422800392790016 8.998263705116647
As 10.447582297242242 12.115200091314394 8.957751185931418
As 10.340809105812008 9.650844689530649 8.888622096184658
