12
Energy = -53.37983155 eV
As 9.040890118494877 14.43150090164863 11.862545149752222
As 9.276813711767337 12.624132706775844 10.186317887498172
As 10.333094606032587 14.82533894891375 9.780833001600818
As 11.500921541920713 14.790206444128197 11.979538514996499
As 11.19379050188912 11.352729860648418 11.14384601290021
As 12.690281120680797 12.704468363236783 12.326286142964236
As 12.23565931697325 10.142675160828253 9.203463883730274
As 10.120570022138407 9.529967364399356 12.50302188874247
As 11.023055287898881 8.066851614136862 8.871393447708737
As 13.120157702491028 8.127635642838646 10.230945960390176
As 9.639857252751488 7.673943330062487 11.015092363385493
As 11.738296452868253 7.724267429081324 12.3735118135176
