11
Energy = -48.73978819 eV
As 8.276435113739687 9.575063958063572 11.931342951604103
As 9.946505440797955 11.196228451250954 12.774367229590121
As 9.94003458023821 8.853874240414804 13.598914554768575
As 9.776656718393772 11.547359443649498 8.958104546269672
As 9.197052153065789 8.905056172206898 9.689829579940078
As 11.66240049843229 7.671490074282906 12.342943763232817
As 10.758845869306864 14.135283597588478 9.19330745988275
As 11.402788700852026 11.053895871986745 10.70976246293844
As 12.806914927961111 13.10352925661055 9.933224855576052
As 11.548756741335588 8.596337890603305 10.130675473626873
As 11.818552194777544 12.53888519654919 7.722465932101799
