13
Energy = -58.53127677 eV
As 11.774831373876767 7.090120383989351 9.648996956725135
As 11.055355049462458 7.013946332436301 12.071609688246781
As 13.112526341246543 8.231752431320244 11.404973693705768
As 9.256179419275238 8.671120963721386 11.570833297932959
As 9.980142843259507 8.757491515752383 9.172233389954998
As 10.441413057171118 10.507378904061518 12.668115367698368
As 9.072833214570686 12.294508675533402 11.651515105762797
As 9.857122860598224 12.388161237933 9.219392868987196
As 11.562757168125442 10.615590137047429 9.05260595694073
As 12.498515594062464 10.632993234596142 11.324840471402084
As 10.628925030535871 14.214486732924044 12.169431641887531
As 11.464325391261426 14.236879786367258 9.820800580952332
As 9.539295366669116 15.5897923744327 10.468873689918793
