16
Energy = -71.04044853 eV
As 9.271478863339942 6.920564919888238 4.986575180283064
As 7.216034853242017 9.683929289819023 4.640241907042941
As 6.795196772994349 7.285690079142303 5.122012708186849
As 9.52315084370859 9.356281775827428 5.528323318253533
As 9.096066223119907 4.648146969289956 8.429303819028199
As 6.0511527862083385 10.204329294289108 6.863286579157833
As 10.303655473829068 6.5867753374892155 7.3089797890021835
As 6.447423949538929 7.951894772768608 7.726398349275662
As 8.866047615759268 8.501223760717677 7.819814559406506
As 6.995232557580956 11.402485838741747 8.862524366376226
As 9.468327790229063 4.7658760251391294 10.878014774730204
As 5.868601141024423 9.614692373208351 10.117466169121466
As 9.21828877788499 10.382744253449067 9.5075232794432
As 7.324459828748003 5.563078414477416 9.894074239925894
As 9.05666994109159 7.233522261555662 10.36171452011078
As 7.950657789104583 9.351209841600935 11.406191648059472
