19
Energy = -84.43813922 eV
As 12.335588112835914 10.465741732888999 11.046124198235272
As 10.592093575239849 9.118023417345979 6.081944535688897
As 11.142743649612926 12.184964133006291 12.878077247776817
As 11.942378235021112 8.949224870671769 12.86476229720173
As 12.278069657469814 6.86906753750896 11.40381649792444
As 9.887881702502 10.264046371873091 13.683016087939485
As 9.54835311510481 11.088705937792135 11.365948911097572
As 6.310860844832935 9.890933592963124 10.365310813705591
As 11.491795950726177 7.13030026185875 7.1959387917774364
As 7.593638566288603 12.671104387834195 8.71307086605881
As 7.244137653551704 12.113469763934916 11.086615672563067
As 9.201977043263168 7.08843589866069 6.1968162521048145
As 13.822019350128452 8.328361586747144 10.206612923916156
As 7.211145121430685 9.99194717022186 6.5717135976871255
As 8.423823078156277 8.815669169338905 9.582292395217879
As 9.21804328340019 10.578080578786679 7.980405747098815
As 11.472287610596528 8.22628082389662 9.479322654191133
As 5.703200111697155 11.128549700788575 8.253267133927693
As 7.231880373868604 7.750565224443263 7.627851988001593
