14
Energy = -63.64116129 eV
As 12.02898580390719 9.268077018499444 10.6631425495207
As 11.705675457706452 11.556961073625905 11.50039668197224
As 12.868594244263932 12.66019615978609 9.571364549394254
As 11.22535647191306 9.209377157675613 8.332766565538908
As 10.239366213229278 8.190124380412733 12.023194692419752
As 9.287504196500139 6.378259578495167 10.586765029191001
As 10.646920325529546 13.286597638930255 8.516615882996058
As 9.581657799585772 12.570709859777875 10.660861051248501
As 12.014451027341218 11.443900136694959 7.606503400962088
As 7.988019974283415 7.36548171776074 8.734736360110375
As 8.795604227539998 9.62778511317273 8.118731627203651
As 8.096362396097193 9.472540499191362 12.02509645304172
As 7.861459229283095 10.882238911566231 10.024071370559154
As 7.023571121398665 7.451279242990129 10.99928227442012
