19
Energy = -85.67979382 eV
As 14.289967365875572 14.341223960440127 13.847333357148578
As 14.560365409157711 12.468721589138983 15.34606377294882
As 12.323403262332908 15.553752517657005 14.82367313370595
As 12.742902287551326 13.459058039418426 12.136845533353952
As 10.809664879977085 15.265498330863528 12.836163627021953
As 14.216138100738949 11.74480413000807 10.891707085259439
As 13.322917669256867 9.963609906310046 12.32311676997269
As 12.299778830795914 11.653230515377748 15.585597192927853
As 9.587608191099498 13.522903003257008 13.9550454596237
As 11.49906353563076 11.610520126314594 13.245716193325142
As 12.7686609812383 11.683287341378715 8.884098598422538
As 11.008716253363108 13.751033298015976 16.00810474825265
As 10.50495906818337 12.043932511895044 9.778890394624629
As 11.870667375707736 8.566116991763868 10.854975189814022
As 12.823297943238094 9.246929747822522 8.681162101017957
As 9.850609966931215 9.935303633311518 10.942108495983724
As 9.470288645897945 11.137916766313012 7.674785162762221
As 10.779304058965032 9.058027049987643 7.278723190796487
As 8.859298564085185 8.98950842020412 8.83814577970284
