15
Energy = -64.24365233 eV
As 11.719609418503559 11.114421981138431 7.292821442532165
As 10.032768375116639 10.01867067138298 6.614672258850785
As 13.447674697983114 10.042367732646573 12.020679021510555
As 8.814668587930306 13.99392362152035 10.809436574210295
As 10.335531201457652 8.073029966913907 13.074779021682923
As 13.631437934895576 11.35983841946045 14.111874047284045
As 10.491133085678856 6.1807392069262 14.011657155452703
As 12.400894504373744 13.462737832419368 13.682771524633962
As 12.976271624221267 13.995203654848353 11.340304371625061
As 9.19784286992243 14.627677099906439 13.144310557468824
As 14.137504637798056 11.944581909747553 10.581370151077534
As 15.526086087446714 11.292176375984289 12.524504866421012
As 11.051691187035697 13.32970564128399 9.92970473947865
As 10.17877629365133 12.419488795765202 13.572041531768667
As 9.78905898619574 11.66664252161357 11.20338882248827
