12
Energy = -52.20608054 eV
As 12.737263407560212 12.152549059259297 10.629488256923974
As 11.775828945412819 8.972872119139153 8.562940835268202
As 11.370232384617545 12.444149192184394 14.554047086482834
As 11.646960080130492 10.208565653597079 13.675459985107056
As 9.91804307600538 9.810918627777783 11.894694891777956
As 12.804203340159624 11.200132274457115 8.301553448896067
As 10.259491670634453 11.888264103160397 10.666469034532613
As 10.193845239759927 13.750817262199273 13.004519318614186
As 9.230993074505877 15.69830600823391 12.995425615973819
As 13.45252757985317 10.172997728919421 11.86983743672852
As 11.839048166409647 8.510357643629177 10.997152140119573
As 10.307681493097757 10.941101538749662 8.304341724018242
