13
Energy = -57.11771202 eV
As 10.14182723137558 9.184590723810597 10.787304690985657
As 8.328633935186648 10.721801213985207 11.580429362373362
As 9.567655605366143 6.920255030867879 11.545688486800051
As 9.330475643533727 11.271845226495223 6.264673203024975
As 9.3694742378637 8.511117465036895 8.518891354887174
As 10.554120386751233 12.138474935422002 8.261908876928972
As 11.424513606903535 6.683124550180739 9.840650002804944
As 8.292679083165172 11.970230739944947 9.385125134969307
As 7.618623642787244 7.100535178736073 10.004366363402967
As 12.543196245543557 8.602042692848725 10.643505867165656
As 11.121170545839789 9.97465606520461 7.231084756187522
As 6.667672086299913 9.261606635989661 10.50438224488492
As 7.525067581758931 10.144829041477431 7.9170991555846175
