14
Energy = -63.27999729 eV
As 12.127348141883134 10.477748614919017 15.525462242865697
As 12.209395808118828 11.978509781552109 11.994319403433348
As 12.629791199884105 10.550437108557318 9.965485002564039
As 10.15582038389158 9.637338604453 14.261373481857419
As 12.354178081110375 8.500571664753323 14.065417569662616
As 11.750383257065614 12.116828363007107 8.250882614359853
As 13.566101241442 10.587979954737909 13.514784925135018
As 10.443716227450562 10.504764196312971 6.919736066700973
As 9.726521837035618 13.33758799358719 8.99994624319885
As 9.94054434861428 10.964072435584633 12.200731282917296
As 10.669330794277366 9.143399636578238 10.636582787832307
As 8.667627019786577 12.350024383409554 6.953994719022741
As 9.067881235012559 9.485247297642927 8.731281172885033
As 7.953949799108453 11.628079339586211 9.242591862246169
