14
Energy = -61.81482597 eV
As 9.709703065226226 10.733685609784505 5.929190950067891
As 7.740151087705915 11.679974831128673 7.180050555131642
As 10.822786834333733 12.937082551739708 6.364497611235847
As 8.501489435778973 8.29047400103959 8.148537858025696
As 11.319632281880796 11.012972035300082 7.813275957627673
As 10.177548835486116 5.689826067480388 9.797160928463436
As 6.596005671352078 9.840782852328132 8.483965757691356
As 7.6269912115351906 6.390038182079791 9.530294472860131
As 9.611058321491546 12.677232206164208 8.541662131449685
As 11.367284193027277 7.68488943230045 10.44929037624482
As 8.473260439092225 9.74115375521919 10.137808327587463
As 8.834127059356566 5.780570678473629 11.889199819584247
As 7.411063200841595 7.9365587003758185 11.548319042396466
As 10.050831900546859 7.846692634240357 12.42867974928874
