12
Energy = -54.02993895 eV
As 9.584635027044667 6.627725679938424 11.02598324245921
As 11.456562249437571 8.22187168145615 10.735668778711691
As 9.463273462917812 8.869938080860559 12.075512851223893
As 8.196339877134069 6.7091093718091495 8.972256954904287
As 11.419799072117236 8.965727657313025 8.37906229089523
As 9.618716935846361 7.746069318537196 7.1934114932501805
As 6.729932181403945 8.732469793526617 9.13482216492334
As 10.908315240978894 11.381920819203128 8.329135288186901
As 7.780600662951196 10.190829262578983 10.836678756058156
As 7.739195540107181 9.380421309533242 6.936867289245961
As 8.703684300504612 11.645480198043412 7.232453694097011
As 8.91809207284198 12.047583450486028 9.66729381932966
