10
Energy = -41.02752738 eV
As 11.775924832897216 9.338203311596333 7.028006629042528
As 8.38936896819926 7.636916383706695 6.288913437402566
As 8.758817855782398 10.642435255847747 9.710711410312703
As 11.139258588071945 11.144484524775098 7.980283152397874
As 8.673465724437847 6.393272850177002 11.972364390786394
As 7.733626961669784 5.889038320716217 7.886330860406091
As 7.033274635667893 11.087616579679576 8.51815640799714
As 7.194150032582356 7.712777858644432 11.205245509820788
As 6.660344445681199 5.996187063001785 5.669700681612788
As 6.183286118216553 7.721751517071926 7.367649938383513
