13
Energy = -56.99010447 eV
As 11.053824738972665 7.3107209269005295 7.138689486653372
As 9.882034501145135 5.3381824658322365 6.603550270782751
As 8.32650282734971 5.762167080648269 8.74946960225266
As 8.132596533847998 8.002743285574391 5.219021480961332
As 9.358854855555553 9.147914028671703 7.007929917101633
As 9.362758426815791 7.9346886907685255 9.191493567011726
As 6.13888379433507 9.504998996170022 5.483098303323032
As 7.10426496305236 8.485176292349362 10.448575630118185
As 6.2675593661493085 9.565926923683026 8.175354218563104
As 7.425476514911124 5.96648454783397 6.370055785030497
As 6.162729159028075 6.373356614629756 10.134838658056307
As 4.458302558685364 7.847118406179811 5.445126907855991
As 5.4405824277772385 7.3936303700034705 7.766301469112124
