11
Energy = -48.69996316 eV
As 12.772686479096727 13.138817366252383 9.732681372343558
As 11.16691665756049 15.00699860939941 9.836642740777004
As 11.406667465884565 11.161508076865449 9.158663418108164
As 11.934996913417075 13.968418346119352 11.926939338527388
As 12.652217690447424 9.774625783455962 10.82903979258331
As 9.543799114872819 13.748919568408894 11.264882195923166
As 11.294087244873026 7.667340785247416 10.800076747796279
As 11.444447032115168 10.082733999017952 13.007590989878254
As 9.275424141902622 11.572781301972919 10.245231258121901
As 11.557409503703248 7.5937795956488054 13.28664733272679
As 9.54936360085552 8.624900308459198 12.303010681035408
