16
Energy = -70.10496411 eV
As 9.33428135684671 13.46074929876986 9.032598734956842
As 11.22826483374776 13.083027135141535 10.339513965516547
As 9.831307381163281 11.263781098617207 11.994215882680567
As 7.9720847958848005 12.269477744056452 10.71380351786849
As 9.6932361008558 10.793281134688698 7.752698919076043
As 6.5901964450796555 10.13038040999643 10.312126084564396
As 7.865496563118483 9.199273049307696 12.184568574423162
As 10.88071649641666 10.422654930405646 9.902118852371292
As 7.4811578427282015 9.71579883206673 8.007710814840566
As 10.274212745537781 8.5863501832837 6.506224526673513
As 12.689127884436672 8.56540025032424 10.061399336980811
As 11.551698475009758 7.20510645423867 8.192702486624725
As 11.661218197767598 7.67754294548697 12.01203077653852
As 8.215034231578608 7.405553289425049 7.34170395673802
As 9.624602814175994 8.280999113943837 10.803748511465642
As 9.487432771871969 6.342466355300311 9.248962631638902
