16
Energy = -73.33761183 eV
As 11.708149000132869 12.68349637152986 11.058563228628637
As 9.314419090022934 12.54700866733082 10.282519631188162
As 9.591623359966498 11.898562691609083 7.95601637093131
As 11.518370349808315 11.95307494922343 13.371423804658027
As 7.1103489788095215 11.705062098093842 7.736260594822033
As 14.000044117434825 12.127021878374123 13.6005606719979
As 14.806193277352873 10.925314338794884 11.5759216042936
As 12.870957566998868 10.782464732930983 10.022851937761251
As 11.690762742623548 9.4463058901687 13.368499061673145
As 9.809094204126543 9.394825118098746 7.919406891763169
As 6.501071815903597 10.349508974548637 9.730781003915281
As 11.982341846783994 8.74380111737925 11.056833583782803
As 8.437993371796328 10.481606115054309 11.28095339299196
As 7.328233961348778 9.194865257137499 7.684908964440183
As 14.17526218768208 9.611754784917181 13.592170437025848
As 9.607666439872988 8.607859325473813 10.21486113079155
