18
Energy = -81.05997957 eV
As 8.562532438355667 12.990067905872928 9.460167013936488
As 8.640476202969325 11.714866531835883 11.579350532508537
As 10.654915998364043 12.620637739053349 8.18925343322369
As 10.391908357627846 14.705726508369693 9.653393048447745
As 9.90584276134896 13.44444518803436 12.82240719381266
As 10.628221739267412 10.306148471348658 11.150918832934016
As 12.227770612054558 11.554434419028007 9.739911157213085
As 10.528847015776417 11.813042218216122 14.615506389187194
As 11.856431972755095 13.783768498907614 11.402378599222134
As 12.222779910462853 9.603109272955198 7.865046674294775
As 12.536379656623142 12.974953762155462 15.447003439042122
As 14.11531340610444 13.05112182173414 13.545521917267354
As 10.087200387908066 8.04461675603052 10.350948857956146
As 13.912556010473708 10.645005060414205 13.038462996216312
As 11.581316738880144 9.900090704406322 13.43112019440852
As 10.176643302891272 8.207486435400869 7.871296150926017
As 14.41284557935674 11.343867148634944 15.36147269033317
As 12.18566396920616 7.4737618192767545 9.079524609916264
