11
Energy = -47.43831282 eV
As 13.115493203756644 10.813195285603701 8.649153578900528
As 8.853219588708471 8.846567623498794 13.10423741388485
As 9.64840931099732 11.121630100995592 13.123317772053607
As 9.101257488456751 11.31444726864036 8.077340592731934
As 7.744569275616896 10.16845161636751 9.781153306069305
As 11.047745303462294 10.296909384640093 11.221758898810274
As 8.505123800026809 12.151487389441156 11.017499487904399
As 10.684233556680116 12.286676080761964 9.69389523424558
As 13.35048467980539 9.31442025461821 10.593332262726777
As 9.404193449711123 8.50486080432299 10.7267381166118
As 14.700392361920711 11.313826645653785 10.262095932414653
