13
Energy = -58.02952606 eV
As 12.651409311152475 14.14369862312935 8.949678745030257
As 12.793554626139324 11.691879175697428 9.374353080049538
As 10.48956797601848 11.624850775702166 8.468136321461236
As 10.06667800003891 14.009107251477577 8.93140697770417
As 12.697626392112438 13.271710649391581 11.283473759826059
As 12.32191794103816 7.534711507991946 11.819056380776994
As 10.34296932182819 14.032018796359031 11.381632698885324
As 9.163409292903957 10.442856815189968 10.22101094822218
As 13.315166405910738 6.704164720743793 13.907783032657631
As 13.058531078107276 9.120809954099308 13.544203397879963
As 9.072447634780671 12.020501801230678 12.135067761586617
As 7.383006462274084 12.085908914873695 10.392631926576827
As 11.077391943692616 7.719705887527672 13.927864723649616
