11
Energy = -48.84924845 eV
As 14.203383270172171 11.565423081553172 10.687698204094277
As 12.758331511122543 9.62284229966826 11.241627964968337
As 11.364749401066987 9.7474228271745 9.22050658391281
As 13.17812665143931 12.905235485778231 12.247123852557314
As 11.593827030084464 11.11261406803211 12.9231644302296
As 10.418475646069114 12.010714838576876 9.370136981833069
As 9.655714064983291 12.013971148262987 11.707267001554893
As 9.648613753386245 8.338450507246971 10.31706634612701
As 8.241127434970656 11.435855457669824 8.421532732998713
As 8.53072590268081 9.818659799736334 11.939526413150851
As 7.522505269116962 9.47141113703853 9.688327656121892
