11
Energy = -48.06214043 eV
As 8.156080278797825 8.42769237756638 9.919752830688449
As 8.881838586970044 10.847634669308711 10.482489378434211
As 8.427214792708835 5.787305637362041 9.694292013183997
As 10.145062368143602 10.751639580670926 7.140627914845214
As 9.953269507200693 6.214644660012336 7.83802011909418
As 7.9646944749311945 11.261413055782546 8.283594484966242
As 7.550949866725878 6.1781328858966065 7.493674210180157
As 11.141223254209468 10.4485997188798 9.450769448309995
As 11.008545048737433 8.573105072280157 7.855429733495795
As 5.706761798281816 8.541919013295876 9.911173809446241
As 6.9329625469990335 8.836515828944757 7.7987785810618435
