11
Energy = -48.8386764 eV
As 13.205969135299684 14.561680092602867 12.750617901142125
As 13.864071429643912 12.293850394915031 12.289319236801093
As 11.874232126008557 14.427484112622496 14.749048105005455
As 12.72249126171568 12.54445920128577 16.078101792274214
As 14.034976394646192 11.112528738543881 14.435105763531018
As 12.00580960298653 10.861130176479667 13.009302200680471
As 10.68667481812822 12.279882281263257 14.668986663583281
As 12.01834179670698 10.242941418744593 8.27775254812816
As 10.364815442101026 11.867156523774268 9.090492049490292
As 10.378712397506272 11.208726562181505 6.721510366856133
As 9.650071635513159 9.607767327372805 8.436890115426653
