10
Energy = -44.04645562 eV
As 11.31524424457987 8.258493210959966 8.592262531406888
As 6.189748393245599 5.3390023657369285 7.310124338941899
As 9.70761748367968 7.723798356204757 6.820307119384706
As 7.717096934777724 7.695543197941132 10.323891151506725
As 7.544891427732886 7.322615669299832 8.026561812653958
As 4.2470789244100695 6.893953460917443 7.136733267767569
As 9.526637306651569 9.280195797345106 10.0695232442891
As 9.839956487397242 10.039655232397118 7.714567057334056
As 5.679753953148176 6.549769641643039 5.179128532046909
As 5.950030191517422 8.615028414694534 6.544956291808302
