10
Energy = -43.62334153 eV
As 4.8550935573382255 7.56920192539169 8.439146108111292
As 7.113827877047318 6.086420301118684 8.752824336053802
As 6.314642123033926 9.368671002829583 5.869495677875996
As 4.875734392878462 7.346210658526935 6.0296636369603975
As 9.772925497862932 5.726597301650808 8.598784962883615
As 7.029337393949003 5.677514475988284 6.278590850415313
As 8.488124968114722 7.731549328534411 5.878209670180251
As 6.288446644069976 9.596010716760354 8.278375568499452
As 9.698470104496286 5.376999433091033 6.339424119594284
As 8.593551597569107 8.126445006145302 8.35409247995469
