19
Energy = -83.50336664 eV
As 8.076171628141577 7.399963788831963 7.103026929406954
As 8.503465429161277 11.4500143948114 10.577502171255126
As 11.9335570072614 11.463942980485912 11.692326604303581
As 8.207078245337275 9.244511471654288 8.88284595330627
As 7.571513602273251 9.190540501765978 5.460488110704096
As 8.317032898531698 11.023764709681075 7.061157206417213
As 7.194529874146312 8.486689496632447 12.729401963137413
As 10.905833895604081 11.855568441920127 9.512885229131856
As 9.648330176124842 11.076465262714066 12.728850535493821
As 13.27847153285001 7.487159644496003 10.318912679643313
As 10.863964760845962 7.497966586822379 10.73523164753868
As 7.279918095957816 7.327642464059407 10.66854470497635
As 5.829719922663808 9.027083202888765 9.536364481734095
As 10.520208976112807 10.451668082369933 6.120403215335637
As 12.190131883350306 10.397903897799765 8.009138118675294
As 11.759083612029308 7.991217361937721 8.482397843851414
As 9.833299287978555 8.092472716897053 5.554646474380001
As 11.27815227740917 9.21408146768431 12.486863959306218
As 6.300516455606883 10.404730128460272 11.575372733037728
