13
Energy = -57.95459926 eV
As 8.822994369559504 9.491957459820249 13.710425872709449
As 9.98604842822622 9.193697060969537 15.638489300095799
As 10.115308519348778 11.423292966039632 14.557036243388593
As 10.4606045878386 9.860343950517239 7.938774427717156
As 11.225512476035098 10.261927789623407 11.18398804649809
As 10.034804525279261 12.350221796549443 10.678692188496823
As 10.308676005938025 12.28043079159624 8.192362327266238
As 13.380503138011575 10.643646949247294 10.071827661558073
As 12.238421284354946 10.859775467007225 13.35462100717983
As 12.505689844855288 11.17954469234826 7.7965776594625975
As 11.727948551326168 14.08730215504747 11.077612460402287
As 13.059179371275288 13.170072723238022 12.94745673638433
As 13.913863724137062 12.995765585383298 10.632625786100357
