15
Energy = -67.53141708 eV
As 15.130757192876352 9.560588727915961 12.17635727636767
As 14.529609724442052 11.899145029378126 12.742461182426931
As 12.381408761695706 10.854532867903263 13.3366720121446
As 14.2032324337979 12.3813422551359 10.29346024203371
As 12.948706405261818 10.360191044886667 9.5460791564702
As 12.738876317933803 9.067344250237447 11.658394643800834
As 11.75734833766423 12.486777970886717 9.936148220799215
As 9.582874308717107 9.290902271208612 8.987634544128298
As 10.961684401417722 12.550937691036575 12.281391017444273
As 9.256311803362665 9.113246382415248 11.399237511726108
As 8.717437523950121 11.577901627286511 8.353747723179119
As 8.776962056950861 11.335198471942228 12.315104540416929
As 7.345372699772053 8.650059621847136 9.931009247379668
As 7.836829689556605 12.560894673802817 10.414782866203966
As 6.449814771949831 10.92816354346593 9.244746244827297
