14
Energy = -62.80246875 eV
As 10.745979881363837 6.736263550292664 6.64782008979349
As 8.786545426249107 8.081899411054108 7.445368465367815
As 10.77486913643813 5.046582017059316 8.442008278545567
As 8.013786157592921 11.405503585079789 6.661859247374334
As 11.735130007789254 7.326932706106118 8.848085526159153
As 7.313900243729568 9.148913374322001 5.749054870319806
As 8.112512368288401 11.320231950490989 9.137825171552482
As 7.311166033064634 6.2197016501504 7.968047844558065
As 9.840895171697358 7.656978072308397 10.547711875217207
As 8.730211437282813 5.539878144235716 9.8767992038167
As 5.3509469080575744 9.22160133746552 7.323749284476749
As 6.0228127168542835 7.895161331045803 9.320966575398364
As 7.826172396509732 9.221131787402527 10.451155441283284
As 5.9200391036076345 11.56791228206217 8.070578084683863
