14
Energy = -63.36059403 eV
As 9.499669896581311 9.137763931383374 14.115595054750598
As 10.902079354116859 10.046492077257993 12.213132005910849
As 7.398047873928514 10.11042235469285 13.17780520840846
As 8.12206100921864 7.8856141282066075 12.456204090667363
As 14.24779695082803 11.417168137894727 12.064783735956752
As 10.661604561259894 12.455382361322927 12.708071846524488
As 13.014790367651065 12.979549868076969 13.49569891762658
As 16.01196939851826 13.02243497756412 11.251863401909851
As 8.67521518415987 9.875268947681349 11.041711311504065
As 12.552636165960909 14.79344661140911 11.879684438130912
As 13.04909428059059 11.605191303864993 9.89665279916552
As 11.303606082592117 13.258733878676917 10.390658560682768
As 14.721221984823485 15.053150272201874 10.704171250143421
As 14.800829321044006 13.216399325108542 9.05848019765958
