17
Energy = -76.78017014 eV
As 18.8833970155855 12.250858173726064 13.952822466173252
As 16.809556735047778 10.922196703247858 13.933209620683831
As 16.75253941612039 13.27779001827531 14.628974668696246
As 11.783203079758202 11.044067384386432 15.408032665296238
As 17.140120798877025 12.699181355247962 12.275179779791833
As 11.222435559699866 13.515122548575434 15.344098156482126
As 9.549031637502615 11.815260409068514 14.79585662400958
As 13.095765109952012 11.21655050124091 13.259070160363626
As 12.892415098115091 13.69526431756051 13.450060444455483
As 11.433605361851358 10.633471837601608 11.533564458869266
As 9.276067439003722 11.587462993732862 12.283874873006374
As 12.430319267510722 12.380137790800928 10.106333315865827
As 11.78647812622109 14.416599499361382 11.320429207915604
As 9.421202848359583 13.997386028598322 11.81630400970459
As 8.887849783886463 11.298382790000069 9.30739322710441
As 10.691381812082867 12.592181858525903 8.306714353378958
As 8.781713370051325 13.744651523765025 9.39439314773355
