14
Energy = -63.64259717 eV
As 13.106232249313955 10.65716951526818 9.44667455756215
As 11.394896366346812 12.327712020538286 8.674995003170736
As 11.144922836559797 12.36991166337939 12.895328407800179
As 12.802699255868708 9.355303835329895 7.333824103470643
As 9.010393792044464 12.561493415530432 11.661696996653186
As 9.571006604957944 11.629175237179698 14.773111392542672
As 11.091806315890137 11.033240763481796 6.558110137563212
As 7.878848046351367 10.89091751925148 13.080359810144518
As 9.20141790122486 11.529274519424403 9.387705930355265
As 10.378880076218636 8.802425547218293 7.4064051912802595
As 11.775847489516828 9.974376499590393 12.960403571680216
As 9.594126989042126 9.287955600305239 13.882479792049944
As 9.642531173991772 9.143838101105796 9.753296435975003
As 11.903932765579494 8.934747625303455 10.68315053265862
