19
Energy = -85.58926756 eV
As 15.348293976275418 11.703872645032302 12.506344046630785
As 15.600588307520981 12.778571860169315 10.204796205921783
As 13.464695892083656 12.872570632294522 13.629251632153897
As 11.727736698439886 11.147954054803515 13.926839524334198
As 13.373679488672341 13.652112396168596 9.722152822400936
As 14.316927674159738 9.862761626439607 11.222136624269151
As 12.66744333674015 14.500901278945442 11.963053729086779
As 12.235138703286772 9.22208381199699 12.397663919845364
As 13.77728635090387 11.280089569552509 9.223761367805752
As 10.248671677788652 14.359361974516487 11.955154960956172
As 11.01370850132144 9.130183417948867 10.239216532925667
As 9.68487620231784 12.481189126206113 13.410980826445158
As 9.114548806141595 7.807455504584309 11.009126294459605
As 9.975574914430414 11.299070742031232 9.707081017770205
As 8.314833387555858 11.70112239333297 11.458829551751723
As 7.442673723898375 9.44965102712244 11.894658672139773
As 8.058439379354171 7.904640798563271 8.746690492978535
As 8.278752511997693 10.312164545918673 8.182564939611975
As 6.387717086460598 9.565829213721978 9.63128345786199
