14
Energy = -62.16079245 eV
As 7.296958827338815 7.9346874513236205 5.242409116056913
As 5.73067670903776 8.771433054647119 8.348257190648011
As 5.31286239910468 7.096933843794913 6.578074895285098
As 7.400063636893377 5.814687266239418 6.518638987363926
As 12.332827095014993 10.972313318630857 9.350616161601193
As 7.061435159517275 5.189711211953217 10.34763325106229
As 8.758656703100579 5.598551775525991 8.5770374002666
As 7.537688186615233 9.780737465077072 6.88153884563617
As 6.245978875432768 7.566479058889546 10.46176549011243
As 10.368997316089306 11.894844706002434 8.114651322044988
As 8.65368679050856 7.055394277463099 10.62720617991981
As 9.99199674482166 9.628961927321312 7.08183772117429
As 10.15225701511475 11.063147461517621 10.45938187582978
As 10.843564674358136 8.940294686402408 9.350543478911856
