12
Energy = -52.36507404 eV
As 9.780381954565094 7.5255677439224975 6.986624419899185
As 9.309923980274336 9.566737561730779 5.638665271820084
As 9.763612517814057 9.714074468535422 9.05722557108381
As 8.126627465231712 6.408612986538857 5.284813697645125
As 9.015230074190967 7.037829983473132 11.66087929823488
As 7.859126305824861 5.749207476583763 9.872812128058968
As 8.425769837024554 9.390637536625217 10.988631373381002
As 8.149438121043744 10.73512734870423 7.525575940589206
As 7.081572241977078 8.680418861992454 4.959235828569415
As 6.642458945483697 7.465316032999813 11.110504449140757
As 7.478963980960512 6.967613561421744 7.663019130860756
As 6.256403718078628 9.10180614688025 7.3609565185890276
