14
Energy = -63.18150405 eV
As 12.116285284329633 13.808470504155263 15.499659105609943
As 9.66379725544335 13.816282025363925 15.343795473637194
As 10.755538898631123 13.421396520456025 17.509861090867066
As 12.02042011150741 14.136500351100084 10.982820506423026
As 14.272147067805516 13.199813368008854 11.222509432918617
As 10.860638239374168 11.707643447066808 15.74790303531016
As 14.249507043963044 10.731275396359015 11.366278248840702
As 13.509413479955011 13.833819084855577 8.970595394201561
As 10.485317970261727 12.44725773440657 9.924246677572253
As 12.140672301362804 11.84891352281214 8.206702867141383
As 10.198501461561047 10.336305119039473 11.179542121584113
As 12.208225725690363 9.726904967328199 12.441105210704288
As 13.533408282104892 10.052766668464601 9.113327242561645
As 11.72072478686907 8.666973483065078 10.204074150166328
