17
Energy = -76.35308402 eV
As 13.25521186215138 10.896879066673758 12.19869623155962
As 11.840069788931578 12.111524517763467 8.412774465614188
As 11.854119763095959 12.90721222248666 12.537313794896686
As 12.148610451969802 7.161404856615268 12.262128173913128
As 11.883481285539606 11.122054749551447 14.241392628418643
As 12.432974711918781 9.08058001986091 10.6823517231409
As 11.20422321241122 12.377292925225404 6.033594441342702
As 10.819502074770575 10.216517890351586 7.183853304850062
As 10.02723994364016 13.52541401686043 9.3611187948782
As 10.03145461413624 9.020567059925522 10.11091492914851
As 9.782029411891957 6.889506852776712 11.423053730738847
As 9.516821464736438 12.76740825263003 11.694143272285602
As 10.218430860437437 7.591730914945883 13.743901283944885
As 9.653550151042499 9.99144264985682 13.932273429160675
As 8.745334401456748 10.422912395969904 11.68962450073029
As 8.8654511823967 11.546418633364365 6.402744269187178
As 8.004590584583465 12.654228740252215 8.373216791299978
