11
Energy = -48.78828584 eV
As 12.776043948077712 10.277727900018458 9.782000894323003
As 12.778248762538666 8.783190795473713 11.71585970578376
As 12.003317018385024 11.193434226424573 11.922403275903273
As 11.034906699569452 9.318706353534058 8.324736194008548
As 10.37515948361354 8.008021243798318 11.968188601921103
As 10.061291098852273 11.497961323351872 7.6151685932035695
As 9.760437524373646 10.340806643065886 12.681770665029111
As 9.259287260545966 8.365781841577778 9.735059919041127
As 8.067821406283025 10.241058474435452 10.839410248039753
As 7.75179526682877 10.782197051872714 7.357216808939228
As 8.356035247721609 12.147991548232781 9.285788765122193
