18
Energy = -79.47379184 eV
As 12.048261404299044 11.743859920998347 9.655435611335491
As 11.294816189092826 10.901887568963383 7.311997636761983
As 11.700021504899873 9.497022130919751 10.652752731162135
As 10.180444995516911 9.066004873696402 8.567126422088265
As 11.15558968039589 6.677802324405194 8.292882463759776
As 9.854684822854095 12.490134383596825 10.619463752749878
As 8.565464656887235 11.111047249703814 9.093143139040833
As 8.973866278126518 5.649298003866542 8.740140493076588
As 10.143481457369179 6.62302638866116 6.0476248741995215
As 5.67347653573851 6.482091817577411 10.479883300531316
As 9.038719657903341 11.702445114433617 6.807599569391387
As 7.6702326529829925 6.710672084124218 6.8943835675963605
As 10.058541925996538 10.584575140497149 12.224057923705342
As 7.7898347052749095 9.54428543468975 12.126271996241494
As 8.85645592665019 8.758263108234667 6.1774442583695
As 6.50900215032448 10.628406053481664 10.409598507914488
As 7.921443688242878 7.2887371401100705 10.519832999918693
As 6.2559526417188085 8.26349008288838 9.015595549195
