10
Energy = -43.97120693 eV
As 10.264688940542142 7.128783947596533 8.636839229021641
As 8.718932002757429 5.2087448902203635 8.234783441946867
As 8.440900835707263 10.146635958300045 6.762437834002856
As 8.947913772230521 7.556894007033602 6.365676678714393
As 8.705035160984645 9.194788719564706 9.247056957534157
As 8.548744771794347 6.394155279904856 10.2983706365325
As 6.615034449534126 8.01189067057573 9.35078600815286
As 6.390689167654749 9.076890217312563 5.826774204227468
As 6.812185564491447 6.704727622847695 7.063317508979594
As 6.218522599934633 10.254542060437686 7.887286985357342
