17
Energy = -76.07987376 eV
As 11.285018083521292 9.126798988737184 15.535220974232425
As 11.747606625185407 7.589027108645606 13.578057845979066
As 13.443953383745521 9.212512424839993 14.331573827141423
As 9.784125433140916 10.547767706756003 14.109529151093083
As 9.990293546640899 8.809889404495614 12.298697865588247
As 11.455684342432267 12.3422903521475 14.190651414801954
As 13.619758105898116 11.49335350654214 13.302557748242801
As 10.771240715303799 13.992134346281583 12.479502284430568
As 11.312499806950948 12.796190865926292 10.376005602791063
As 13.43754873782199 11.492027797458817 10.839450366765167
As 11.342512704481454 9.602259491056923 10.431744932540045
As 9.616410639789086 11.157967011162143 9.809972575471319
As 12.913286580436328 15.213159273324266 12.498197969680831
As 14.543800052076683 13.796884193088028 11.252399585684907
As 11.562316137571973 14.773558360710593 8.843086206451115
As 12.424181663559816 16.505620623321434 10.37882680790523
As 14.017653989563355 15.02487495816085 9.123923936325582
