11
Energy = -46.15203923 eV
As 7.568628619632845 7.5197342532697 7.538275202291275
As 8.170760547938627 11.096843585464043 10.287816549440722
As 9.819008603797284 7.212362249114457 6.339223682740801
As 8.545890086754236 7.71883473145398 10.024512488920776
As 9.254744897804596 9.596196275371721 7.425293106752245
As 10.059805314863217 9.617760470956359 11.243165620866955
As 9.272467961803681 5.771621046558385 8.33285974218853
As 6.852782117168164 10.669756342329263 8.111505262096294
As 10.827780880882322 7.796367491493416 8.629126916964468
As 6.337578958261428 9.303743987485031 9.999270082121981
As 10.575608011093479 10.981835306648483 9.354007345616207
