13
Energy = -55.75313001 eV
As 11.427507250442392 8.36990856826061 8.817799965887893
As 8.620235594678848 9.466649188309802 10.315402306146076
As 13.2228174683486 9.948634091649918 8.172163044604833
As 9.780954265610465 8.482384192764304 12.399388435714561
As 11.797830579253057 7.688787460945886 11.159246031222844
As 6.398159754609065 10.07090189989981 10.893212878566054
As 7.957965513451374 11.87036410698019 10.530370414246148
As 11.784165281841894 9.821458661705883 12.362978873908407
As 8.785271240166823 12.9144495093233 12.688950943320732
As 12.003032860602378 12.077870746253547 8.06191530505976
As 13.770973067886453 11.82482798404054 9.753577683929658
As 10.875032434804023 13.578230230398459 12.091896278594998
As 11.410513981762696 11.6757626475511 10.531312212829564
