16
Energy = -70.68183645 eV
As 8.663588540591714 9.874042736657229 6.4108956941127895
As 7.092768915915501 7.971943433289147 6.742353185254967
As 13.534042535651018 11.194288965583727 10.29363731005195
As 5.082557257904101 8.908264876846665 7.918154475007614
As 10.058690518711876 8.89049900102909 8.363372419374771
As 7.990613313793704 11.686706078935305 7.946243295952527
As 5.930651313718964 10.900724853892058 9.0350618792918
As 12.201796938801486 7.408014312723338 9.94894499702627
As 6.349891718725382 8.736443280392345 10.138954295765956
As 11.341691251223747 12.246358282325243 9.755598502734316
As 9.367747037832544 10.699646962425476 9.91650668917285
As 8.114749586771847 7.379673203562729 8.941537883867888
As 11.491930111115657 6.262988840258879 11.794086456968435
As 12.823375612076019 9.947931829866404 12.335893676703531
As 12.298155646501979 12.370774003031775 12.065031351828779
As 10.815564503953915 8.679514142470032 11.551542690175006
