13
Energy = -58.21311431 eV
As 11.04601578426391 9.26108015286114 7.974535963801378
As 9.669849969537959 12.687733160157899 7.502834882031806
As 8.876751576957776 10.358466157160228 7.5445618804867625
As 10.868248919980235 12.834276297301026 9.64717281483776
As 11.572651761735194 7.727398385395953 11.544287961830996
As 7.6887533030280455 10.478386879643542 9.71184814515726
As 12.351131741532326 10.882168212114463 9.353417135961884
As 12.391294794006019 10.091156783387415 11.676045232508063
As 8.99400092410797 12.105220193205524 11.08851095199363
As 10.266871601270015 7.442232557509176 9.425564815167109
As 10.265068087162854 10.852556924251012 12.768496986811707
As 8.153570026433137 8.216826613556877 10.534318496886497
As 9.41119537838856 8.497120040374957 12.68396555468811
