17
Energy = -76.21389746 eV
As 13.767480900619395 10.722312991688637 14.991816318626668
As 11.226654410656785 13.06556264670097 15.81240594524816
As 11.71248606299259 9.626739288567329 14.251648293309696
As 10.931019051130248 15.265244240278882 14.640298569692087
As 13.053884087878485 13.998980373317156 14.430912383399138
As 9.993340979630732 11.4951819759769 14.364447331064504
As 13.429175152477843 10.421686728449464 12.668003299529303
As 9.348474796350585 14.522226521126564 12.886663091509257
As 12.19080788892393 16.842215293186282 12.094071248825703
As 12.765772257098122 12.995531948226898 12.20656144108785
As 10.355628766887149 12.433679407889626 12.13947597396515
As 10.192643577598089 15.960897760378314 10.985559380491699
As 12.461090347631107 15.07815067584005 10.540248804245886
As 14.748561863499907 7.778715234901194 8.699717628239279
As 12.31212516100422 7.543770792175145 8.905482346204911
As 13.287869211519473 9.706344655766483 8.269390834646341
As 13.336359842165226 7.825198975418968 6.690134830377581
