17
Energy = -76.74196624 eV
As 9.733535246827701 10.221213472555124 10.523633468454683
As 13.478692722378048 9.74953151855187 9.279305511419546
As 11.28784795705007 10.68194883844912 8.652027905431883
As 8.432673022439419 12.61482024909817 9.224577815084572
As 12.834929248942823 7.611804984014574 10.448227584303968
As 10.151636954919931 14.337576785054218 9.206819613624141
As 10.774528326910286 8.186578126365838 11.627770833180083
As 12.216247098301288 12.910751666136154 9.14919743521109
As 13.937862293552012 10.745289913418347 11.516592142831282
As 9.015346835644065 13.726700755072821 11.327826754041274
As 10.342561465027835 11.82276789131768 12.296393666434069
As 12.895548052949692 8.767095766849447 12.702598044423288
As 12.4820859036669 12.783762386702058 11.592322804972014
As 13.784924781785227 13.278255177460258 16.584203555379133
As 12.731757196822196 15.335334485048593 15.748583752888248
As 13.930793440822903 15.351942250519622 17.894312876030742
As 15.180083467554507 15.137925353567194 15.78856565532252
