14
Energy = -61.41590555 eV
As 9.424680951143841 9.281919032084055 5.800268465452367
As 9.607779885697754 6.826281447397957 6.263673535193521
As 9.577421852553398 10.812877091413643 8.209671267632462
As 10.428242836319223 6.982985636738102 8.582563361309498
As 7.09185476666346 9.23047240243395 6.595153914430353
As 7.240957142442033 6.75710123979897 7.075611132482284
As 7.570135027305694 9.645297542671361 9.078443814682242
As 8.15322087114241 7.171129063544471 9.413352285819078
As 10.51550183134352 12.342577479206268 10.10768295789177
As 9.134854129268177 11.936390100980732 12.101413383468591
As 11.523842774781208 10.16932914529576 9.62580127964441
As 10.624191112183249 8.701917561925379 11.401310098577808
As 8.375809409502592 9.57837327832287 12.006675881608604
As 10.369645599558742 10.20148716809182 13.376516811711772
