14
Energy = -63.04291376 eV
As 11.931219711699766 10.627614277523378 8.091192047440465
As 10.088849859939426 12.193783868023512 8.751494396318417
As 11.2803361484349 13.524614729712246 10.457640345478364
As 10.243370352664197 8.846238458951197 8.540680095762536
As 8.906554027051104 10.36807460227718 10.016959945342121
As 12.174930487537898 11.776721055383742 11.914174576385165
As 13.411353782514308 10.684981043615672 10.096246685864827
As 13.393109632568644 8.358034154432579 10.982758942970039
As 10.330243913716663 14.098945995249258 14.090674632989654
As 9.327755848578892 14.291670433846189 11.873708642022267
As 11.382662948558503 7.246065448021098 10.050849881004584
As 10.16003987026766 10.378710442662266 12.132012141342368
As 11.311952837318948 8.152155523712581 12.35242065088637
As 8.790831627349824 12.473376799328454 13.50642849495384
