14
Energy = -62.31743293 eV
As 10.973057383996808 9.151494334375322 7.567005814980467
As 8.512933546042605 7.593825615902934 6.070128766820129
As 10.594728643781519 6.755253813001919 7.078565245263855
As 5.834637702849258 9.282809118663772 8.70695776064991
As 8.569015243422786 9.343030165912044 8.254177865482434
As 12.09472995269631 9.709545963730664 9.72487588967969
As 5.839906540044715 6.924503218937342 8.853079000060104
As 11.268965313521285 12.071755580614774 9.39985990753001
As 8.88262472980751 11.787905185367915 8.759073897120855
As 10.307365380227344 9.456106163981385 11.454026130114517
As 6.4710781569851745 8.22206866114665 10.851853692158702
As 8.898792127360725 7.826716843155517 10.249136749812088
As 8.233057158239506 6.030701683615918 7.831421903489268
As 9.468587191246028 11.793762721816126 11.149316447060114
