14
Energy = -63.38601418 eV
As 13.150949705273497 11.589037943500779 16.284781052269345
As 11.857105476422642 12.752347803101657 14.562662256165329
As 11.654961286522068 10.319487030068933 14.72180786814206
As 15.187141313834584 10.622002836169843 15.081014890165742
As 13.578591096879398 13.347533474095785 12.941201000212812
As 13.661877124269465 9.389593421399255 13.515248623681794
As 14.941401354368503 11.331446022631791 12.754429829396672
As 10.004247525709019 12.998957280921209 11.474021905417908
As 12.36031970028977 13.16339838795323 10.739388368490607
As 11.192838268118859 10.979288521919832 10.79028418874229
As 9.01760171066322 13.87379377556837 9.368786783950078
As 10.854075969533833 10.94127854054341 8.328678509223051
As 10.616294822288014 13.290753428587452 7.573225391693175
As 8.60401639752246 11.900903789745776 7.929338859508304
