16
Energy = -70.93169533 eV
As 10.804566748026415 7.72035860952363 11.129706898461821
As 7.54652204253584 9.624283521524196 11.427066910647733
As 5.6028867021394095 8.2395183010147 12.153821552288141
As 11.07689285007325 9.69182793823326 9.429187207619526
As 5.223222673908884 10.05533596701135 10.567347352109724
As 8.983050633778332 6.2511429318366885 10.465885983608754
As 11.163272643861841 5.971931965728224 9.342978359743793
As 7.830273713543643 10.914043268170616 6.700298261976177
As 6.772596411235996 8.651533935286716 6.634098881191783
As 10.19112919491095 10.615219385268922 7.192745192308228
As 5.455932029238596 7.728241124440534 9.70898149261359
As 11.99527470074376 7.893445382560766 7.965150367690137
As 7.559971245131283 9.69015538142404 4.529448523129424
As 7.94583609630976 8.2260330410092 9.393921948942305
As 8.612345572894698 7.5984532629317965 5.349358589699435
As 10.789638600839355 8.621026877732998 5.868103118827535
