15
Energy = -66.84352143 eV
As 9.527068703818154 9.190951626467266 5.945030713134992
As 11.176378905025764 10.95266292340325 6.363472442308298
As 8.85563704141375 11.592486866473298 5.966441275101724
As 9.29532555612953 8.450227318629299 8.35280568687397
As 8.00963651381261 12.003102953733265 8.302782881508872
As 7.240933213895813 9.714565264519825 8.746604118820828
As 10.059466070252082 12.090893180927123 9.657933617161241
As 10.012327979619515 5.875022119741381 9.812996082919284
As 11.134759490570568 9.925680113755362 9.14362339675677
As 7.184485921771095 9.923902094334089 11.249355384198385
As 9.388215431470865 5.93726032528918 12.014912620921828
As 11.429627970048223 9.233696137966387 11.54215404769362
As 11.663621252183248 6.718393184224069 11.468479200357393
As 8.719544823853916 11.813395255622925 11.777954486144482
As 9.24162847834008 9.516417987118043 12.59411139830337
