16
Energy = -71.90775142 eV
As 13.462005259559646 10.320682503787133 14.387113701237187
As 11.83767531389438 9.53740940581572 15.768781860879448
As 12.658809605407226 12.537218981901617 13.744698637075716
As 9.900632201027692 11.058613334229396 15.629779860835537
As 10.184519723642834 12.380270229511467 13.580915705589604
As 13.662453732701591 14.912115063772019 11.032846398550578
As 13.621323383456435 12.462781379854402 11.42091770886405
As 9.616684974039792 10.800243863021086 11.772578369125577
As 8.495517661494587 9.18237152458926 14.83009199860717
As 15.442508949403706 14.928822037346611 9.308147762526248
As 11.88933196021782 13.557031100739982 10.037568026127062
As 9.48223359040052 8.490849285534496 12.659702435815841
As 7.480436550400479 9.938006888763763 12.697668799272549
As 15.321686853790156 12.733567747355544 8.170508073321892
As 12.86503812689787 12.838167618641654 7.86526887923844
As 14.296962087168684 14.720599799776878 7.12015587076743
