10
Energy = -44.30184815 eV
As 9.728509268918408 10.441231178221905 7.350413135089364
As 8.073779771130551 11.974645494114728 7.573147241939878
As 10.230751400857088 12.43501130719714 8.716658626346266
As 12.559604366286809 8.924117271714383 11.099904021375714
As 10.151978113894492 9.200064562808874 10.747982994502093
As 9.52761594059833 11.555989664186763 10.965115719788797
As 11.369223381806083 12.532701431252578 12.236437216842106
As 10.94183306987985 8.66781934041856 12.998874636328676
As 11.780524583085528 10.878467584948218 13.982237156941089
As 13.361391895597805 11.115163957191516 12.054441042900548
