17
Energy = -76.19356728 eV
As 7.811552136681719 7.936069022412593 11.188860627107971
As 7.938416552184601 8.735059131735248 8.886255767350203
As 10.60137033762448 8.928892749293881 9.297311822824256
As 7.780336518015699 11.88313683166494 11.232565698449157
As 12.25342262562255 7.442480219711041 10.690602393765886
As 14.288365101748004 8.794625829095652 10.425366898982883
As 13.186021376192645 10.838936013762467 11.35016542042935
As 5.905962983316829 9.052688006946822 12.242164716061161
As 8.264605147270355 9.859233693209976 12.647661440079782
As 10.539048365345812 11.699392199751115 6.626596991132011
As 11.244349882317263 12.686828986887363 8.7963209936972
As 12.91525464902557 11.630377997150507 7.2962366262911535
As 5.427665677008087 11.064927138835445 10.809383751535103
As 11.61706251374785 9.521984948025334 7.08545636416116
As 7.131491010934687 11.015800589637157 9.031797434583423
As 13.171589599425882 8.721517525725563 12.624927520166516
As 10.820170088271231 11.016462069563346 10.58623258406737
