14
Energy = -60.68747383 eV
As 3.4602569962471126 8.261109088208498 4.0884169724481145
As 10.288006954038696 7.097706063548483 7.396620672902333
As 7.714220843074335 4.311961866658282 7.4419591771834
As 8.765550608288411 7.636769021448199 5.471455125735214
As 7.9573555345709215 6.119578955279537 10.778211150558175
As 5.434434193264092 4.001593708690522 6.576267960404504
As 9.928231998702831 6.786562067268581 9.849231255424685
As 9.418450265333286 5.287592654673067 5.904634002392006
As 6.328079259811116 7.532094355620671 5.907545336641757
As 6.652723994850394 6.14992823851537 8.695765076587971
As 6.000548257143762 9.983752831765498 5.682153869538392
As 5.88670837167933 8.544968852450989 3.6483551977206896
As 4.647158128725274 4.720422526179779 8.632971602092896
As 3.555989331641178 9.603742989945793 5.964499498556014
