15
Energy = -66.9968902 eV
As 10.118430383649551 8.722127631862621 5.016288307868912
As 8.488219309536401 7.271112481790997 3.815214411476919
As 10.681175998957734 6.331722025255831 4.550403864704338
As 7.728774369586774 8.65042629484359 8.036866287524806
As 7.5467459895643065 5.705817127163252 5.4536624493532555
As 9.672003193352237 5.6840829193519875 6.814664467736593
As 5.224053772064338 6.704427115058341 5.866501985321867
As 5.217818184789933 8.888188476403764 6.9390470151425845
As 4.735383764672379 6.871249710683909 8.271759088963428
As 7.115010938985564 6.552672119325803 9.154356682273109
As 10.104226493372217 8.025421871724433 7.39675431180655
As 8.01987978179545 10.308460585180768 9.841126348303993
As 6.667736419827353 7.3668138962334915 11.438956202461362
As 6.155147907149386 9.800547989059758 11.387368164695902
As 8.43683907313653 9.028375336501167 11.928475992806101
