13
Energy = -56.03600878 eV
As 13.926598711354801 9.847603668204714 10.337158196443875
As 12.203422925283599 11.679859326534384 10.313388268544248
As 13.028166307400461 10.756597617752824 8.085241940782627
As 11.85759134183788 9.00771136210559 13.588528794888184
As 12.63960973376874 8.150771078913833 11.563915948251893
As 11.389019543105285 11.359855143764802 12.978900034043265
As 9.633641014041649 12.595527565556432 14.286642525659541
As 10.71420868599944 10.049478870585368 7.622412070082047
As 10.044981249439777 13.479677815653071 9.998740050630833
As 8.921918184323102 10.762545881713 12.789546115258858
As 8.581014685835346 13.077672811599205 12.034145735121077
As 10.373726573014123 9.976303837237813 10.080669362978778
As 9.022723915792042 11.612336588981737 8.769835403657522
