17
Energy = -76.44911906 eV
As 15.474046629009779 13.507662235366462 13.733747012117119
As 13.553999303399193 14.53122275468386 14.928453137824464
As 14.635273379671752 12.979042907780515 11.455467144015152
As 14.140784941233985 12.101729547549937 15.28911576592782
As 12.714191423857326 14.515922741622562 11.4881685763497
As 13.610244584009656 10.823077874451254 12.02054908376203
As 11.412286685025252 13.40869248799362 9.680334503535557
As 11.585048779283444 13.835200268445403 13.54051343847887
As 12.040321701665341 10.893970233202214 10.058339906601693
As 10.128833750864393 8.102271488854587 11.569708321687422
As 10.008305034054759 11.823527402341233 11.051807340442359
As 12.168209208587971 11.433141690850894 13.896024844257449
As 11.128001974031323 8.397090775189927 9.426185802096747
As 7.935247424502801 8.791739929404164 11.52089749477295
As 8.696339937631405 11.544847179265236 8.94170001877652
As 9.430657589530817 9.369962700357654 7.932163199494218
As 7.346652000138017 9.444735865626264 9.240467245034177
