17
Energy = -74.08399843 eV
As 10.627808161681596 5.971815831573795 11.542805642443525
As 9.801673428427337 9.142052806035512 10.305129015525674
As 10.190867403364617 11.310047689218964 11.888219851570563
As 5.594294382349298 11.586553636213806 7.857875636623353
As 11.926768877531249 8.085930268940269 11.04379550587975
As 12.419770293717606 11.408800775283305 11.137314236969125
As 10.292721279275618 10.044871190368536 8.047665130659341
As 7.649353765863048 12.029265627322307 6.624306905779172
As 8.29357365802639 9.473787517894058 6.652616069464732
As 11.937331693005099 9.852491311367833 12.919610590405512
As 10.840706608164567 6.8720077465044165 7.57626655552078
As 8.682056270752557 6.774033611711873 6.425294678650491
As 9.50380641419554 6.724596431959748 9.593258188011356
As 6.8730168543418415 10.749232117645779 9.877820210372953
As 7.327916611208066 6.444963475054233 8.424564460508421
As 6.38524260656758 9.030903085944079 8.167121501807442
As 8.831474213364213 11.978268235347699 8.82367175635467
