17
Energy = -74.36217876 eV
As 7.196564918797182 8.513601785154995 6.542600302400765
As 8.073372430427485 6.72072169363443 8.77533940769874
As 9.192793753688061 8.986697365636635 5.631422373564129
As 6.109357842631158 7.102677938700477 10.21617746689852
As 5.502278530763344 9.535659346241314 10.12655617950007
As 7.069347720117979 10.692210890667006 8.615270937513927
As 9.734711712997301 6.677896656892164 10.785288430872967
As 11.041338892876274 7.684303878681886 7.482715320534053
As 6.990343601296372 8.676598488674138 11.88633503148875
As 10.171210323107289 11.149666917842906 7.34191128406795
As 9.091929153280736 9.087120027515633 8.588524185616167
As 8.472865324252075 11.667580006604624 10.58288607417926
As 11.83824867748743 7.2028846577000145 9.828920905044356
As 12.27562404022721 9.848666120076576 7.706774376427678
As 9.6327250645252 9.321746063715278 11.053446707338113
As 10.590590017450005 12.133587829178019 9.627103538880718
As 12.098017189214454 9.911035699006245 10.245593269976105
