16
Energy = -71.73625505 eV
As 10.153091062558124 15.371527530714898 11.774951252923676
As 10.12159878301175 14.398052472832575 14.039317862598573
As 12.516682080541024 12.704022485584076 10.15914078313281
As 13.591998160545485 13.864855710689605 11.985819549066205
As 15.649255311844673 12.617498112360755 11.33100685260437
As 7.979085089900836 14.955374598065116 12.921860884202113
As 10.244251418771551 13.457382033444976 10.220868449528442
As 16.882698644480723 11.925953380042746 13.363368191312222
As 12.655363473861449 12.170034342849155 13.575215689447163
As 16.856962917324516 9.672153334779725 12.289802000837678
As 7.1644163788048045 12.783456646629537 12.1128869144238
As 14.771746924615957 10.346365701738739 10.892634758477756
As 10.21938969498385 11.952341679341814 13.641905906160309
As 9.084772861808728 11.592656353065255 11.461070730297656
As 15.56296192703561 10.091484825492296 14.37810705324228
As 13.515329860279113 9.933398058101508 12.97682922773511
