12
Energy = -53.90054237 eV
As 14.727452702706652 10.963272118041118 11.988424966150882
As 13.717419143029472 8.89779885674905 12.97502852034989
As 12.923000271277923 11.098720304039361 10.30029984384966
As 13.709447372386757 12.836156795579026 13.30100485596613
As 11.841957500538712 12.980839789957377 11.54571829212978
As 11.842084252451915 9.03979698155623 11.227035721985743
As 11.448302093206545 9.588836151429105 13.576688795940214
As 11.440846292971557 12.053229314299049 13.773904903213865
As 9.251008807071097 10.77727545737926 8.740280851873818
As 8.694380108506024 13.15893050167922 8.483481604103519
As 7.861226519981794 11.90748497360938 10.425978605196848
As 6.950837303803394 11.451650574102636 8.190276911765334
