15
Energy = -66.16361359 eV
As 8.904699639272508 8.336354003671625 5.448962167895743
As 8.313786041327022 11.313501647255993 7.829879792685621
As 7.6587233216684565 9.045311296411711 7.351824039830475
As 11.171204687696019 8.282687703096618 5.9346482252416175
As 10.802823500612995 11.400559096831518 7.7405692303411415
As 11.556839597816657 9.111953018436894 8.138538877563283
As 9.359089291083254 8.568577661245374 9.6203352354203
As 8.107330013079014 10.568334769169796 10.400695015100549
As 11.055965216208616 8.392841568882538 11.448269625243435
As 7.880853211759835 6.997040750066401 11.186716498834995
As 11.476507088963661 12.341658089344197 9.984623472167668
As 9.638406981635688 12.094635675779937 11.613031746155134
As 7.205752675918914 9.038287090358368 12.370365148920262
As 9.227232062752577 7.833868280502115 13.090814760106595
As 11.704191377361703 10.737794056104283 11.904130871650848
