11
Energy = -49.20649594 eV
As 11.796996078107563 8.7502487653159 10.58714314237438
As 10.580723235356922 10.958847595713802 10.443082101783382
As 10.164376608374637 8.764472953310824 7.155442699015376
As 12.307685757511036 8.285817248239459 8.252255526111844
As 9.867003413491995 11.027609092748976 8.059991617764808
As 8.708622331131906 9.834863736602108 11.667539471278385
As 9.569911837592695 7.607850789360265 10.914816430583814
As 7.383697729853321 11.034641762102115 8.084730593098579
As 6.676105060050883 10.24838953344758 10.326354807961257
As 8.768167785717235 7.330601408427316 8.578442515481786
As 6.67394618039117 8.653893132311293 8.427437112125228
