23
Energy = -102.12613721 eV
As 10.433797033877978 15.132835563712893 10.10101587217681
As 11.315786060724728 13.409459918552164 11.66813637979991
As 13.398919746151185 14.634765098393526 12.237211534567699
As 11.888318904292555 14.964027126350317 8.097811932324904
As 9.65184833502021 13.865329842235177 8.115488534885287
As 12.621620162423618 12.285492966685968 14.725608061331915
As 7.2176640177660865 11.424186635352996 12.964588422422493
As 7.34212493716541 12.675407862151076 10.993095357445188
As 15.399123393968525 13.131918050024947 12.117943044189882
As 13.904062197287622 10.258996694931898 15.186009486723792
As 14.770117985543562 14.593872721299253 10.171748010317312
As 13.50418210046669 13.14261217595785 8.58894561391445
As 10.286387051788205 11.5043556818087 8.416512625455498
As 12.193543846042049 11.702779963191334 10.118136570135503
As 8.41236358732967 10.768888576650022 9.911808409849323
As 11.709273343159877 10.228035186807057 14.065236353781811
As 9.020386535318936 7.963009931423015 13.019479513202418
As 9.282656524046871 10.382458698733654 12.240169015566138
As 14.777688123105255 9.32565944798729 12.916214438053757
As 10.33952821628849 8.362725361880887 15.07167502506278
As 14.780044709073257 10.998537806721057 11.109115922096036
As 12.514267941318161 8.879758835165008 12.0016618623206
As 11.30783406167251 7.007294908041262 13.239375787604736
