21
Energy = -93.4063412 eV
As 11.605363784016387 13.183895971294545 15.968311996031945
As 11.311551826491273 15.629662310651495 15.60598088591013
As 9.392012508879112 14.249698290321465 16.31187201954912
As 16.60522535120759 15.32481331640251 11.352875766216345
As 14.547473095386744 14.573006792517253 12.423300401365756
As 15.50199651923925 12.882647789742895 14.010101296629562
As 9.405873297729697 15.320972725294828 14.060239491492244
As 17.388348265498543 13.52153084074163 10.152577261237878
As 11.081181061377277 11.960835471773706 13.893147846438072
As 16.957244638643264 11.484235727192239 12.586254701138524
As 10.38328802880753 13.783896293571296 12.392461358513069
As 13.483019586810142 11.616315081392829 13.101952261569153
As 13.692454218796568 12.779863115482454 10.9023262064441
As 15.822642938287624 11.659027213701236 10.360730832656023
As 16.12549404941153 9.261820804965904 13.371298468444655
As 13.836526431377024 9.2104944708011 13.031593313640691
As 8.152032376612679 12.811387632557102 11.7451850023367
As 8.730159952937797 12.163827821365965 9.38429289036441
As 10.048313947065356 10.168827190511967 10.10387797406812
As 8.543270615638928 10.350861499562729 12.088022110759105
As 7.621767234814451 9.961930220029581 9.790702738364157
