24
Energy = -106.5849973 eV
As 15.915964778318223 15.037325460196483 12.667162185362043
As 16.526275528355875 12.71561512161684 11.948748710435444
As 14.473460865416833 14.239342231475664 14.620555091277579
As 15.692121854477163 13.071935818053419 9.636014132583865
As 14.232850940024711 14.943650463103012 10.856717773282561
As 12.44853183606481 15.314417814755526 14.078995274790358
As 14.47550352768289 11.992168961897857 13.281281801424466
As 11.656004319845197 12.191932072061388 17.926609296162106
As 14.579322855727835 9.9921932135047 14.5367164020103
As 10.04879710983645 14.043189910394947 18.068615403393434
As 12.133377224228154 14.175333253747231 11.954884712152404
As 14.10473474886592 11.38112690638397 9.058938817022295
As 13.481364944815986 10.67585013880695 11.250457058737611
As 9.38721729476515 11.786048492772336 18.78619293577267
As 14.496074317495705 8.706611613512013 12.439285270153817
As 9.73771006747486 12.272133348663937 16.39978844516683
As 10.54914646423618 15.758919076483288 10.875105126548444
As 13.77375719204998 17.216214602374624 9.938875841136312
As 11.053443895913063 10.317335677464177 11.217492298739037
As 12.443703706726573 7.416241150101159 12.963357193877213
As 11.673445251463455 17.97082552853409 11.010127459847283
As 11.592603472133904 16.76925645967874 8.852612145390461
As 10.604472571952865 9.057282204876213 13.299145196185032
As 10.811459146633858 7.835179325537116 11.15764857826213
