21
Energy = -94.71354623 eV
As 11.59817973321663 7.909953567425565 6.783414480206939
As 13.553105085473698 9.18845318155412 7.618916955633199
As 11.185764592804738 10.811927363606136 10.100548804747067
As 12.460443749211569 14.453549314578384 8.948178714451892
As 13.727886526758605 6.7398003363523005 7.301852095012455
As 11.304747304262657 12.510695485562353 8.077852650391119
As 10.103813106873421 7.452228181508058 8.691865874719207
As 13.900696274909992 7.709092705692069 9.5739712239013
As 9.205880572625736 9.743828232068651 9.016655753543722
As 9.988147183817215 14.489476320589972 8.537744236972902
As 7.744832690351263 8.788894448295 10.760554236294018
As 10.640583980167102 12.430478507465624 11.911317259537704
As 11.725326965249467 7.07027230877456 10.556850799867448
As 6.4633937584366885 10.753960721869094 11.521596434462234
As 12.058058994931931 14.388765921062582 11.49081425559096
As 9.601729871700641 14.468475923028363 11.070863274484555
As 9.230343534633615 8.269586825084234 12.68646436708817
As 11.481552072343792 9.018631319112885 12.025551661868082
As 6.084677426210353 10.17309957142499 13.903672040870772
As 7.687165892146019 11.973476590921532 13.292149440827924
As 8.509511155123278 9.91119364527224 14.385005910776593
