23
Energy = -103.66197077 eV
As 15.617625178187062 12.14999018117933 10.65229771157661
As 16.12244220924662 8.11613848464431 15.443557783399816
As 16.103998123079986 10.272976426490738 14.260410180002918
As 14.885105216586954 13.210394831556032 8.467986878950759
As 14.932879130525174 8.33745287831881 13.297146028186413
As 13.65897585276722 12.240552151618166 12.112703149808024
As 14.048385290862711 9.434023522291183 15.30868757184198
As 12.519420971118317 13.759796221034488 8.764197347233855
As 12.112801986129941 13.909704018969897 11.182019035627617
As 13.109286762754515 11.442449677819786 8.25560431439606
As 13.811298585743945 10.41995063565152 10.469586030098027
As 10.291275990922312 11.785109190404087 13.556768961419966
As 10.379002680829343 9.407358762324026 7.130063662350386
As 10.380630156792172 12.09746476389744 11.10893567876388
As 9.535354939035727 13.921184535724977 14.43655069240176
As 8.253742083525449 8.152470806445635 7.2462561639267715
As 9.299423975010088 9.00588404458024 9.303289310522269
As 8.032827744753101 10.723613618122242 13.575783890310841
As 8.29413470778399 10.572151579274909 7.696671974212745
As 8.319944809099013 13.359614752451362 10.721729850258505
As 7.847780077947939 14.57477271509003 12.856926757389566
As 6.940779165083022 11.40815301217536 11.468854421259817
As 6.433297132393163 12.629205960111895 13.614385376238372
