23
Energy = -102.40676362 eV
As 13.74138808453547 18.572435588609892 14.448476510170261
As 10.841506651246279 13.482124543764002 7.222399639351799
As 12.397313363211602 16.55292225974942 13.963198349068527
As 11.881152987280693 15.172696268569158 8.65465708188142
As 13.253638154301946 13.93497882254754 7.050372747624431
As 11.90722386579208 15.531516329783216 16.187657721195137
As 14.856165367545794 16.495831167371993 13.696105754293411
As 15.295631125503988 17.365931661751276 15.968848698591112
As 13.84844645742066 16.114225970796078 17.55292411085999
As 12.473324859786516 11.904112803860189 8.28755530828486
As 12.522801134952237 12.772227917121953 10.630505185284067
As 14.995665200295141 12.46205661387896 10.85084245868412
As 10.277384642759738 13.380472649953386 17.772921575340636
As 10.992104763420492 11.394129980808529 16.90177599709931
As 13.765357703151587 13.94204664126465 16.353093503669278
As 11.654770744217927 10.640445592557498 11.526321665135221
As 13.179253009214397 9.019527135290005 10.50328556054391
As 15.16440147022089 11.290658240982271 13.032767712257206
As 12.613628474714634 12.670947460979953 18.2385506829321
As 12.764551597853393 10.988195940271522 13.68338529061448
As 15.4070077866037 10.01704091864851 10.945340999412357
As 13.232969138117515 7.41978321540677 12.411020161644341
As 13.018795970756985 8.616166276772885 14.336998249549225
