25
Energy = -113.85240447 eV
As 15.2343812692646 12.5618398124608 7.014584361689874
As 14.414726791289374 14.806799548794352 7.658805244439804
As 16.864978970278024 14.450956831674791 7.396637965531762
As 15.886081305373066 11.577793139713583 9.214058827699512
As 13.98337821489881 14.732812675222348 10.115604222884633
As 17.51858535962838 13.44012742660972 9.589193461855295
As 13.839363712330623 12.275989503658833 10.364122901075898
As 16.300637154969394 15.181819508188164 10.799422964150159
As 14.914845467911187 11.865446780815489 12.559104165684586
As 16.04856514408102 14.121281601135548 13.045080161074587
As 12.331537551207965 14.302797926070758 13.486266204360541
As 14.313440243776299 15.779810070883853 13.653286249225635
As 13.041355915630144 12.045251091963399 14.146894896196152
As 17.385750121245614 15.037749132604215 15.367472924867785
As 10.88880254534998 15.056191937894049 15.406111714800135
As 15.26243582323904 16.13653590755528 15.993870266693214
As 14.560170068796857 11.990926153473053 16.109918624935805
As 9.539483100205242 13.0308048063582 15.527865117752553
As 15.89253438920477 13.978464717848107 16.96702040369157
As 10.797522857885443 11.412081053546597 16.977284554752426
As 12.207804995299195 14.89804681828285 17.4834524919868
As 12.805029013833114 12.525499583543978 17.82441348364072
As 8.325413187356652 13.918338590333747 17.520843038223344
As 10.20317700315302 14.71520964485109 18.942596234166036
As 9.581977049531298 12.299402992255462 18.978066774359792
