29
Energy = -128.26337584 eV
As 20.73630904537004 15.738334101399492 11.906723640178269
As 19.150548093403366 17.40156163381785 12.841441660223486
As 19.655411491910943 15.3128226837561 14.08543811152224
As 19.156235256157345 13.847443183434219 12.147747189259471
As 16.98856725353101 17.065011897582085 11.69866009269634
As 17.11129184403425 14.67556816693721 11.038205843759878
As 15.760340834206128 16.617461581824852 13.813630018302874
As 13.826572530131498 16.504726374458386 16.71752998503973
As 15.2103727972269 12.715803185546436 16.965424636516637
As 13.950125381949242 14.379746108613492 15.552479770204805
As 14.095054610353575 18.0945745577182 13.252525680864695
As 12.408292435347088 17.648791349489773 15.060922705853166
As 15.38027246230399 12.807257995295547 19.40894729333963
As 15.253188243259592 10.496135120629514 19.33261044919131
As 11.59153355102192 15.714381656025148 13.64406335589198
As 15.60072270605133 13.520787436244493 12.749162178777413
As 13.76998982996258 14.047076397376696 11.190657382730977
As 13.824340269858743 10.709403157179326 17.335859837239738
As 15.215159877161248 12.023943559527979 10.771948758514784
As 9.21518778572768 16.46390524580728 13.691261947228107
As 11.465015812680528 14.147632693587429 15.542158330989851
As 7.994033014388297 14.743771677360659 12.353491148644679
As 14.236347502677381 9.19938296139022 15.385927155874304
As 13.957095560627394 11.106457746969287 14.124930050063808
As 7.789612896471028 14.736360273710124 14.807571783745857
As 13.483576428294498 10.459378017056897 11.79028708356195
As 11.909791619175847 12.403464033248856 11.66257943394884
As 11.112573128960058 12.212982536691744 14.039449743842596
As 8.65650520386286 12.712480051279854 13.644351855611255
