28
Energy = -125.7284478 eV
As 14.749480107351038 11.254816755725228 12.800015816007738
As 15.263842983256525 11.709513737799924 10.395855442510529
As 14.947386412190921 13.60055300021341 11.979542736262585
As 13.700612943055186 10.337357056516298 6.978944275022723
As 12.278970242916992 7.924844575369494 13.318693959104927
As 11.919152580036693 6.8053344143571275 11.107978487773863
As 13.494744800505226 8.018897254506514 7.902181987323134
As 12.366379019074474 10.421917751941248 12.8483121928587
As 13.550810048441628 8.488350151013606 10.368550615279625
As 13.301813432591786 11.919015306655144 8.739076041156851
As 12.046909109057449 16.922841176524837 12.329822371432629
As 11.646471347274819 10.396135873191755 15.245181378315896
As 13.367431994350186 15.348923370892424 10.863145148306204
As 11.761995555685049 13.6655932787244 13.832470259109781
As 10.603459102820976 15.78442497995449 14.079092484573344
As 10.184007929480737 12.410047854511163 15.254998885442708
As 11.287182151811358 14.477384075384077 9.847820116582099
As 10.14668658323829 8.534432191216396 14.503996240307055
As 10.955731804218217 12.80008118932369 11.623572855222342
As 10.069417913191032 16.514415965523412 10.769267344211062
As 11.760611327239438 10.173841961052949 9.72521713619711
As 9.869520276670483 7.512571343737849 9.786456317768282
As 11.10556716466178 8.722899266750685 7.804935474544474
As 8.607120974122065 15.551644537868667 12.581991558992238
As 8.19647828212835 11.846637639922543 13.81913044875416
As 8.567643473898288 9.552257112242744 12.863096907698937
As 9.358562031807484 9.772001492773603 10.515893668348198
As 8.55244710665091 13.193703384033197 11.77519654862002
