21
Energy = -93.40507483 eV
As 12.479841343706799 7.931436024306257 10.28604488894453
As 11.795136727329664 7.445634216076649 7.97688352973428
As 15.848287413428167 12.206509692345287 9.28348304756887
As 10.41849527139488 6.664078431384514 9.857098274208926
As 14.499196182760206 13.617324484138292 10.567484148103766
As 10.51910563152173 9.06000484281917 9.322347381222935
As 17.897467086655755 13.246148401179461 9.61290959112865
As 15.485412278842585 15.37351659995346 11.757492518630874
As 12.095011182309143 12.99091706218069 10.801004981768939
As 17.680621747685418 15.111141619941868 11.046111284117925
As 10.938746393827623 10.117596581515187 15.62498428173974
As 12.423661161930438 11.695329604569533 12.889683761506953
As 12.062604885503598 12.174925681851056 16.462819483243386
As 10.162112868601813 10.80502276307982 13.327922128229007
As 11.203036406960178 15.200865448544985 11.497781342059193
As 9.048424347344689 13.995189665094818 11.604688213839268
As 12.797710519653151 13.507602451313728 14.49079698677405
As 9.616620239809038 11.965880210732605 16.717423677327293
As 8.561281883779458 12.325837169872953 14.49611123204619
As 8.81624086576442 14.732405443702081 13.944545230528012
As 11.231452762789457 15.38159737264395 14.004031979928712
