20
Energy = -85.25507655 eV
As 18.784975842060163 -1.7436347705375879 13.187418674125182
As 17.578291957374276 -0.32060023016218947 14.538571897212018
As 0.362477524580156 18.71157288054449 14.707014076949806
As 15.397746035727192 -0.6836506264858558 13.462598950154463
As 0.7914916374909475 16.447520033804256 14.57316885786162
As 14.073973965153026 0.3419846605089529 15.322483843055581
As 2.4283662866314515 16.613159444523507 16.370218747035118
As 14.5183914402244 -1.8668719262484645 15.517190948020108
As 1.8961101840626118 14.871758997235208 17.771167816544395
As 12.713007060137535 -2.7593460336385602 17.94538649487215
As -0.18699473457453797 14.026235524373087 16.726376858055506
As 11.680915366102054 -0.7366099197669626 18.42442554006843
As -0.24384542828347996 11.673377490163537 17.390500485905527
As 12.586662234893268 0.23372498693732108 0.07912346711143528
As 14.22691882689688 19.190399322821904 0.9665575695728982
As 17.95316764389551 11.968595962731985 -2.0238542729624323
As 14.090309994114897 17.300000643029193 -0.4489117408513652
As 18.503197445049334 14.327906805603853 -1.693802935232971
As 16.32683604880499 16.31457551741358 -0.5406508857114726
As 16.47192289231136 15.411136703078133 -2.637405547495
