28
Energy = -123.73357633 eV
As 14.301578366144131 11.267259021855596 18.446985844581395
As 13.873884177809522 10.726168208714212 16.055120281432927
As 12.653908897141156 13.09101220898017 18.47624231783964
As 11.426185069689213 10.576602391406714 15.731173513456712
As 15.472817784893687 10.989560865550713 11.721135832267446
As 14.276639171736292 13.08897796529617 16.61926621548067
As 10.605543755423712 11.936229266143336 17.651319665820093
As 11.392128240692076 12.27655283861462 13.909409434079656
As 11.831472154080094 10.889610515831079 11.913658394972305
As 16.403843189888175 13.103621774342509 12.771357778911035
As 12.613939043917085 14.344577159674893 14.19855505852239
As 13.559345166329042 12.236290325729113 10.71610540295306
As 16.540925193378715 10.748424156194416 9.568377624795664
As 17.720809916214343 14.110793813262951 10.9598818269936
As 9.61770301790845 14.126589195422223 17.16886506640232
As 14.134810337949236 14.083785582632627 12.336942644569367
As 8.886387846711223 12.764776067580408 13.607960380829027
As 8.826216223193416 9.589486825547056 12.013538960318908
As 17.23087358405326 12.908676231844213 8.854670121717449
As 8.198691275943894 10.403681206847406 14.04196893947876
As 8.537090376926324 14.594363027399512 15.21028664199025
As 9.702323391660148 11.447092878007695 10.576456566084989
As 16.788032845479325 16.409200210213662 10.805288427557397
As 8.796001450583239 13.509490940576725 11.380203648220776
As 15.501598478898119 14.389213930191447 7.700428487121746
As 13.784414570859331 15.718051070468853 8.81128872644557
As 14.359118076789171 16.269514673387082 11.218839794288202
As 16.097086489166198 16.64383219852943 8.323659638369286
