22
Energy = -98.15532292 eV
As 12.838579324186943 14.041455966380182 8.94440185101652
As 10.402800337930918 13.462751190370636 9.280330810118302
As 13.863964651986906 10.097182535728885 9.179552507860182
As 14.093899854917748 12.250801073350251 10.135285654303447
As 15.500927891850017 9.202234668569533 10.62579557126054
As 16.527114532593046 12.946108444382864 10.454558047598995
As 17.548661533839155 10.753097061549344 10.429758582607342
As 9.73249564867842 14.905905159576857 11.231028900770403
As 13.444712907088448 15.802224805034712 10.519375961024405
As 10.189892867015635 11.22166258108155 10.074416021275495
As 11.63173873807559 16.333867385161835 11.806092735032584
As 17.014260417653553 11.839595605774129 12.633539210166655
As 11.177671932848748 11.625469693815813 12.220307101798618
As 10.198051805694442 13.6384788509963 13.296190846337966
As 13.66175845802117 12.199355753962134 12.588215394566065
As 15.053871953301183 10.256322908455763 12.909496687146625
As 9.802184497072597 10.142142360835596 13.711105832958008
As 8.234703688248574 12.074794891638605 13.631060134042439
As 10.89907237140256 10.391916503384245 15.914281787789994
As 10.360114930365077 12.607049045243304 16.886133172076907
As 8.02338113979021 12.611873600595374 16.03862042942687
As 8.891524682159943 10.681087681191531 17.34356096703277
