28
Energy = -125.5413387 eV
As 12.510752946745617 6.672179883828165 11.396148647095043
As 14.846526904623273 6.814476024349683 12.07054490117491
As 11.109075916780078 6.979315635792112 13.51120195229352
As 15.481805723313869 7.57037700781578 9.862868481413901
As 12.779897095503287 8.458756621742623 14.647477412690796
As 9.965830614906753 8.215474282990657 11.6879615446853
As 14.105986918575011 9.31937406859672 12.687376483415088
As 12.185786020623615 9.250690340857044 11.019160113461822
As 13.545521501405181 8.848795929206148 8.891222883317829
As 8.587404770178109 10.117342941091044 12.45999076409433
As 11.574358199109202 10.346903747575116 15.694175172765895
As 9.464291145383768 11.18201561084619 14.580946063649087
As 15.251695632997203 10.203156464496725 9.936532459236897
As 8.391484023246752 12.260753782805446 7.4751966263241885
As 11.638126560347311 12.387756721961264 10.005008701635074
As 13.986341011600457 12.304031515407372 11.005661058939932
As 7.806795080552568 14.31322270742794 6.198449573444581
As 12.83743467712377 12.39966437147 14.975720171262832
As 14.613706036678346 11.78426259375405 13.310184298032345
As 9.221297015362518 11.579066262497113 10.533549040336153
As 11.09962824905903 12.390686777507213 13.199125525366476
As 10.067873136840479 14.067247680502824 7.199791508473215
As 6.619738183313821 13.780491721271886 8.320353143361388
As 11.513272893728455 14.769276018161444 10.68178085308092
As 9.863730102861672 15.706377880276465 9.048908344761989
As 8.133653718204735 13.436074334821074 11.774344931959792
As 10.087321444164857 14.633303843414373 12.733774201696002
As 7.675431909908737 15.173692662672016 10.057312575169176
