23
Energy = -102.56807222 eV
As 17.31916548398849 14.30879420625167 16.259448647184517
As 18.680032608938223 12.851860753748175 14.773137262449014
As 18.37425708535033 10.47017355263149 15.512556326729408
As 17.69740906114617 16.150896891723185 14.645425652494197
As 16.38440704130756 10.487122568061785 16.971598753641366
As 15.485539782322327 17.118772873909915 14.067462188273963
As 14.930348246087938 13.837464347802076 15.887561496852411
As 17.1599086612885 11.427917595554225 13.50020802955813
As 16.53223895468907 15.474707224831391 12.556357970932819
As 15.215305797539372 11.505339251735023 15.108945084887125
As 14.40769880148686 14.907213958990573 13.719316757642511
As 12.864251360911513 10.288630721840425 14.631244963593069
As 11.66192037996656 12.35668511521295 13.961905516984553
As 10.898971667708262 14.371798848061026 10.805109948086592
As 11.395242819779932 11.282187945209788 16.156221103067654
As 8.669171663171744 14.905724555236135 11.749516008831826
As 10.378231581645064 15.086466227780772 8.487719170585835
As 9.89262449543099 11.203923602834726 12.59625021800268
As 10.748964589297595 11.95579979547433 10.425676846156374
As 8.088840755457417 12.869435487351469 13.043040789428664
As 7.136110604728484 13.24603783873491 10.780919826335008
As 8.938815823311142 13.556477608502044 7.607045053301685
As 8.570875963098548 11.814985185425899 9.32475855262725
