26
Energy = -114.80065032 eV
As 14.792709174967268 14.600548821026104 9.861386027660274
As 16.603765900164408 13.557491962651921 11.355911410481667
As 14.332616078868519 12.39765823779296 11.123369727718059
As 17.700068819754204 11.163072520992328 11.587553800461194
As 15.495113815635465 10.061872089338808 11.432133068722246
As 14.254047504892764 15.482773951327744 11.978335101312014
As 11.369687780629306 8.863821951548525 8.329963119017313
As 14.942898426480289 13.299760410957898 13.435704835271927
As 12.046808984724446 6.803035427391497 8.923143363866629
As 16.337082682530898 10.869882575387745 13.567209032289798
As 10.676909004164136 15.719970585654616 15.538497922553807
As 11.315170029161088 14.347281759950945 11.888664174681896
As 10.446383039437174 9.89418429509001 10.393562302285938
As 16.072692916171928 15.232154662251736 14.588757215710203
As 13.070199884075619 12.58104556115095 15.04569563652743
As 11.097211497873378 12.517335315053684 13.536376220286426
As 11.514722061265912 6.595131472155778 11.337234634561568
As 11.734870992787918 8.891396864252709 12.27156581577491
As 11.038098383302568 16.4295200548487 13.203713629290274
As 12.729993780391334 14.602512697250669 16.39502676430995
As 8.798438058493527 14.2322589763447 11.478179036897066
As 14.507852670152394 16.254573822855797 15.873302524664991
As 9.509410266153072 8.008236401305881 11.704817156347714
As 9.628129597771755 13.520118701525842 15.245215622643649
As 7.8028361115363625 14.268026006455175 13.738037837821608
As 8.570043343704338 16.404526895585562 12.729694124778732
