27
Energy = -119.02284836 eV
As 13.579613276040572 15.523942388533847 9.733642712132587
As 15.15872927989269 14.045617627766616 11.000282014328844
As 13.619838596897587 16.373033473118575 13.101393113929099
As 14.592989299570556 15.371697705612895 15.141148807930119
As 15.03404272402578 12.456626726862119 9.072684408147019
As 12.236313805464983 16.16470593641228 15.105820264235907
As 12.933543247503081 13.573353840507574 8.206515707441728
As 12.809712978277181 14.295471499111615 11.762377135956756
As 13.653676178275935 13.052390915763965 15.334653480375968
As 14.272803097387104 10.20727156367523 9.79119496232938
As 14.963238735900958 11.771864839147542 13.597826123062479
As 13.454992926054288 10.370138642034295 12.157186274056212
As 11.305937254561785 12.838694437346124 9.867994926928853
As 11.83178073662921 10.502137997904635 9.240721351459504
As 10.717093869693354 9.736114752903458 7.235884276877242
As 14.569362991077993 8.406076636933143 13.073210437758716
As 15.189249767795648 9.708532400687403 14.890912645812493
As 11.392797456223487 13.758939545699178 14.479860236855314
As 9.984167910485759 13.336849879273142 16.451934158862617
As 10.805906401311997 8.776995212936743 10.705106737242932
As 9.302625019548756 8.419227942367158 8.740672822557107
As 10.515256445087646 11.03997418585493 14.18438375791938
As 8.190758624428188 11.89767882367127 10.617971533608099
As 7.395634933906982 10.003270354761172 9.301641653916848
As 9.42589741064611 10.29945102604734 12.067474211644253
As 8.63825927736802 11.685461073190073 15.454447786366266
As 6.985757807295392 9.942847954749329 11.723972934711504
