23
Energy = -101.72829341 eV
As 16.71531849676475 12.25050319517575 13.569963012363296
As 9.247773839193378 11.856330607835469 11.087719911116995
As 12.176732070278751 12.724088595001763 18.168783540968953
As 18.135159988845864 12.156099788092142 10.487476645635057
As 18.175380006357337 14.622697670549076 10.256650291169132
As 13.695206222397136 12.869964277070743 14.490152810523266
As 16.324143910502805 15.607640475792786 11.5646919935801
As 14.21025902466847 12.867397433128628 16.91641790131372
As 7.954158601217583 14.426299154075602 13.839376502590486
As 19.000128294716806 11.914429195591227 12.788011389584879
As 8.294823434596713 15.705598508509913 11.674432683318797
As 9.728973877247908 14.195539054366568 10.380279808861584
As 7.810496584888093 12.028916088221125 13.080836063182122
As 14.691954203546288 13.858278813441101 10.896961823208072
As 16.005418436321115 15.085034122778088 9.16830386347724
As 10.073880851569381 11.02062467286377 13.282947974345605
As 16.36922913074804 10.285410149082088 14.964015407013015
As 15.826668691504302 11.71070482227537 11.264836831915881
As 10.30609332585989 14.993408061798254 14.303184155071746
As 11.202071873536779 12.733295561385946 14.680850993496495
As 14.087810352222892 10.652609930753814 15.543050883984144
As 10.328681790066668 12.185342915130553 16.881435498994467
As 10.824582531676349 15.711336364226197 11.951696071782711
