29
Energy = -129.74519815 eV
As 16.022063156552782 6.781163330986185 11.556963920964247
As 14.886823715295593 5.354667091186792 13.236138703959638
As 13.611287868770884 6.268811874729941 11.325998444069219
As 16.18922568592286 9.040763663187398 12.57559825994666
As 13.070585403055588 6.991712086936611 13.630894530511439
As 14.060903101307753 9.918602523432453 11.687416142971108
As 14.231334647264907 9.15445923826055 14.036280478737904
As 18.26771703230941 17.56105852653446 11.433993729241662
As 14.357279304964468 12.602825737965668 14.32736107971097
As 14.46415163984937 12.487494295003714 11.834731002000932
As 16.939216619276394 16.98000919817071 13.47672918221811
As 17.527947532022953 19.383983272121032 12.970793325658807
As 14.958183972917304 15.207962459109686 10.879772695130029
As 14.845817742445098 15.045483761380979 14.715056199032503
As 12.752791266018129 15.002387538870488 9.744714599983437
As 12.331768625109152 12.65082841801925 10.562418415579934
As 17.07443853071325 15.43462548209749 15.401845946561435
As 14.626991098715642 17.027923016110297 12.505195161971036
As 11.998546743340091 13.148945444046241 14.938163395167079
As 16.127580971800924 18.714611403686032 11.07350429229901
As 10.885260203120641 14.518649650659036 11.328055215890037
As 12.012397185104922 15.137797415589029 13.418027057949507
As 13.131223701176884 14.64796634875815 16.584756584654297
As 10.29459661354885 16.54850316904185 14.520541645709992
As 11.62591953149042 16.646605716654054 16.608171546800165
As 9.144755415725957 13.57340984831825 16.975217089471176
As 8.491638349953265 14.95828381932188 15.03211185695039
As 10.151070354728862 15.480387642861634 18.208987849498293
As 7.834796189284935 15.646390228746471 17.326873849147706
