20
Energy = -88.82914077 eV
As 10.028282587745114 12.484818588247345 6.17180963884935
As 8.81478233372152 10.295867243583366 6.0852437918041336
As 7.280299937510636 7.5665480400656175 6.324223178753713
As 11.236327669218877 9.431759694751312 7.851945477554928
As 8.819050837870476 13.08601551445611 8.251974214714602
As 9.13102444919615 7.102663499798939 8.670794057624535
As 12.121788469480997 11.773120967590533 7.410335450682177
As 5.5961774922959195 9.162676861473665 6.683534009323775
As 7.541246771583302 10.825254792731593 7.99479140510892
As 5.302880570148609 6.950918701034093 7.759672025565407
As 11.3489445665224 6.8065562623344915 9.897351172856713
As 5.661079047489807 7.689588904613119 10.116586516031266
As 8.680642082957375 5.079299645793013 10.124451046312343
As 7.906299270044915 8.786438771811552 10.02010478478171
As 10.512979497724983 10.187453987880835 10.126229674959577
As 10.057409357327392 6.161468578795204 11.933567988234152
As 10.99350586085941 12.590551878319518 9.47993401019749
As 12.645241268127753 8.935727541581619 9.88054611256462
As 8.194998158035636 7.783008957936966 12.334508411514873
As 6.73903296337262 5.912254758434998 11.49439022380004
