23
Energy = -103.14932116 eV
As 17.202848931987923 15.944002409954559 13.09100889856171
As 16.289806881787833 13.541278147823364 12.528871809655586
As 15.106886225720007 14.980912270064701 14.149677967332698
As 15.833240626140263 10.961033343377599 12.769604226706837
As 15.202600006859507 13.977196684666035 10.343719064349134
As 15.903351494565172 16.58753667214255 11.15921543100672
As 13.838292606020575 16.475431261397247 12.570110450809546
As 13.364633569270593 11.110714715381437 12.697703974114964
As 12.039384727151011 13.59334278028289 13.947438594206151
As 12.99838269757993 15.104814114981403 10.715713388542502
As 14.746998344204835 11.292129920899395 10.643367227299143
As 12.74625456688575 8.68722457367129 12.39723281218591
As 11.34951814311558 13.440355065946301 11.57163508639144
As 10.420757441353345 15.589841548597219 14.298106694468604
As 10.926161100089443 8.516682864064913 14.050020027678896
As 9.542675549766619 15.13568320885175 12.030836719292386
As 11.542618351428981 9.28571486184166 10.314568008995144
As 9.531771005409205 10.502551481369682 11.04077729283144
As 9.317246806764855 10.294903980573592 13.495362228010917
As 9.385959547184678 8.05840373055503 10.532787421094124
As 8.50529805909 14.013180234273353 13.989272385069247
As 10.096492482940159 12.26035162825219 14.795483845468855
As 9.788795957144243 6.874162117415599 12.650121218368094
