27
Energy = -120.76227493 eV
As 15.886552842150513 8.847598570374787 12.550590257597934
As 13.928453659280745 14.669117812653441 7.27490405121019
As 14.391919625976488 15.982859920623554 11.0953556035091
As 16.882601848257284 6.598031241474804 12.587640284016517
As 14.032219790791359 12.63984171537658 8.552587142045828
As 13.12682324923031 16.423181115038016 9.093162539930082
As 11.481491687592392 12.866315171342627 14.28100408516683
As 13.23241986783524 12.167551827406827 12.646290845802953
As 12.632881149581223 14.827390156592116 15.40030693038179
As 15.114349036951383 7.133183482857993 10.967241003951473
As 14.566581883226654 6.937995021859025 13.354878395184954
As 13.374143180792196 13.847197617561276 10.803737705136168
As 11.828823957746494 13.398499341626255 7.703194243326892
As 12.065455115675384 10.573712831093433 11.139674322052777
As 10.347392262513871 15.81033849428761 15.627681735950002
As 11.357214609091587 8.805103254474602 12.704446483587507
As 11.361562086594876 14.817067698914045 9.822469549870661
As 11.810477469448887 16.48253636308646 13.756631648331698
As 9.881295465688055 11.599565818404036 10.600364463833559
As 8.78022611461826 11.696312586690764 12.801919789144408
As 10.060649621257683 14.721403098112384 13.379006411628632
As 9.27210533022729 9.546351354334005 13.8934197544561
As 10.050272885011866 7.63418632818161 10.94037835958801
As 9.009840544486028 9.51946927206041 9.572134830338893
As 6.4893936166599975 11.246601161109849 12.0173613048806
As 8.044633162119567 7.837743338659108 12.490591349084719
As 6.8247466822757525 9.205372150885422 10.777553655073273
