23
Energy = -102.65677383 eV
As 17.868898682652674 15.613011224885556 12.244383952350349
As 16.696068377925148 13.476138798562243 12.445224743302829
As 16.066884433433575 17.254821375732952 12.184836148234558
As 15.2553278872768 14.147802774524287 14.32564848263352
As 14.790774628428128 10.727684176401702 13.72792363478034
As 15.17046570836377 13.842716517757175 10.565113258496359
As 13.288818469031446 12.678025053645214 13.877064961273128
As 13.95085251499482 8.591225741558963 14.572406074031935
As 14.22041031093555 16.243139286180053 13.513176249606179
As 14.194007453835376 16.06627998674026 11.050715032069812
As 13.341072381430335 12.342313790335071 11.3795959597214
As 12.570513509202218 7.0126709672082574 13.253144288991688
As 11.777361479323751 7.863244456807254 15.470611992801398
As 10.59373700330405 14.852351802818248 12.564750339125727
As 11.526620617639226 13.887743810127976 10.499358143199295
As 11.074124641716313 10.4901298887213 12.870091798397379
As 10.616206569472343 8.190670061388674 12.102970977964759
As 9.789840673828198 8.967779914466268 14.31592218269387
As 9.827259461416208 12.240603934619665 9.82420121184919
As 8.895116903524961 13.280923400292956 13.411314749510806
As 8.112865558941827 13.968613517978836 9.665448931960118
As 8.914255306826844 11.30415470946331 11.92112700606195
As 8.210987084324689 15.091231691766435 11.85011799121093
