26
Energy = -115.1147836 eV
As 14.89157733915878 8.407061898424354 14.180123534940257
As 15.551320253578542 9.699299550217523 12.177406966665066
As 9.463821176019879 11.248550101342843 8.181291932172444
As 13.107886961111157 15.886352317847427 6.681523856720231
As 9.607722802132761 12.104482760404876 10.334073360730168
As 14.715326736924851 15.707320892120544 15.571152441236306
As 10.693757049337318 15.375097992707929 15.668289941748629
As 13.21462447798893 14.330323990037089 8.57976434049942
As 10.33982501642357 8.125591278953548 10.275261164087862
As 12.854654500524012 14.917858784890264 16.973100675243074
As 15.106199033923973 13.16350410967614 12.747107926278819
As 13.901033388936018 16.676020369908063 8.86879405373992
As 10.04787771144755 10.105911303295184 11.48772191724123
As 10.436308464651333 10.121423919925812 13.945631630718069
As 13.89930396739271 15.336930569043828 13.207110587990567
As 16.05729364900803 13.911803577845362 16.47698287423401
As 15.280939800404456 12.202010988346439 14.997647105214977
As 9.367071750247293 12.275212755289992 14.059832855819783
As 13.51725303676774 11.265623990670067 12.317875008305364
As 10.078700411652827 12.972656340954966 16.285031814994134
As 12.515562017528831 12.885048723000335 15.538718782723967
As 13.035789908004688 10.425160528997715 14.62822635144763
As 11.529425672990467 16.115888081401987 8.549680723686357
As 16.68661815233334 9.96676561395406 14.349815857990489
As 9.934123475722988 8.933557914547375 8.135185487645634
As 11.726334112596614 14.234753346861313 13.649729522955923
