20
Energy = -89.26047295 eV
As 8.104272336256317 6.909374219684673 5.791360390900455
As 8.013677445399479 10.20007009467546 5.8734763635114104
As 9.93896373222713 8.602846501890763 6.179369494859218
As 5.989001320777839 8.756409727726762 5.980720367192867
As 7.427431038577345 5.9397480545550225 7.844614656560647
As 7.330435375786389 11.55280522550083 7.812135657822754
As 9.629176258995416 6.255428971812532 8.931980251328064
As 10.301838976979958 11.335446076380613 9.235060087933626
As 5.058458331563166 11.149462643817346 6.806824207520393
As 12.487792670857399 7.941713756211779 9.132967962169204
As 4.3943232887828065 10.177499007554502 8.9290040076494
As 11.951395407239225 11.435540507312664 10.898529617854667
As 6.803096158122034 9.887063183552074 9.618750490349123
As 12.128613956569618 6.177072456837181 10.882814229846575
As 10.157537212608371 8.675906809023434 8.6785798892809
As 9.619734197779076 11.021842185322596 11.568521642912172
As 5.804546591357043 8.032120181234465 8.355327655294928
As 9.716660529801608 6.346787642447383 11.384341105814979
As 10.253018397413816 8.658021863479725 12.289492309152868
As 12.60450303195003 8.659317150024538 11.520605871090245
