21
Energy = -93.88779555 eV
As 14.435607619040743 9.352164107803107 13.898024887139073
As 16.730959377976525 10.068833231717166 13.097308157567698
As 11.64713641692538 10.7363969506894 15.481292094051291
As 12.785283730917822 14.197966963155423 15.820760589846826
As 13.258258775322759 10.177903523572834 11.950381150541768
As 16.992769576254894 11.82443765832992 14.781703671225095
As 11.157625510143989 9.856188199778334 13.216278432800147
As 16.33727049754468 12.450024353848798 12.510785772215307
As 14.018055074817722 11.570682762165768 15.243791535480218
As 10.6086625795531 13.0262402343316 15.712952875768782
As 13.83518080227291 12.49337855084008 12.951869927323186
As 13.291692733203995 14.968700283488877 13.647597463804313
As 9.556301970789821 13.583647682735824 13.55428336542891
As 9.50386638688149 11.463414965768544 12.261811244517203
As 10.663358310830066 12.000173837918652 10.134003496679519
As 10.726233683571655 11.136590701720715 7.260023937122521
As 11.11747886819299 15.202083550059179 12.504433101068372
As 11.747083435021509 14.24038365379853 10.320323174841223
As 8.678322403793723 11.787317031302427 6.4642260903517235
As 9.45221658775841 14.002288353822696 9.406018381101273
As 10.25318045389133 13.572114713867395 7.022609103898661
