20
Energy = -89.47273488 eV
As 8.960008260688232 11.084001095249215 5.206105386199006
As 10.374040832645557 12.522568646334232 6.672631751510393
As 10.907397243235826 9.193977454845031 5.513956409557793
As 12.372236202153601 11.10535006352919 6.109595639276572
As 6.979986587100247 10.957971027721877 6.51034741183284
As 7.412587123191202 11.472538676443024 8.906527200035152
As 10.057985273715053 8.608305849816388 7.714729491864677
As 9.805595694300361 11.023239069283647 8.499581743515622
As 12.275165980683745 8.228384301212127 8.728181767481914
As 13.269691400825362 10.501998631731324 8.393903252728908
As 9.335108692729339 6.327968131300121 11.814377708116433
As 6.974007749211073 6.180830904255128 11.066279567989199
As 7.542038585735941 9.087513367319431 9.833154675392871
As 5.6717808406838675 8.31394850111004 11.318322066164272
As 12.183493173706616 9.205210259522518 11.054478329120775
As 11.663525628800233 11.460385459470608 10.093407667756704
As 10.298666940709243 8.489732148082563 12.572237387787053
As 7.5660544065234046 6.372265556241765 13.509378584500988
As 8.485594566263073 10.009488584663558 11.988600581969768
As 6.848174108553591 8.837461563323208 13.477342668654485
