25
Energy = -113.94282358 eV
As 11.191362261261947 13.126312842711762 8.335930331040943
As 14.715777435639176 14.936350533699184 10.835921578116949
As 10.756236882264052 11.058250636884052 9.571738778358126
As 14.133465584256365 12.537994855738036 10.615205578326252
As 17.09495747022808 14.506730075454206 10.129726054782553
As 16.813850449617835 12.061247993622747 9.9274493348297
As 11.56827435249126 13.046989522058277 10.782016528513287
As 9.065490936186224 14.386134247569975 8.54344738996779
As 8.405355924201183 11.301890091287602 10.326234250617896
As 7.272445924997578 12.680742584681314 8.611433919545293
As 15.314810877546767 15.232069326392377 13.201221740713045
As 17.95906083632268 12.965173502636066 11.887947465301375
As 16.245041543447513 13.021032892996521 13.741265554220549
As 14.538189856159532 11.508473006096182 12.832530774553216
As 8.060294077750672 13.726118302982798 10.711563112168434
As 12.54315764217854 12.452789538070935 13.919285507664158
As 12.997695308953787 14.968150072180839 14.02353722326064
As 12.82004803352148 11.62434069154619 16.250932473413528
As 13.407733884588943 15.378614440808757 16.442786517569417
As 15.184014786356911 11.886247650184666 16.853999626425363
As 15.570007132946795 14.339310974879812 16.962062468774562
As 11.835030005425212 13.656636824993594 17.21843753582457
As 14.663077947040108 11.836936368407262 19.313242558167897
As 15.060743502819449 14.320978493136495 19.42330467514581
As 12.753037484605882 13.409644671787513 19.50793916350629
