27
Energy = -118.36860262 eV
As 16.132418649169573 10.023426445850857 9.167308061087818
As 15.478093649761275 8.750158641665116 7.163373706407237
As 15.249484763726022 7.743273486888867 9.39495068217255
As 15.670978182256617 13.964878600841272 11.29320348210108
As 17.50590022944169 15.138934179284751 12.518010353538482
As 15.549705536661374 16.40220862340639 11.696844492498299
As 13.761697364047386 9.574793637919418 8.718624606712522
As 15.266938548958077 11.003655975034954 13.187671141106476
As 13.990708316036223 13.097736613965223 12.890200809491004
As 15.949726760322422 16.159927109027347 14.14499425089456
As 14.745803423090196 14.18419290397324 15.002255328327047
As 7.997826938440925 14.435255577121946 10.429793518684445
As 13.400664004465774 9.653455981129094 13.505055402193133
As 12.37455100191123 7.71959401631828 14.175349438060842
As 11.204338972494243 15.260401926099577 12.266154849687512
As 12.857645264499682 15.509576978939766 15.994085838333774
As 12.129575026283895 13.58584541673777 17.31303059156096
As 10.3001001016155 9.129266677608358 11.479471653003928
As 8.949985449252972 16.109177364190696 11.741133719375327
As 10.998899002434491 9.88089926314494 13.765470575900455
As 10.91689288645513 16.23001426959336 14.577715191590803
As 10.072638395893437 10.97403154034642 9.826748314054404
As 10.630643254500287 13.077816068633648 13.395885382934573
As 8.090388700249914 10.192710123764149 11.120236745360048
As 9.98663571249537 13.019299258370353 16.78516715125835
As 9.052942054604573 12.492126756592246 11.50792707571533
As 9.209300633695042 14.443821564936746 14.929996645755368
