26
Energy = -115.82276408 eV
As 14.072830537058438 12.304296739826366 15.348002895156972
As 12.29939043179574 10.757455287811426 14.57407272652454
As 13.410221590192947 8.657505105879078 13.969918472330095
As 11.413052797765973 7.591627490237133 12.931291771461245
As 15.045627878849361 15.671555552518857 15.031753387678737
As 14.398212529164505 13.865367664041008 13.455194514092893
As 10.136754326516272 9.388625590750847 11.766749678753172
As 10.78618172775625 14.071313821372081 14.666025349983396
As 16.236848246521376 12.304747606654537 14.088156483361766
As 15.018307356647655 8.69618798480636 12.104979767644132
As 11.318054942743506 11.474548869467577 12.395630834664606
As 13.222729749557608 17.0590056647128 14.841940066510452
As 11.601518902092902 7.775653858875188 10.47418136661011
As 16.54024607714295 10.68364328569008 12.214217043187439
As 13.851750702391138 8.607675045123548 9.92113026033626
As 12.169804076478405 12.390516229241287 10.220125787003132
As 11.806341617201138 15.853387602490624 13.2263474528737
As 9.530547002457574 13.044819419982616 12.864571199580721
As 13.094221978985866 10.646016955647259 8.73403163951935
As 16.328952131696283 12.408361007598705 10.455023885022994
As 10.075669538049535 17.616680534298254 13.190485297557396
As 14.26798986925752 13.735921199456177 10.258160736505209
As 15.066539466736742 12.12509519149568 8.378194664860644
As 9.018881184574553 17.582879872085844 15.43913311422496
As 8.696176968571207 15.128956628853587 15.449437733198364
As 7.90174616384009 16.490424600528147 13.517231203545533
