21
Energy = -95.88462109 eV
As 15.695809755578397 13.14467234826303 14.350906674443621
As 15.243216424918268 11.386396892244443 12.659790913385347
As 16.633525460203135 11.804839177701307 16.212602030321722
As 13.265360969846204 12.390692867797904 11.552474687204791
As 14.348454997057372 12.733828704089142 16.386002035850495
As 10.876156723172954 11.456546717196195 8.780195062654139
As 10.08830500650309 13.354861078539034 10.159260142945131
As 12.826209836268186 10.326743462053406 10.26782074565078
As 14.281788939292106 9.533073003763993 14.002466055386583
As 14.682390473806008 10.275799462245216 16.318624257004714
As 11.8416756575217 9.92071415883774 14.039346041447574
As 11.701737384027544 12.316692893599505 13.450200080110541
As 7.753872137658484 13.415647956947842 9.423261014603828
As 8.17876049171511 13.866478645892412 6.978713642717951
As 11.512317761652925 8.892414699311992 11.820795174600839
As 9.165217169140146 9.741832401446318 9.224947111765944
As 7.12898995363048 11.04644347336521 8.892738882462881
As 9.480055856501444 12.245007597974269 12.291826193717064
As 9.217739378375425 9.797610933669882 11.687289943234287
As 9.882762319830935 12.201628477783055 6.402303289129094
As 7.534123434638365 11.486545178616709 6.43690615270078
