20
Energy = -87.41149756 eV
As 11.376682830073314 9.950798867185204 5.765459576141093
As 9.887873835643665 8.090719798632014 5.95741579572764
As 7.869871154449387 9.452914709655609 6.470640944965074
As 8.868098389620098 11.170449519328692 7.6407831959942145
As 13.605388254749142 9.10731655644187 6.682089412651012
As 12.87866556452111 6.844049635358918 7.433277904758795
As 12.102218481655086 10.192880461248944 8.36285634505464
As 10.883864935494998 7.96562681051384 8.47953690650202
As 6.828573321509557 12.148803367077852 8.720864032617174
As 5.567922371956938 10.085205985588232 8.863012448471107
As 6.978945732865054 8.74638056507206 10.585440270323216
As 8.085278307769322 11.025405711846654 10.732810296585672
As 10.219422054385241 7.940068238036726 12.15264527269059
As 12.649604240235494 6.783917861833062 9.925453082873458
As 4.8998368451195615 9.913886445418468 11.349223834036865
As 11.37731295717291 9.89750987449487 11.819335957033193
As 6.2140522284272475 11.837650587567767 12.221370381111614
As 13.292959813131759 9.047230004512304 10.469985335001542
As 8.097788947044405 8.74865897308844 13.125926369654325
As 8.377197275225337 11.112083568148957 13.30343017885781
