28
Energy = -125.64498571 eV
As 12.037237580277125 14.428349359576133 11.417889764022707
As 8.47412032517745 14.1057589048013 12.100796950602023
As 11.19547678155043 15.015952110664651 9.189425051577716
As 13.990334441200469 12.986507250814586 10.950382298865682
As 11.442962475576584 12.523834358454682 14.309477332564827
As 10.480686048021033 12.58615591390463 11.99127110802684
As 8.859182341211561 15.433736341905233 9.96624045955023
As 13.773416584696275 12.19543454019638 13.380955397289961
As 6.922215197304802 12.603491341705006 10.764702161105056
As 13.671830984387933 12.231577591192833 8.502658433794707
As 11.581704074682385 13.107607439608154 7.558638655213224
As 10.620684999655978 10.245147290487875 14.906317486215272
As 8.938772935880644 11.965600291688993 9.450805733927409
As 7.513523385693089 13.796312293400474 8.621256485137465
As 8.522848095674906 10.081901295067198 7.91099914365622
As 10.717380232132335 10.80612144439204 6.878647612289736
As 12.842729718528668 9.92810211691167 7.929198714188626
As 10.418854609464457 9.252024343462677 12.606901583075198
As 11.712552541266053 9.816122173566082 10.178559484638726
As 7.707889892096413 8.455607459746776 9.684259817213452
As 12.696823865416983 8.852128032441206 15.014621181832792
As 14.326357455074994 9.79822304872192 13.380269462005701
As 8.17334240585963 8.313872526320525 12.136134941398504
As 13.900873852862416 8.98370078945813 11.080868290873054
As 11.449245670730056 7.219893739940184 13.572767856902667
As 11.381387077558042 7.340250464993192 9.762288467613262
As 9.107620388447671 6.619015225944358 10.526189540423735
As 12.963522709371158 6.7311489804324856 11.651053255794741
