20
Energy = -88.78502053 eV
As 6.4373160469373705 9.916727339390516 5.953280193973513
As 8.800334926247569 10.618148189627261 5.739300377744401
As 8.645021644804148 6.894770925361989 5.967347621640315
As 8.477960184661722 5.282824417481203 7.881106061140406
As 9.994442473896388 8.803952169986308 6.833016183032128
As 8.817952161638681 12.053998707819344 8.090318871459887
As 6.393778826636413 11.765724040759949 7.6282051808817615
As 6.405533225965849 7.544272287951453 6.750201986579173
As 6.835187675187787 6.696914841783092 9.095367021360175
As 9.026389712903201 9.747378764851135 9.057535656850519
As 10.654313638206201 6.409005121420253 8.877561341590388
As 11.383203582277623 10.328255960857396 9.66551551628095
As 13.036332796429795 8.494853580528789 9.989070419708337
As 8.970813762822704 6.912913888117026 10.497017480497808
As 5.692665113258957 11.286252720031273 9.989577571051207
As 7.703786824478018 12.544846213194582 10.665676251012648
As 12.053200816493385 6.451949748254957 11.0569828280111
As 7.5707770755353305 10.215455831060343 11.166914637010706
As 11.9584917678254 9.647349337958826 11.95646152853252
As 10.453863598454808 7.695771768226094 12.45090912630327
