28
Energy = -124.2056131 eV
As 16.448027396026156 12.242270076083523 11.380482937037819
As 15.640619131797207 10.05509897468751 12.146140402581251
As 16.621269554353187 11.682085865658603 13.80679073196562
As 14.29757260564816 15.815391539261698 11.063661005558464
As 15.155505865395442 16.494094509027004 8.879453740615604
As 13.623352921224388 17.235958201693773 14.38369917526796
As 14.207728589849266 13.250738641455543 10.814314470361662
As 12.312726730138893 12.263087568435454 12.002420874267598
As 13.136828699017517 10.034728492725415 12.110718290290258
As 15.450988032274994 16.692267103224346 12.947606268848947
As 11.868246608521734 16.406626131451617 11.03008744073493
As 15.355590534396832 13.666373714045873 14.770646966987087
As 14.893353548613455 14.654956458941514 7.491297366763803
As 14.095176750655327 12.685170757498785 8.476716971977527
As 13.457323291608594 9.89917308343179 14.733257968858275
As 15.183818000640898 10.613525377652035 16.554931197560386
As 11.723930572839409 17.97611511487326 12.880159230127633
As 14.309750245452099 12.81814945781997 16.91895928693379
As 10.630606181842678 15.683134046674072 13.074153783491802
As 13.363824842853138 7.579745397084642 15.678368198320719
As 12.986653299107036 12.992354569854207 14.674529248279367
As 12.091739595786542 15.31222379486111 15.027979639285977
As 11.574226422729462 9.188052764253033 16.20618488587397
As 13.54752922101097 9.009047991959116 17.70883464017296
As 8.208972489223013 10.988101914429928 10.637653527709563
As 7.560067137507844 12.633144328238046 12.345702979067987
As 6.03253085760442 12.119990190079118 10.491168226039852
As 6.431092357103571 10.45031297693172 12.248725396979465
