25
Energy = -110.33923404 eV
As 9.73405881322732 11.089002082934512 15.796091550476456
As 8.603392725066016 9.232344811064195 14.520496906463597
As 11.972883117187049 10.078208222589105 15.376810088977956
As 14.518279807666971 11.31922670879342 12.954432331541621
As 10.940675303984492 8.40014825848199 14.126148778070561
As 14.020766841447916 8.853084045385506 12.673107452069651
As 9.614338783752713 12.526211735456247 13.806860506619064
As 8.40865971814781 10.884332069463326 12.698769166816627
As 12.46133758854946 11.938750749042839 11.671141544019559
As 14.592628704753691 11.594511320940786 10.45988857505988
As 11.742388686939954 9.489695532766222 11.73721701833187
As 14.833170866882599 9.08372548832779 10.291706529513457
As 6.430447032685325 11.84291175146129 7.2199289227238275
As 6.5501304963464415 9.336591554564222 7.381871667964371
As 8.655992032308866 12.884710431967443 7.495996233315011
As 10.467887560022914 12.006726431576011 6.00848419612236
As 8.875281044011812 8.457568089251819 7.5265764975007245
As 10.573704326215081 9.48544807925799 6.037217961551947
As 6.430903158667274 12.03571456822751 9.696713503842089
As 6.760791605104514 9.58667507036107 9.911497718732365
As 9.663816242113336 11.968730544245764 9.580869238607551
As 11.797242945484387 12.165910848992814 8.181491080976043
As 9.294613289002248 9.50121873106747 9.742316672772446
As 12.5399912466308 9.866282923539805 7.5653824704604755
As 12.56260916981761 8.418261056257773 9.584974493486769
