23
Energy = -103.6953312 eV
As 18.594116194716943 15.72260448590915 14.49703040670779
As 18.069028006294097 14.23293837377803 16.39911306560024
As 20.222772625302852 13.064246549107839 15.64602046979239
As 16.27911820522871 13.858037710322892 11.937226099707843
As 17.020371856138826 12.232491644107814 15.395117668524628
As 14.81756875897347 15.294245858444924 14.739360716590134
As 19.944984715232064 14.006804005718525 13.343329183731221
As 18.94532060975267 11.81692660882755 13.893384910101506
As 15.095993747018987 12.937401103556034 13.94175966989127
As 13.158555831999939 15.863854131099195 12.968179886037829
As 16.550304633726416 16.075345624022965 13.087606275872352
As 14.16997139879578 14.743633217171887 10.961751542535959
As 9.976844989330141 14.482845256285474 11.684850540891357
As 6.166532266001815 12.346822693541084 15.202233712601304
As 11.212777766411527 14.562820335806359 13.797773975060528
As 13.267927786566496 12.485227268196283 10.396739850630883
As 10.799545840170449 12.556670012578824 10.33376985771639
As 7.249689464060525 14.330928548449226 14.283354902959832
As 11.709720188646559 12.18395880501784 14.163526934463796
As 11.961168651588734 11.078064812357747 11.981484751048244
As 8.203949117139173 12.92434080698671 12.40295528489038
As 8.407467684631838 12.921550562078762 15.972183523194994
As 9.33748708019755 11.439459004560252 14.132464189375067
