27
Energy = -119.24181148 eV
As 9.381403102660013 13.24587022723841 16.93359104336481
As 11.547402013911666 17.530782169177062 10.89821435933782
As 15.854173340577603 11.884953290644093 10.512507893199
As 10.871755678196655 16.14675722154631 13.732567593981873
As 9.633545110986654 16.08385072560991 11.521328988783887
As 16.284501128450714 12.702495708125706 14.813282265405189
As 17.415877155074625 10.528578695984173 14.621459569652558
As 11.2391381109673 9.040094625559854 9.140821493568122
As 13.092260210177228 16.614732906069978 12.704310056003498
As 12.617631302941243 15.008590698234384 15.765682209594651
As 15.214170245591905 13.755195226230468 8.99508017414798
As 9.940034868996591 18.23293165965138 12.66907816068649
As 14.140152312719527 8.592620068223184 11.287752046099802
As 15.808839883612347 14.216259629078833 11.390737644010414
As 13.373247492327968 14.226818055702791 12.010636990590893
As 17.154988258185522 11.58591954073591 16.826019411263125
As 11.863135596600396 13.056820437606994 17.12647688959034
As 11.745585193524253 7.920843482802009 11.321504715204984
As 12.326131204676772 15.335630494292445 18.00132683419093
As 8.966811078019099 12.341008762285465 19.20678781689979
As 11.165703036022984 12.838663985582677 9.201146313858901
As 8.95053934906111 10.854535245181314 17.503942868780626
As 18.70968931428562 12.541063139921485 15.178235261429995
As 12.740226907563743 11.006589003736819 8.888967356330362
As 13.10163948493726 7.40353014805058 9.34510109140497
As 12.893617377679508 14.557720445216 9.574634577583582
As 13.618625889653176 11.022902831513575 11.20441477019139
