22
Energy = -98.42217039 eV
As 16.560644599960153 10.7109439019163 10.897202834914845
As 16.172937054633437 9.349130102357224 8.877741091798454
As 15.920097870417692 11.820530192270256 8.732752564320005
As 14.668194543790307 9.127207492233453 10.847713129074124
As 14.75707482207967 14.97459565132881 11.267873971820547
As 13.48780442324062 12.030473896911746 8.576904285375093
As 13.263151179526607 16.012029839018766 12.968193580079221
As 14.123270842377718 13.706788090049887 13.280473863837386
As 12.803099690326846 10.758098882463777 10.619480787049618
As 13.203499232211763 14.396285786995001 9.427041240809862
As 10.93254657546849 9.952255207223258 14.324098608452578
As 12.01766733171675 12.526542764773732 12.681623014282001
As 9.72786539627731 10.578312127119107 12.233245676784259
As 11.195604065230924 13.756912521263946 10.66711982739163
As 9.89585216665903 11.337005788032831 16.080194070623055
As 10.730029553264973 9.54342603066826 10.258806015802906
As 9.287684476840262 8.919390110722606 15.900869514081595
As 10.899786190290575 15.703579847219144 12.151068653860412
As 7.3881453323150845 10.845005771741237 12.966774799812928
As 10.182388932341699 13.97277128794684 13.897414440118448
As 8.647531804350209 12.933649964935793 12.251808750994321
As 7.599260181383935 10.666733684322784 15.408526437533771
