27
Energy = -120.83547834 eV
As 11.62112172610846 14.206452556786292 6.888526856285654
As 13.300225011740162 12.432458683132658 7.541590418724887
As 10.99630542655319 11.833829380284493 6.987230617129469
As 11.077076243609216 14.735199829943351 9.31949065283003
As 13.210539103003395 13.524958484593487 9.82274393049518
As 7.446840580812153 13.747463493863112 8.92361891961799
As 9.670777838933692 12.691736450352888 9.312022657719933
As 14.409949845213239 10.315393789912571 10.02847576887286
As 8.146728776382218 13.316657525939643 11.261594060665056
As 12.445364937034766 11.488015039916045 11.03885017564721
As 9.60448825423836 9.153510740053678 9.638275981005608
As 15.71553169265709 10.2940250443657 12.164039082543402
As 6.402111962980861 11.90501131050381 10.249507485817832
As 13.730459165959243 7.967282897788175 9.626008537030692
As 7.2121503927201775 9.735975896343945 9.316361867774562
As 13.795755629276073 11.677975677293308 13.137689794913042
As 14.32451934935183 6.692230304204694 11.67898221090233
As 10.08884872945589 14.698347393461667 13.93551336550912
As 14.897142036452173 8.348323150352556 13.461829825854315
As 7.90520985053058 8.263834437683787 11.204526371507804
As 9.523789241241396 10.030725610102236 11.94327485978543
As 11.951223051119168 7.044383731322423 11.10402840089539
As 10.984812993395627 12.479308864228049 14.513748619856292
As 10.687819252319068 14.174207343734652 16.26455771768609
As 12.868763327144611 9.590487579997074 14.216419025676588
As 11.084022617995705 8.350152001722583 13.015954440450004
As 8.716743031480712 13.120372849824738 15.223458422511184
