26
Energy = -116.4660607 eV
As 8.407569242170728 6.896698161954178 14.790572670120472
As 9.559096479020093 8.564028591540655 16.118527397016123
As 8.623665105661832 7.711066085544855 12.536579194376014
As 8.649464907650522 10.709051134790514 15.22029804356419
As 10.75603383591824 9.02050367083176 12.485932700082323
As 11.649232769732311 8.969641923655661 14.825124917132737
As 11.06560577105983 11.27327975569816 15.63038595567504
As 9.854283196384294 13.195292240882326 12.533610769983975
As 11.923458154460798 12.71357920085604 13.767214481099014
As 8.451739243945523 11.776959117184377 9.229190168242749
As 15.002909410518718 9.576068078511694 10.484948617575055
As 8.633650181582198 10.210403559603092 12.767143622620381
As 13.263846234166975 11.198364425879063 10.989479006011884
As 11.00122223466694 15.292745541367763 11.834453317232878
As 8.402151900063867 9.391909134127223 8.656794217853417
As 15.518820408960812 9.778539745501043 8.14184235404177
As 10.667124564874207 14.821946540658283 14.234545806950978
As 6.297884902162101 10.647191157142142 8.849684231535102
As 14.83457767125305 13.010332652285658 11.571788060772105
As 12.255602131035792 12.008645150234365 8.878879544305999
As 13.400065809254077 15.03602955778955 11.170532565755279
As 13.726341051052628 11.121244285016477 7.075266149993284
As 7.817014511101314 11.075742417553238 6.960321363700275
As 15.941116970117434 12.167153526665327 7.524856484743135
As 15.5216951772727 13.862317394862105 9.304285980447421
As 13.141669580659265 14.337108394610354 8.783583823914011
