28
Energy = -124.18422371 eV
As 9.097147542723201 11.495148676056726 15.98477045650086
As 12.174946880530191 16.329093973982776 10.136912302930893
As 12.849399105278968 13.186622392157611 12.449715499617305
As 15.453073560474369 12.12614415033895 14.925755873789697
As 9.827904689414483 8.064246637706756 13.404589907673648
As 15.523431310200031 11.517944138427252 12.521367067704006
As 14.468748468637715 17.043170928900786 10.608071325023113
As 11.483812913230441 8.429351086850868 15.169200686952285
As 10.003598515597664 12.956816622397163 14.474036893063579
As 13.39579000545125 12.475402787215922 9.81465367625919
As 17.29383105190984 13.800140321622965 18.099504931967743
As 12.71784573325167 16.84601986419178 13.926279132341088
As 14.664230084480637 15.454126483638449 14.482758348557853
As 16.618092761505213 14.425389513759981 20.379584579442415
As 16.58900992526041 16.10276265204765 18.58092217936179
As 12.946897670932199 14.547085274338857 8.542562179803904
As 17.1647761139603 16.4384606844923 12.874473706299153
As 14.71467056932682 9.949617952168712 13.999874718771741
As 13.317812859625983 13.47771270272099 14.939125940240503
As 16.243325442399055 18.510429997035164 13.27164259383702
As 11.49645681231905 15.326034090261489 12.319050222563865
As 11.819104937868664 9.541064428491943 12.941210459380951
As 13.9015893850968 18.544046709802966 12.447715924755151
As 10.76398387341692 11.758658028799507 12.495841785900687
As 14.934707305230669 14.287678114651955 18.589737708051878
As 15.318447197084339 15.095517662148985 11.886114425780386
As 9.11881651904066 9.081259116167757 15.57271016799205
As 15.22973972284952 13.85568654473768 9.339819425272115
