26
Energy = -117.4339369 eV
As 12.95079290339699 17.05587737140333 7.992150452018948
As 14.900995828720918 15.6829717835209 8.66825630206712
As 13.854796566657965 17.22862342433865 10.295488648362724
As 11.571388682611376 16.35599173055773 9.92851889077069
As 13.992906023414024 13.415177053663278 9.043250114474732
As 11.679664653379854 13.891275929586783 9.860887170682524
As 15.366340799157776 12.953221704618887 11.060371335657743
As 10.192123270277962 8.283758175889748 11.550122937419737
As 9.669009559025021 10.530581901809445 10.600719026794573
As 11.79825284503344 13.486103133395803 12.313630805226435
As 14.07652096107388 14.357250333175356 12.614004365962657
As 14.512134609120498 10.644334310703918 11.158991388960768
As 12.021154261996799 11.095223488958396 11.552767681160052
As 14.470956265349194 9.69717232845203 13.381106093293983
As 9.109996397328317 15.581256792429562 15.38026022185042
As 11.703335312226146 9.391273508271665 13.30213649237982
As 7.745098846041654 13.775797903558779 14.425119400261616
As 14.633263102604749 13.544078167713744 14.9232116881522
As 13.751059651808935 11.276949336507316 15.182857825486717
As 7.810188429392313 14.110618270976351 16.860242392903864
As 9.7870884738262 13.236825600807295 15.67979862804652
As 9.012765637948258 9.960727011329066 12.837580929807267
As 17.542183561085373 10.760044258358095 15.120849882200382
As 17.084350160944314 13.169812719509705 14.746002635289075
As 15.597895646112832 10.458371482039103 16.63311191172045
As 17.261434273532945 12.27669291514557 17.05116191393044
