21
Energy = -93.35328884 eV
As 16.78130563074669 13.412145578354012 10.885199818085281
As 17.95578011214238 11.24378630393964 10.60903637527934
As 13.957188269973688 15.35202746624691 10.905389227339269
As 14.607306588118847 13.350442931755643 9.674228641663937
As 16.365296715105853 9.36226255563854 10.540182301024634
As 16.293113440739404 13.234113135922447 13.276728830556863
As 17.630457652165116 9.91133932994321 12.665381410856595
As 14.170592907703695 14.599483206000077 13.258341421325838
As 11.281293249649076 16.150101151960925 17.186825151820074
As 15.572344207877121 10.896098851686446 13.729794777241313
As 11.89154637917249 13.999160711727669 16.378189622809884
As 14.30756589715449 9.94341097268069 11.820284485953403
As 13.013396979246698 11.78278517096402 10.73749729450343
As 8.659104308536698 11.135618511491643 14.140469554255228
As 12.607577995758412 12.694656890859832 13.045573792526586
As 10.194182521436494 14.603611876825502 14.742071295093895
As 9.769367059526337 16.87458215796489 15.52687631869997
As 10.699318042434648 14.14044225669663 12.344419234708747
As 9.134473050969582 12.25672558436845 11.968011627800871
As 8.250091982058361 13.239482634471988 15.374101362125836
As 7.0713317141800305 12.805385981199633 13.230227310100178
