23
Energy = -102.5927556 eV
As 18.493578974642183 13.815946208509224 16.228866166611045
As 17.004027729034828 15.461220177885062 15.147516858515413
As 17.29006498041602 13.018121079071959 18.10399701378982
As 16.36529729588791 13.116145624060918 14.594524066462
As 15.931256738630907 16.51923658147454 17.09280883775959
As 15.328424253070759 11.81885838375169 16.474513351288245
As 15.511803822410867 14.664587574408696 18.640141628996695
As 13.731003261386505 16.885309668508672 16.051050640646945
As 13.814418203337068 13.401475588641842 13.948680712756222
As 14.877857875351099 10.793938815598239 12.778441236891538
As 13.457605234668472 11.150382277648491 14.759275694679264
As 13.652951393296988 12.482953894083632 11.500535638516112
As 13.661364220465794 13.313331935464536 17.604281592801318
As 12.658421945940779 14.77774468959038 15.877493154111525
As 11.336396903210106 11.662482725732902 11.9178947352497
As 11.384220264738056 10.060914948705905 9.996614729846554
As 10.1788366483517 13.604339828796375 10.951272637835206
As 8.195186102842378 12.283043202283197 10.40945854248599
As 11.242309761390812 13.751127216368893 8.747999248757209
As 9.13987417089552 10.445529091636285 9.00003828172871
As 11.125120531145491 11.412209976450308 7.931274362266223
As 7.405668423464271 13.617237348431994 8.483259505539738
As 9.244061726404494 14.532620506402862 7.498154989378615
