21
Energy = -94.5752098 eV
As 9.116199163238136 14.984560265100425 8.405738523450696
As 11.551610057621092 15.333490329604574 7.957066414371576
As 11.785124386803343 16.594259942438676 10.16250881580843
As 10.699231546480242 13.126377612972888 8.537410826017851
As 11.01477815749286 15.05019831418867 11.885652565390542
As 8.676745046547207 12.26313631209301 11.660284104640375
As 11.124935109954974 12.75383870478437 10.981114497740897
As 8.37659083956138 12.897817513230454 14.019123810657753
As 9.334274369209076 16.265326849592807 10.603502488870452
As 8.554003338233208 10.501756301545257 13.397342681738905
As 13.52437633475083 12.595536623005152 12.173541085210605
As 10.241356355870408 11.501813636330843 14.927701416986887
As 12.27962676725149 9.487232077567409 10.311195636238965
As 11.357661736440809 8.56218316020559 12.429225422509235
As 14.357081658984702 10.627396365857638 10.943358157573655
As 12.715144123683318 11.710213105981989 14.345276592508466
As 13.482463534591457 7.3297522105419 9.88127093120498
As 12.937820803980886 9.243635773468041 14.182864595671694
As 12.547825784355208 6.392816625495368 12.032761276457325
As 15.041627867943102 9.339955512118133 12.922445722523399
As 14.924517772700135 7.081697519570343 11.883609190121016
