27
Energy = -120.00635614 eV
As 13.771795001077912 14.300664807463024 7.538515788741113
As 13.183570099223237 10.41127264251591 8.30081604483225
As 15.062630137397276 11.364794260098337 9.579693057645898
As 13.704072405382156 16.29735738782588 8.867285839853048
As 11.449060511922712 13.859817654369145 8.204594891239209
As 14.322018662922787 9.02493227372958 10.042669150714717
As 11.677251046139515 11.850701453328407 9.666754354180801
As 13.594884647520745 12.098603719068835 11.584866149402481
As 13.907537643903877 14.764114857654317 11.005051648545384
As 11.69110728280531 15.467917834896962 10.119661550336229
As 9.475487505468793 10.716696641835007 10.109417818378779
As 13.01107109541133 9.522977996852884 12.127434540339477
As 10.790327797893383 8.786174334917797 11.070903050041
As 14.915506711829563 10.279158717113571 14.369893478806834
As 9.825957610147585 8.421733633858526 13.343444826847499
As 9.353994405850788 11.528872354165381 12.457934420566845
As 15.57624653384707 12.30091167383648 13.270348304890296
As 13.134963990614821 15.469275461338878 13.326819401356053
As 11.034791508262842 10.477345747105083 14.26095484260834
As 7.834351134193675 9.967171599948077 13.617757213305259
As 11.778569098697156 13.381539401656386 13.436712216482803
As 13.145365903201073 10.747829399922676 15.918877992856745
As 14.72858092985636 14.10381897555062 14.740687672455627
As 8.412864428034469 13.235478965373229 15.417023118906826
As 9.243128544096095 13.890132930869958 13.253468145321524
As 8.952981060901903 10.872621523669379 15.69782504302603
As 12.67057400275453 13.166703095313869 15.790627812850309
