20
Energy = -88.95101013 eV
As 11.748042387923718 9.189681479153904 6.138170097927596
As 10.57006779378682 11.132872600666117 5.082550385100351
As 9.46816619606065 8.112043233956149 6.32423168563546
As 8.430555838866281 10.391717805775682 6.202740596573513
As 10.060458035177946 7.128723395466861 8.530887013229142
As 6.3589165745397676 8.716098809755001 8.48132815597715
As 11.648195397480706 11.423765800595591 7.287609879124045
As 6.013081290115441 11.122532787622188 8.002500692423123
As 9.549068091651009 10.798131332392597 8.498984971541185
As 8.439614561603646 5.4543196756755945 9.615560434542902
As 8.336767933601083 8.794849166032563 10.154015373198064
As 12.112373492275365 8.082415657853637 9.68616950001547
As 7.7632692424437435 12.338408065609327 9.357215764116978
As 11.525367035971126 10.299001980057705 10.521328077719271
As 5.161224366522165 10.121422549961439 10.146153617559879
As 9.388752847187648 5.541254523951106 11.878959111034169
As 11.37760250369424 7.144979192121967 11.923239758545632
As 7.300689254281742 6.775415036809038 11.356832798287833
As 7.282351245489674 10.84732618133907 11.306532955679181
As 10.068600713847095 9.188205527723444 12.108153934287605
