28
Energy = -124.25468419 eV
As 17.557671524623817 11.156963969933448 13.465209304263514
As 15.01984653792847 13.293294642543916 6.53979985494769
As 18.39411991391771 12.456695137838828 11.49769528041364
As 16.128153904431784 11.51437344493412 11.432856724898103
As 13.58171053563918 12.647657627765051 8.426734699421784
As 16.96976366191076 13.34690031466368 14.524199670455435
As 13.335942382901072 14.868807307897052 7.404993559467562
As 15.336478335906536 14.354534372530294 8.737363160725444
As 14.665837102786481 12.864567672319344 15.354046431762436
As 16.428617175341884 13.89734081238864 12.123078653814726
As 13.056845444131165 13.744339119597223 13.082765936742966
As 12.684518720437362 11.381390967040323 12.016078743876097
As 15.051548515473876 12.666661989300497 17.809673402347624
As 10.297636504577008 12.008178143175504 12.177211777131133
As 12.197987735410608 10.235242870057865 14.22582067735507
As 14.006573786376428 14.71902747094093 18.731279580289755
As 11.320324822626548 12.543157638424505 14.546635731357771
As 13.787517372528585 18.58170361883533 14.72715761809541
As 10.984023973409894 14.333760054434826 11.683924609431928
As 12.860487169854958 16.788108900529345 13.313856272333387
As 14.31095429504429 10.378967721939123 15.50804835366195
As 13.491075522445875 17.97256760519443 16.927615066594303
As 13.33898299596023 15.563640685847838 16.428962147771067
As 10.78986149701964 16.811144983509 14.465921129653655
As 9.461968849274864 15.23033297356103 13.35580969607935
As 13.216144619496816 11.012368682660478 17.695456708284592
As 11.643438551804827 14.664409790455915 17.992321143934294
As 11.233502003843606 12.393275569415648 17.07826269533159
