29
Energy = -129.98343343 eV
As 18.588693741886 17.703114469441644 9.310715511313534
As 17.975654085450806 15.306082882794007 9.200253381667473
As 16.58227598308595 16.999114312333372 8.051670061481087
As 16.869325879412184 14.778596569199113 11.365673978673863
As 16.337599800880838 18.3977348794644 10.08094205009521
As 15.059633231556822 8.661284536204732 13.558194755459192
As 15.273084374275967 8.540360018524039 11.100148618652282
As 13.750703995116503 7.046788149384909 12.245827495935604
As 15.745543029747587 16.872155779168995 11.94803050298036
As 14.69029764679722 14.077186850034778 14.202005839146649
As 13.764271640006438 12.348988605878862 15.534424901794047
As 14.575902140285583 15.213362581408534 10.536333204232813
As 13.313091880849468 10.187481243852119 10.10982371430283
As 13.490277810212923 10.708230354464511 13.740761793709861
As 14.32359786305109 11.854174545545408 11.718676381137275
As 13.174567364760172 13.999628848947252 12.254377636425323
As 11.854752919604707 8.637650908968313 11.378130266842867
As 11.138956966758569 9.798507317346816 13.418922266011391
As 9.691139647067692 8.797145361184391 9.874178956925002
As 10.579927345308654 11.867817357432576 12.194624829787854
As 10.740858756421758 10.65046718588596 8.799534633209605
As 8.942228749825988 11.073286232488739 10.454903769967698
As 10.058920021760995 11.86785573169435 15.873743274545664
As 9.211261800329654 13.108943556306306 13.9189438418825
As 9.726815752467108 13.641221568286836 17.586057484954672
As 7.794618758424962 11.409077148034186 15.032147706953857
As 7.858103507577215 15.03033653802258 16.757549790639874
As 7.440652708213598 13.312810880236277 18.48533704907386
As 6.415973740623727 13.079326729225281 16.23679744395686
