29
Energy = -127.43415272 eV
As 14.552950051845217 15.531225572080466 9.070941871132044
As 15.230783263446316 17.0833409607843 10.883675085588342
As 13.089655320018995 12.102494866360033 8.039591538767326
As 16.507367379746185 11.971486463415962 10.17675850239718
As 18.255688546015616 12.07360732989019 15.493592972580029
As 14.281308662295693 13.12499907303564 9.837380493101653
As 12.844767876883912 16.828970694589295 10.291148011865342
As 12.76541249501237 17.21050193987814 14.118134923923478
As 15.565954648021757 9.744718985863537 9.861108807268542
As 14.419292899816629 18.709640784293317 15.151961343968047
As 17.611263777840165 10.255201785284095 14.595352898843062
As 13.73409794736155 15.714771950006002 12.32539643227692
As 15.488747281899169 10.743378958629803 12.142488933325003
As 13.31031277756625 9.901960917411037 8.81219638435145
As 13.27502830283966 15.761746571669907 16.057550608772093
As 13.821782417330478 17.862783607375587 17.218345967774344
As 13.599583917648296 12.395270787446261 12.176025563012622
As 11.040143596683967 14.161023881583247 14.176722871112634
As 12.266758478535364 12.64463076802741 15.692966235790726
As 11.070020742273217 14.64940564697576 16.605590215325833
As 11.653724575809969 10.823295001932069 12.097625647334837
As 11.892610656556757 9.502503912963668 14.161632550450932
As 11.213875340186858 8.772680269759684 10.915313409019639
As 9.37539941116418 11.846833042417979 11.817636661434658
As 8.760386798841513 13.279904836899215 13.819285142072623
As 10.801037997148331 10.672871591193509 16.060718244424795
As 10.067407147685481 8.247377132927394 13.076636292276374
As 8.51354686505062 11.301706179768082 15.296210673657631
As 8.26296432172499 10.057639735871005 13.116552165858963
