27
Energy = -119.26640168 eV
As 18.272332506178174 15.083566211923344 15.147651066795087
As 13.654175051488062 8.337684402502818 15.340046396274806
As 17.15948226906155 12.351306298641033 10.935365466558734
As 12.662599725406208 6.332027555942152 16.361596910562522
As 17.66243743794416 14.359794447309492 12.93032152176198
As 17.01776291950759 14.408084218972364 9.619892303532422
As 15.172978913777365 11.148667619077703 11.083377361361281
As 16.19412027434561 15.957582277833419 14.166465468007043
As 18.104931750922923 15.867009525366948 11.019588284569659
As 11.699532846539274 7.2708116166937025 14.303525238272949
As 14.394006589415987 14.200890472416477 14.456525275869573
As 12.17345429401695 13.05039294104027 9.152953192484258
As 11.457135838635441 8.472488239047577 16.433129282946535
As 11.785815487028124 10.702236613194545 9.877877042595653
As 13.418941000672381 12.84539359734672 11.24400886066747
As 11.754328621984492 11.31948380569395 12.252371025163526
As 13.59706542927257 15.109155710010917 12.275097731211613
As 12.720769833136865 15.340024358742319 15.93273556526935
As 14.164516214626733 15.276274444287353 17.908972546372063
As 15.834815489980326 17.053283660510598 17.69585052390621
As 14.946143253207122 18.635456616915192 15.930491752834703
As 12.823253555287229 17.672284128579957 15.192085360340993
As 11.097817930872061 15.275228268157152 12.396965696653615
As 10.25718651427435 14.29645486589238 10.246390378589398
As 9.957764145421146 13.06300646045131 12.358709810048884
As 13.747246365359722 17.395625170450764 19.054262241325887
As 12.845038592826139 18.96903807305592 17.26954913652651
