25
Energy = -113.82588436 eV
As 14.149340975602112 14.076645319844788 11.230906343741388
As 11.691900569211667 14.395722957504631 11.09551760657902
As 16.185237018176352 10.982155648877905 10.819993004857285
As 13.835726451706053 11.622089086541216 11.235694456349364
As 11.238712588550744 16.15666684792119 12.775954702999632
As 13.55292922953742 16.721892014226416 13.555299709651399
As 15.642146951830554 8.611709162362477 10.386593065805602
As 14.623055238547293 14.4894460812818 13.60992729632549
As 17.624335319461025 7.411411162374516 11.259884693567827
As 17.320983516784043 10.926228745035116 13.01815716398515
As 12.879561723891939 16.680948504684956 15.964525323713758
As 17.502937569798416 8.49966532436536 13.490447472090615
As 13.482975374151765 11.046017929119397 13.650540486577729
As 15.50730427467989 7.382878775942788 12.537923065698061
As 10.833248990837186 13.774860063512895 13.330323960757735
As 12.818339218954817 13.217170608772442 14.683348753247055
As 15.648841086039768 11.376444838169528 14.72752581034143
As 15.223433013061662 16.918831965471206 16.908753675183632
As 15.072650452768913 19.12746860519488 15.808863699773147
As 12.62405883700566 19.206957202301286 16.153776606594583
As 14.349472705250514 17.475760849674966 19.13137789445371
As 12.527776143696608 19.10452484685315 18.59991219528325
As 15.949209792973477 20.668674982679324 17.5387327302623
As 15.90769716290021 19.373659093471325 19.642999833124815
As 14.071862212874795 21.0159058021095 19.10675686732873
