27
Energy = -118.94718561 eV
As 12.368513043283516 10.365996582223284 14.275346378229136
As 10.48566736703203 13.319574532526959 12.587935646945073
As 12.408956014854175 11.807919203834611 12.257427431881949
As 13.537798913857056 9.727703612635988 7.379962415856282
As 15.844959817178202 10.32971622573653 17.45766339055214
As 14.336356687724965 11.158525689047414 8.729182375734124
As 14.596207302516238 17.67618818518172 10.76909649340254
As 13.470123493264369 15.545858855108307 10.184710933861881
As 12.249281521159924 17.25382832669829 12.492570099723439
As 12.77972916556618 12.101635329524262 16.008960721303175
As 16.35321671444756 12.656517742111212 16.735325931927346
As 10.0799188060219 11.129002499022652 11.223573901005778
As 14.972259119811214 14.847889891933045 12.067773084125132
As 9.974529562137514 10.266752278383173 14.888525900640241
As 9.065895422640686 9.62118418272455 12.690387124946644
As 16.794993786938896 16.880329521361528 9.712526233836355
As 13.472296020154733 10.82050188523041 18.00014972939692
As 17.08240888148442 14.661616917467475 10.720385010885336
As 11.903523003264498 15.488959758774767 15.815722678722821
As 15.64675018288941 14.897512118443727 8.742235974557227
As 10.728272867984952 13.456059235517296 16.575179949786396
As 9.33930057234381 12.641499133808946 14.680819944393205
As 14.55123788812368 17.05226290020094 13.258251625590527
As 15.308449371751518 12.221636477069211 18.946206241481143
As 15.018696112039372 12.653765446322193 13.198144579627062
As 10.763185596280838 15.80887300555617 13.786535348756138
As 14.573438521405206 13.729509824193986 15.339358304638875
