24
Energy = -108.42713854 eV
As 15.440217393316251 11.207835686075178 9.607305722211553
As 17.020082996280713 11.203118251720856 11.526574488789983
As 15.681117224882026 14.538512065443811 10.670229105292321
As 16.581248928326023 13.392694983687072 12.6521119565154
As 14.129444063668318 9.165849895939292 10.062314616958387
As 15.514957009725636 7.764155476327036 11.592152283268069
As 13.786242468896459 13.017070809544652 10.082983460558355
As 16.00536461853952 9.63338084522518 13.140199489547848
As 14.49691467509662 16.3206623023895 11.870186964077648
As 13.902370719218245 15.460283547031288 13.91561639161319
As 13.66117825153102 9.16994042286703 12.489674146499803
As 14.527159131689348 13.079558250504551 13.956060443313092
As 12.091619990194294 11.414202250341798 17.624325084114965
As 12.850791393429496 12.312083512914993 12.248623649275467
As 10.101368712205606 14.563805394541907 8.733863786364822
As 11.150099670177257 15.5784927586066 10.701843470594277
As 10.491725168184576 10.04179798009045 18.8880976818081
As 10.204174145573605 10.344943152147794 16.467518887844054
As 11.056253974992483 14.041876849964154 12.616482528599146
As 9.80189813059755 12.22422485289962 17.998052527934053
As 8.920052284113428 12.491620478658467 9.557393180116705
As 8.76268957049973 15.986968406868233 10.298273495153841
As 9.303901919724426 12.44931057880446 11.977522651967963
As 7.533325079014905 13.892973632005404 11.100875805084868
