29
Energy = -130.44308511 eV
As 11.10185547757524 9.660580699393636 9.478801324240942
As 9.162126935975392 11.20892910370123 9.16202927332629
As 12.194466475988722 11.672644081638596 8.505834582375524
As 10.9808499241371 9.957062525643128 11.97214412372299
As 8.596757533296188 14.150226342555642 11.559160962867642
As 7.722213580448064 10.669419207244314 11.076150122554283
As 13.805689838035834 11.67938088173653 11.704321712181672
As 10.298790171745031 11.289227921547182 17.57193845464276
As 13.034611898782304 15.31707126472579 10.400588721974144
As 6.522650885318786 12.848864006704899 11.247552172371064
As 10.268629442488262 10.132675830216492 15.342229720545136
As 14.323186097833215 17.373203919966965 11.107404776258955
As 16.586408046078347 17.016150785324154 10.291638800532795
As 12.802043312302954 10.784720433632444 17.828336845042745
As 13.840306938847613 15.563560159958863 12.735513258334882
As 8.11024615061522 12.237705401879223 13.035483716171994
As 16.120549753889737 14.644956483277136 12.832626718587802
As 13.075045459827754 12.747689486793679 16.350812733937058
As 16.855201474098365 14.618111889960835 10.472185878409046
As 14.833361905971858 14.202254864404058 9.101684709008756
As 10.56640446110246 13.18775938941799 9.964414680095786
As 11.433732865085886 12.432895355391457 12.163416155288441
As 15.810864867836449 12.185147405936354 13.028068166217768
As 14.966746321521967 11.567814835152532 15.27285809698382
As 10.754278023534274 12.548456116623452 15.44743556555204
As 14.502405103866067 11.725479716044045 9.351264339571912
As 12.325127545346659 9.00131330029507 16.15258511777231
As 13.425928372389066 9.304303012920006 12.189006357700036
As 14.243595181472001 9.291550724051538 14.587920481793526
