25
Energy = -110.078861 eV
As 9.452026324613795 9.211114216277197 4.859933049017764
As 10.012461375478981 11.545890875783279 5.566056080423291
As 7.694599018158197 8.411093542333766 6.52943583192134
As 7.20677239260774 10.491580621945923 7.663388029366084
As 12.854181329240419 9.27504149755197 6.822887170782082
As 12.116088202563613 11.539760765802603 6.97233734538007
As 10.256198549360613 8.294348506917055 7.052647723103618
As 9.864369567287392 10.644792029293455 7.909709253309358
As 8.290417953602741 7.74325723832326 10.236219042562068
As 13.948189378776357 9.253717792756744 9.00521530434281
As 6.7114838285688645 9.779455268347217 10.005641677532642
As 11.04423435659686 13.21979871515896 10.782746455380616
As 7.576373629272203 12.099654344475542 10.28411869874565
As 10.698105368212067 7.180679703388995 9.943958334368885
As 9.370653840058399 14.518632425443508 12.157151917912987
As 9.55461520083221 6.6345023601404804 12.102050990042505
As 7.506368878315278 12.992510245185178 12.59412142481354
As 12.041310191959267 9.239856036346044 10.556139566549216
As 9.80344103308272 11.026351078516555 10.779900806853007
As 13.117306910335449 8.623686022257976 12.711646683134925
As 11.291694410708091 13.074280743786932 13.255710757734704
As 11.132985309213533 7.542955446800303 13.77210124322554
As 9.442312532747142 11.407628538937479 13.32126193997842
As 12.553521518481592 10.57113273853099 14.176751539441753
As 10.431644600785607 9.649634946557757 14.910224834936436
