29
Energy = -127.78612414 eV
As 17.4948321544677 13.40867788573137 17.416232867787038
As 15.286398613033349 14.080212383370808 18.24058385812199
As 17.39187794283228 13.770987806662758 13.526369493051533
As 16.539745581258938 15.61304396537495 16.73546093509532
As 16.200922339656767 12.019276583584686 12.304112675166577
As 17.166904435928505 13.973684228237003 11.057169186531066
As 15.416455434057202 12.596295746420173 16.230739154483096
As 13.457711066059117 10.294709152460316 13.552900124553261
As 15.328669324284414 14.595044333249746 14.73581474232058
As 11.072970190675022 10.862629076870084 17.023570677847733
As 10.305870936388756 15.060441523656552 16.05111876915135
As 12.53795156453511 11.909371042153277 15.15524741316623
As 8.922969790413012 11.326692590441475 15.876989715306491
As 13.680456496727247 12.553107583254512 12.39130633252899
As 9.851695481509934 12.970228145260188 17.4600205245661
As 12.655654062086187 15.593232543626428 15.395075605364312
As 11.781500407413258 9.34709905223339 12.058995418348493
As 14.836629555306672 14.739319625296671 10.643014607986114
As 10.338006095102925 12.235966545054369 14.016921825187652
As 14.558238061607637 16.65973978823284 9.122369652462357
As 14.33161991367374 13.408453241943391 8.61492818473979
As 9.961214483049691 10.956834851680542 11.930837586723772
As 12.282696486551282 15.018596729954371 13.136401368883801
As 12.861336582656717 11.525734766053066 9.378660892730231
As 9.856303380279966 14.593823910842236 13.629689208973504
As 13.045771068016698 15.372988429092688 7.92469821836401
As 10.881839590739814 12.667566084323536 10.332241010082376
As 11.578887808423392 11.381447915275261 7.245575122041788
As 9.62031793769705 11.744413227839006 8.406925424089415
