20
Energy = -88.51397608 eV
As 11.830132416369493 6.719207563626698 11.96369619698613
As 7.862183217930983 7.53247342756851 12.373541969342563
As 11.395229996508863 8.949949138329101 12.91051541292584
As 8.968517094841975 9.508281245956956 13.460227335096567
As 12.659398231742294 6.834935280236189 9.603201110868351
As 8.823613870878205 8.484839848659654 10.270863067494455
As 6.363667206248703 8.465495897190136 10.61076214334748
As 8.896580253635674 10.796936497470252 11.340381658478696
As 13.961373517329944 7.912114780336042 11.437269589516998
As 6.377161813198613 10.922819767373573 11.088551074135948
As 11.178459402915083 9.35778974220217 6.782274606021944
As 7.569972302831838 10.373976403861706 5.312508021218925
As 11.185597059203793 11.74690238828474 6.880291812640666
As 8.92021649705715 12.367037076151657 5.99824382507095
As 12.704340606050263 9.133255651079324 8.771487581630852
As 8.52008322633834 9.022651180215414 7.218446155971069
As 6.1114312041081185 10.045360505454495 7.398503017742668
As 9.026736739706417 11.301357867158805 8.25272094741537
As 12.676044726987334 10.111391407295768 11.099657033772807
As 6.529931462249296 11.973895177681323 8.787528286454528
