22
Energy = -98.40086042 eV
As 15.065340768635313 12.428761269637832 15.276526592903299
As 17.185916519501415 10.773344614276182 14.988335968005476
As 16.69012416302871 12.655160891344838 13.460360479934842
As 14.84330581851184 9.994448483897502 15.033072731304472
As 13.594310589151608 14.490641241653266 12.087967712451025
As 12.761930164413346 13.993569593760915 14.347142069389925
As 11.567817608748342 15.638315509941439 11.248525495221505
As 15.871533579590013 11.349900945475621 11.53846975599952
As 14.709584509080328 9.458789927563867 12.630526055731107
As 13.68494220129376 12.414714822391188 10.764784528829358
As 11.531851607452166 11.961756817826775 14.23284122467825
As 12.556563750126234 10.807836924023787 12.255388574710205
As 9.647843725934134 9.255632208892939 14.941453904210093
As 12.07395695934085 15.526771044925454 8.831653666651036
As 9.591775414546543 12.133616289668328 12.586452836459205
As 10.380874394527094 10.366006446411886 11.083146158860211
As 9.457756106514026 14.308173046071541 11.350165699301721
As 7.828803226887607 10.261378165957456 13.929461769761602
As 11.492765532286917 13.254373386249984 8.043556830766432
As 9.183235762188806 8.658513250897187 12.61338564558003
As 9.923845096415443 15.144694212910194 7.663926426219263
As 9.283005775443321 13.241629711001531 9.143490423990572
