27
Energy = -120.73238582 eV
As 15.032608601543403 12.634995241784749 10.552491211477651
As 13.470876294727969 14.21277025031526 11.514039389078354
As 14.49572018832402 12.422875950744046 12.93125741838606
As 14.654919468447348 9.314767310706738 9.448052498129996
As 14.447834264865572 8.640139475742894 11.87989462201557
As 12.645021932050208 10.732956805868206 9.542627494386442
As 11.441847184096922 14.398706715432297 8.597869885348624
As 11.73849061649842 10.18939431691338 7.195196345467443
As 11.302036090278014 13.123712723428168 10.698912261697878
As 12.901549537331707 10.515571617613467 12.471487639612096
As 9.786083229086946 15.081274267185822 10.381769872507437
As 13.503526222913456 7.142520494155173 8.868225826384789
As 11.22574351796217 7.950852459416074 8.137978081245164
As 11.665672006086591 9.533914106086723 14.380578682287977
As 12.512254344672536 7.194789266862041 11.188468662756751
As 10.609968776690025 11.538843053753538 15.171652665903625
As 9.367120742128112 10.961143387688455 7.497706257894468
As 9.53498889781747 13.449288059188698 7.24440762402933
As 10.989779860477332 9.039303365628895 10.41871155850853
As 8.974443153194848 11.371282181201952 9.966784547035314
As 8.029028203725298 13.619461805902557 9.250385036459596
As 9.195148271066735 9.47288617784687 13.22529074910344
As 8.48517904463736 11.831232635809604 13.540305206246769
As 8.442802398337376 10.30927391048249 15.478411167196338
As 6.74109474827174 10.21358754093705 10.17237040349681
As 6.978530853952887 8.609300678798414 12.077842445850417
As 6.1437792769080755 10.811203926598678 12.483330173585845
