25
Energy = -111.02522528 eV
As 11.584096135504044 8.617068875433105 5.799016498329563
As 13.746773327554614 11.369175117198346 7.046884769727081
As 10.898357753321553 6.665911010008506 6.849462232966325
As 6.51822021505815 12.311336401881633 9.331907534052771
As 14.475097780086616 9.10483263575745 6.919940491699862
As 11.35967761827889 10.24366999332032 7.6879035914409855
As 8.700437065749764 13.301972628552763 8.846203128748085
As 7.217856560790438 14.431456851614222 10.480572773109435
As 8.984795059497259 9.286970561448989 8.536069781799961
As 15.269346230612673 10.523296009336377 8.835865269997068
As 12.636926900448572 8.467958274519818 8.875152495637513
As 10.406016260985012 12.047820561779123 10.261213646564807
As 10.263192291411432 7.353239375107023 9.175472187371662
As 13.272985528837614 11.717653634137124 11.546051523746586
As 9.171849183643555 9.998303524384344 10.939801368078948
As 14.007359748921061 9.527580677645451 10.751131001454544
As 10.055851288225318 13.497048445253462 12.202744017703884
As 6.97829701196885 11.022737257165613 11.463497038406029
As 11.288505694614528 9.700447763900076 13.27447538908379
As 10.787598914635877 11.946242801152934 14.048478676184896
As 7.775090115270295 9.706794517060654 14.524150760749476
As 7.663691519544376 13.130532202750388 12.602083018569884
As 13.190452495554982 11.21225306085281 13.963388710274476
As 9.950735525304127 8.907389382182402 15.347156113057531
As 9.033382801039915 11.144901464417105 15.927971008105539
