27
Energy = -120.84731139 eV
As 12.989266307089467 16.227466602488278 12.9554516158618
As 10.542394308837618 7.957471252965733 16.18602141316125
As 13.230864997865153 13.803635430136367 12.560426917007458
As 13.958389772539237 8.890477052124094 13.16451827330106
As 11.120359240446172 10.417502980277046 16.517049287031057
As 15.073142216106135 10.565101430784106 11.696642527517863
As 13.590091870088864 15.409970116872989 10.664912215546108
As 14.890498781113822 8.291317640071117 10.965157129930757
As 10.959279800173631 14.806216393303293 12.530499824411445
As 11.328265250509597 11.319846657868869 14.263815659279574
As 10.414716919586947 7.562380818046163 13.77468971727653
As 8.500760298310608 8.595626948463192 14.89540978961416
As 11.567592065995798 9.407155911826901 12.590182457400418
As 9.093959846296157 11.071808259804522 15.191660795115993
As 12.980206863206917 11.253775775524364 10.227133688304265
As 11.149852705298226 15.574376597825665 10.1393168186213
As 10.023023483798287 11.820062552891516 10.734101108029249
As 13.10473984469564 9.111220023251008 8.980895995725257
As 10.765664549210427 13.398810852289182 8.933254686594731
As 11.244885184615233 8.042513493624892 10.166949663296773
As 12.961574226088494 12.574662042363261 8.083875199371631
As 7.651797053375868 12.566324511104963 9.749537857241453
As 9.371135128179569 9.595600225630891 9.770847930016464
As 12.01141537229819 10.593930408384201 6.9681576711107835
As 8.524333612492368 13.931924655649343 7.895950523341175
As 9.661061801641392 9.99051151519287 7.371861519024023
As 7.730589101184273 11.66017045228006 7.461540317911823
