22
Energy = -99.5548412 eV
As 13.182698709266022 7.771124832871017 11.372632497872871
As 12.128320318688521 7.477743502412318 13.640882828667577
As 14.58254163135837 9.663514441972843 12.25563882629754
As 13.505742455511482 9.376685976979239 14.513722510968256
As 10.861419056284118 8.559864769380004 11.8008310703097
As 14.112231550910789 13.490893299625226 11.54948894860137
As 12.856046665710878 12.89998681280477 15.261577185383244
As 11.576297734377606 10.858811128356296 14.623704730785128
As 11.124911738719065 11.013026133096755 12.195691890354592
As 14.856980963154989 12.828336869030176 13.820327612973616
As 13.243832751858845 11.220295008662372 10.929198489071874
As 15.506400921045316 16.72229043346441 11.452207065783178
As 8.420631076170242 14.111065542394618 12.62877579380898
As 8.74566929330348 12.154521474850458 11.419934045881995
As 16.96013823547208 16.016982940476737 13.329230202926949
As 15.507610545962894 14.920951968223044 14.985478350324756
As 11.585927613310698 14.77653928341006 14.276660148705055
As 9.891599627069597 14.242970786060527 10.69619971519358
As 16.149259968481694 18.36156784081136 13.204101912648513
As 13.767166170482852 17.699919097869458 12.902511310970327
As 13.457519688566649 16.33663248102413 14.951756465768879
As 12.060769768433314 14.872484156044242 11.855509931364043
