26
Energy = -115.9135307 eV
As 14.759434919880933 9.088373053940494 11.200473334827977
As 15.386392517906934 9.269368538647798 14.155564541366246
As 16.329733231080446 10.111425769508777 9.839847310183545
As 16.068113445442204 9.86448745110999 16.566876237710392
As 13.011003019970849 8.799670836815213 14.864338287961244
As 13.451625314459545 11.117833532563031 11.748475615626226
As 14.651180129727907 11.655158710189626 13.908598345003943
As 17.9026510754649 11.384899921890485 16.084300322815352
As 15.817572869611098 12.3426816108859 16.382072819323096
As 15.378243828824242 12.369371934859977 10.160232728656768
As 11.579111581768172 9.974562141937902 13.192122364709464
As 16.351970942787784 12.947397557671417 12.261597687123922
As 12.327879127316637 11.196475583637934 15.119839551865978
As 13.056437942527333 14.26315336468137 13.480158364038331
As 16.177803466791303 16.381754078633318 13.694356814337768
As 11.14665254122391 14.567285543451 11.863872207658675
As 14.94060043069003 15.013837388558587 12.052329886190712
As 15.15496355066771 16.157517042062803 15.953747546018306
As 12.838907924404767 16.137845028040523 15.078191647785403
As 8.02607279559766 14.613059774665007 9.860698195316992
As 9.376341707037943 14.563352348303217 13.590474051738015
As 10.088259704435906 16.68333625994942 12.600447884356646
As 7.496529334929114 13.830783532264759 12.146990985263004
As 8.631668818832214 16.89717326068275 10.60354742755348
As 14.406177563956035 17.952003872702925 14.42132686973383
As 6.4593754455154855 15.903177099311321 11.271543468173384
