20
Energy = -88.08838624 eV
As 7.295382330196305 7.385245754733268 7.4541254422811996
As 8.312017635948296 8.764005931834207 10.4535839944159
As 11.50590068039841 7.043143238644167 8.500832040866005
As 11.900909702143814 12.728991072717129 11.494292903306572
As 7.607756279388422 11.601837819213152 11.593651506477558
As 10.745663680672449 12.887535107543988 8.900369787161125
As 9.334663750085513 11.327544127902923 13.41261957558031
As 7.857366230743321 6.508632702901179 9.50661840829078
As 10.796156158639466 8.839062267827979 10.212934816752828
As 9.851305155214744 9.74291536486208 6.873105167410612
As 8.340303278205523 12.608307962785654 9.434008281713078
As 10.531347932214842 12.092578004802485 6.449100216213038
As 11.778335034257124 10.728932432783326 8.119128463525733
As 13.262542077376175 6.424251749659126 10.192029857942268
As 11.091997988367417 5.2828678967942215 10.197284640567936
As 7.713472884967556 9.736618510081923 8.207926872547837
As 11.425938916222067 10.563224256492033 12.352709923538143
As 11.537889864209635 7.095786768180895 11.866187164319554
As 8.10716851804294 14.085180835000962 11.401962996567965
As 10.11116987265293 13.660626165186693 12.902813964409058
