26
Energy = -116.15682798 eV
As 15.076369709062657 7.955097511238195 11.412607946084965
As 12.7618965413361 14.844189804949023 14.604797427924801
As 13.478591591897187 9.96329212013612 11.510020715446531
As 14.740286528924983 7.5136920978063495 8.984981136239746
As 14.895883023883316 11.724160819705492 10.377534044387847
As 13.99169907552881 13.91291209155066 11.091125210022904
As 11.159258693796158 15.669303301284016 16.2842861784508
As 11.015471217780913 13.350697171820526 15.480579176063847
As 13.474868419678135 6.293672305470543 10.534085141805042
As 14.533488254914992 14.521651208660248 8.72776070092971
As 9.448613997270414 10.183866678937676 13.309598205960132
As 10.412995578604946 15.207146424599772 13.986120465044035
As 12.673376600342275 9.327265473065534 9.297791321793026
As 14.188965682966302 12.070199568100705 8.011007125944491
As 10.50621716638218 8.131726680509447 12.28326433649282
As 10.915314118015624 11.187149288588449 9.763284956445833
As 10.86033554031955 7.702171274116614 9.8558253355704
As 12.178947909926094 14.605076710519876 9.556187201182365
As 9.125003260149084 12.202722486657704 11.942618508713673
As 11.779641442931107 12.717178577348406 8.009087135330585
As 8.038499593437157 8.383998104124565 12.383530101445645
As 9.452191741511944 9.48407400508295 8.680348536345868
As 7.202803502753943 12.577349008413456 13.599997898902574
As 7.435918149832955 9.207264882118821 10.076136566098473
As 7.278507599359881 11.63649209371879 10.334260846745622
As 5.598827471524465 11.851622723607713 12.12713619275992
