20
Energy = -88.41992963 eV
As 8.49713744285805 11.170932333487299 7.0433465480759905
As 10.80478117203429 10.39722462450032 6.4417913156076185
As 7.494568087401498 8.931618296174008 7.366856312605951
As 9.851118734579725 8.210648903118345 6.301637190483263
As 6.545249974905938 12.704793160277532 8.080756175462238
As 11.172982579612516 9.637074950172334 8.931138303586836
As 5.497175699981709 10.571936233748733 8.458035034121204
As 9.287616403271604 7.922817040648782 8.815739823748718
As 12.681035705096681 7.632264953308693 9.142036880029538
As 11.589627594489533 6.729155159022012 11.199374486550626
As 7.116348199543871 12.90048786693935 10.508689654959078
As 9.355537615725256 11.864150686107479 9.908199178167168
As 11.611943229084797 8.7312293370133 12.695481327281925
As 14.392442790617228 8.738350916175717 10.611456220256393
As 6.006017739462074 10.694103061855285 10.931300450918064
As 12.357528927899722 10.505571730147379 11.16663663458099
As 8.336953436631386 9.75273087828285 10.795922268408368
As 13.79849311297387 7.172619288169271 12.33199675258236
As 9.238024922100507 9.971398411650645 13.106301782327199
As 10.478337418984315 11.873812956455826 12.276224447501944
