24
Energy = -107.08076217 eV
As 16.554144939008523 10.21783949093009 11.998985563794752
As 15.840661023257008 16.594203402868306 8.625102471021188
As 15.601714143191238 9.578937267454823 9.95963352324801
As 14.578262898752739 18.54433486034519 7.819232729841199
As 15.47350959243778 12.44953561451911 12.700947530695323
As 14.054479458547656 12.871694319090357 10.728128361667325
As 14.794343303694083 18.12990556124818 10.231653910436199
As 13.38415992165831 10.614517055292673 10.016944135597477
As 13.398081630086546 16.64905788543398 8.84840294017609
As 12.787707716608686 13.282505391849051 19.300541252017
As 14.609440346890489 10.328462746327183 13.65448255904023
As 12.690532922500026 9.67485737528611 12.196478108930801
As 14.536445216880566 15.541736162220738 15.884494015446426
As 11.802808370720953 13.427431080469582 11.589565798269778
As 12.4546126420568 15.191848631067495 13.259607467987385
As 14.894479011764536 15.216187745120495 13.549668420196333
As 12.538542741886278 14.19686523554595 15.509957868656125
As 12.03728826009656 11.331848517649393 18.063733527534403
As 13.273656517385884 11.749906643542158 15.832445277672514
As 10.902393481178155 11.337436167100881 12.66151057900917
As 11.156532801823426 10.75582479469532 15.086119427592724
As 11.560641976546679 15.111120825448452 18.644898834619582
As 9.925116563893654 12.026304756787445 16.932360128773333
As 10.310611539412621 14.442031108186088 16.64699040175393
