24
Energy = -107.05267774 eV
As 14.390723636317162 15.792883807424655 11.075193259564182
As 16.064773308504634 14.722212608944067 12.653273023860708
As 16.11918834485811 12.827525676663466 10.963141058799318
As 15.577502835817329 12.397020338315642 13.306284347777018
As 13.950004582599432 13.619027193350638 9.906838456342536
As 11.974397112271683 15.68388712166458 11.592938493164878
As 11.653656929816329 17.0368987544203 13.643943154503972
As 11.721477807660506 12.367665885770657 15.635980977961227
As 13.102242456128591 12.173261818205905 13.38885878832513
As 13.000477027654245 9.856343751977914 12.552387383254702
As 11.977124526635343 13.179679040566464 11.421361031818824
As 15.162291122591952 9.51976787813709 8.349351696366067
As 7.922855358691052 16.359746484580022 14.907219000471505
As 15.465383364254551 7.134415331975358 8.852986696303745
As 9.54698342523992 17.968779027944233 15.894111770755183
As 17.35665495913434 8.464838983215934 8.017907658355753
As 9.317738275463588 17.74058128238875 13.402152855928907
As 16.50444228436503 8.833871160249979 10.293556251391067
As 9.55425990573021 12.610970175965956 14.7838763926641
As 9.347545091081047 14.703710544546071 16.07568153083269
As 11.109502151573077 8.823879576149132 13.779998058637261
As 11.356765180342984 16.150672378758184 15.954540696903708
As 13.40002247797402 8.667099742668738 14.706975157654885
As 11.630531540609672 9.917968219842534 15.944586709552809
