29
Energy = -127.84474512 eV
As 14.182756242225722 21.17482437005813 11.894731315732113
As 15.727801692482556 21.314006909538236 9.966857568521332
As 14.894618309055655 14.454694053162445 17.159391314791442
As 15.393430824952954 13.488262916223633 14.898893817772024
As 16.674180935458097 15.10129137259679 13.7690233246799
As 12.964004986645216 19.683108376140662 10.355321790944469
As 15.931692653528847 12.760486499813293 18.69297149104194
As 15.124375708977903 18.967503834003697 9.315550612074624
As 13.624754093935453 13.003452434585354 19.734884170164143
As 12.672597861409036 13.473953916759475 17.534846327949996
As 13.93025610508534 20.843344160068227 8.303008673498159
As 16.785492224938256 11.450330090839325 15.400292202808835
As 17.061289782583493 13.883950731628081 11.704585501638334
As 15.608273126460727 10.642452014225979 17.43247015481581
As 13.131667060459185 10.972404568221766 17.160075606409627
As 11.965778649494368 17.64879456688704 12.174553066075312
As 16.60885607604785 11.393778956762269 11.703373173344405
As 11.783814272267106 15.827728701123705 10.480224665667507
As 15.461556199915334 10.2744011128215 13.623850895025308
As 9.96137276491239 16.563075975938 11.995481064653
As 13.568183646687048 11.791556021107917 14.083708838729251
As 14.96271630967874 14.267839926621637 10.321371850429387
As 12.58565922065535 10.432223529142929 19.51479511565177
As 11.639995472152137 8.956650388142448 16.454966331342934
As 12.082860501359125 7.921562715804874 18.590172777710695
As 13.185376257008587 14.514971467402013 12.057432245302808
As 14.616105408218012 11.765620902743347 10.253135031981955
As 12.654941366814642 12.05773253435749 11.819315480226395
As 10.359528830116918 9.608211734606849 18.474578327917868
