20
Energy = -73.53095794 eV
As 17.00627394203732 0.28596520440468504 12.646885027062938
As 19.3489239143968 0.23036651539144948 12.776235694218737
As 14.724166688727912 0.038924366758237135 13.099925269712413
As 21.596324078964546 21.70478156309522 13.333548108340377
As 12.700411759636324 21.299376621269204 14.152438504494606
As 1.8281462406657085 21.076664217970592 14.312966996120853
As 11.236508057609791 20.4629719350368 15.777326099388677
As 3.4953518293047074 20.1583654458723 15.673140668336828
As 10.55527459705471 19.428471905832225 17.76641070411657
As 4.532107665751706 18.968319900237706 17.40727838383958
As 4.755823048025249 17.67946471654038 19.346818060553513
As 10.812041293193593 18.314139898275542 19.80865363568452
As 4.071022018340951 16.47743546157863 21.239138399885363
As 2.6184941159267843 15.550209428532161 1.0203344188670844
As 11.87378592286808 17.269966371324905 21.618602799632995
As 0.6094120955052673 15.022268521703873 2.1067034965311695
As 13.548212548313314 16.373106116385884 1.1831199282539224
As 20.1367098084473 14.901409051851221 2.6331504923378124
As 15.56977008406335 15.65081045475481 2.1210376580847576
As 17.80481201974145 15.148683434562612 2.604389733812561
