20
Energy = -88.25250032 eV
As 10.540455520583157 12.217312922506176 8.588544012962545
As 9.913402537383222 9.97324884035387 8.194462949595291
As 13.097131119336066 8.910022746980523 7.661699300453768
As 13.698986053036014 11.207124455808092 7.910045135037996
As 8.382742886157654 12.28192670160033 10.137024196869799
As 7.79494089906973 9.849674055809565 9.917555315805057
As 15.18462977705605 8.167726485911084 8.875991318153726
As 15.860280557258468 10.579242058576236 9.037707051644077
As 11.533370948234237 8.745061339513699 9.926847941151113
As 12.253271866417569 11.125061322688772 10.243994956071985
As 5.959198268628482 13.10657519721367 10.991356152522254
As 14.06766196109138 8.411771386357152 11.11539350572011
As 5.323682155107359 10.78887411748919 10.581750478318943
As 14.707207987202493 10.713375709398834 11.277260104229489
As 11.641384388465314 11.172631957152891 12.792600276929955
As 10.998734947781704 8.926431496393317 12.55574562693329
As 9.124328042454415 12.289394075206513 12.560101360916361
As 8.514205956253528 9.868388960935638 12.352970145486355
As 6.51838393045323 12.501017639630055 13.35045434208885
As 5.899523652918393 10.178661985363345 12.942019283998139
