24
Energy = -106.98797151 eV
As 11.79952181744649 15.938330535414389 13.030977920449917
As 14.751459374905732 12.553160393641106 8.877814877614874
As 9.269803679192568 14.217172926302899 10.464608930172947
As 16.2449647873765 12.26967350098645 10.776299626710188
As 9.521522742200748 16.59611875569207 13.315255893574095
As 14.521876895090504 10.075063972422592 8.716918187102976
As 8.122002903250724 14.767638495716625 12.623744788696534
As 16.22640100557151 9.821858360702194 10.56157435329716
As 11.551694848061127 15.16659725180674 10.686371520491807
As 10.077501080081403 11.897106463101972 10.962170519232863
As 12.621626844002083 12.843465541586479 10.491889278725981
As 9.447352955414688 10.02822171481658 9.340787631260824
As 12.54183523998614 13.954507079712396 14.36525764751337
As 9.268345951765966 8.169875687816555 10.967262372840862
As 8.16829264522326 11.139743779269756 12.500386365679885
As 11.26631239346236 8.315031185935627 9.516436516646046
As 14.12486073914164 12.93630896668564 12.592520140841426
As 12.828362116627975 9.933480155985556 10.585456216005358
As 8.459053120332081 12.879253116941243 14.21999444869569
As 10.816591893761316 12.31518296285386 14.945390347238883
As 9.478558573991089 9.172199974254587 13.275797275524651
As 11.410017649636158 10.785299989312557 13.061431585158832
As 14.443976356852128 8.933103331414824 12.178133517699065
As 13.882990863237223 10.739626923806926 13.78362502972549
