20
Energy = -88.14227567 eV
As 9.300807972297148 8.559512344200604 6.754714339874052
As 10.870548382951206 12.600921511826533 8.346259622630244
As 10.924468095273346 6.71463239215733 7.379178867056932
As 9.410754339857293 11.112766758160058 6.903711365077384
As 7.349365846218834 7.770475956032713 8.043595860012514
As 12.843948767117697 11.573414304678613 9.424645437184054
As 13.06943260477965 7.644527470862716 8.163478753457474
As 7.6148678085829955 11.773782477278699 8.486029860297153
As 11.601285417255854 9.463604881793126 9.156373864319955
As 7.308446710990183 8.015731257120065 10.524500674412694
As 6.250995439022643 9.74055023979947 9.046873772965583
As 11.733204515458167 6.173823551155397 9.686957722412666
As 9.42385850889772 11.558004283639791 10.179107367123883
As 11.681040514388942 8.155592796712583 11.239389097694032
As 10.243747876881194 13.581355323683775 11.584324026843234
As 12.24853578308643 12.303533827261749 11.81192387205653
As 9.343186290043136 8.036036851157894 12.013439894917981
As 10.315260170347495 12.170253354987628 13.736418204073724
As 8.077590045278319 11.861607076167411 12.649383690062669
As 9.128886321266313 9.930104751318417 13.60992511752211
