22
Energy = -98.98117835 eV
As 12.126665975475149 14.880115941958893 11.593283227853068
As 13.616662153584317 12.15955995351408 9.262717505786974
As 13.234654115390615 14.155661376405648 15.322381327819464
As 10.208673357745095 13.559123602593962 14.97955759867373
As 15.618655106750976 12.448900352906245 18.432074823578013
As 12.169745370601447 10.907997612178638 12.765129298172722
As 14.420098320739019 16.253290602669463 12.429831000277613
As 16.9278592175957 13.635614717855947 10.945406563093
As 15.471514273835496 12.773951669957125 20.86381720241778
As 15.637131544481301 15.681409200878122 10.386051666741876
As 14.647110169052478 14.515539647067412 19.336237280616945
As 13.430388220964709 12.393402002573616 19.54671417325011
As 8.699085852738133 12.909590503953384 13.064368080996402
As 13.340227162401224 12.724698251616125 11.643879503122609
As 9.912339730029068 11.217650665139654 11.727879589241276
As 15.4017872155951 14.68595452111232 14.010951095940593
As 9.82021372412726 13.569939989043075 10.997119718269639
As 14.315733664702602 14.435296795374178 8.543303683252011
As 16.004657819806827 12.592403240135647 8.84391254657239
As 15.562120492506848 12.596908852801874 12.692641906652154
As 11.561058785041897 15.39793269932559 13.984037955337353
As 12.083643077371747 11.916974331504163 15.06390947819617
