35
Energy = -153.4973486 eV
As 12.50605324679263 16.05374716404544 15.4252251040245
As 11.868795707968179 9.92916578258415 12.191330484133834
As 9.44683303541814 9.47861790535261 12.438436294201345
As 7.440370263710945 13.17123876301312 10.609045466386542
As 14.106709747573237 13.630588092048006 8.169927426044264
As 11.79527153300917 13.458614317250062 7.0670092788952035
As 12.67869914656796 14.37737499479695 18.86411781502871
As 13.957044591590279 11.205948201558046 8.74245330232955
As 9.200004588035942 14.387444366970348 14.525289245175511
As 17.33723696073022 14.111334654670445 12.272770940543985
As 16.647292149826036 10.545190834724794 11.208391454302967
As 12.939802983860124 12.62515009208775 17.115768803282492
As 13.10586446638599 12.889717382821235 10.340355894051926
As 15.971322166231676 12.449258203372757 15.409269752361752
As 17.22126166384054 16.88860427899938 14.852944559947472
As 16.151996761399662 16.25107228616783 12.76281735544099
As 9.152042395834371 15.600710090036147 16.675781154108964
As 7.040129158277447 11.823177684799512 8.988631421488519
As 11.553005174784024 14.555855319219003 13.673129757211889
As 10.78410424680269 13.408523363629518 9.373862184968974
As 12.001140197360733 10.977717719089346 7.169626787154987
As 16.958073028880943 12.581711750425015 17.683361401330732
As 10.543292614053266 9.221884322581351 10.224463727454339
As 13.888420040167386 17.097005978338142 13.64159698833005
As 16.111461826896605 12.77882260544267 10.660194394099708
As 14.824366543180666 11.544843646807916 18.436367362229362
As 17.852606748547526 10.425021014232321 13.190896430316648
As 10.583974397724232 15.597235720243848 18.455452407903266
As 10.268849792445106 11.824665461154765 12.320421063982272
As 16.295770454526295 10.39340853182768 16.776012038768076
As 18.11654315210248 12.65116605017904 14.113162045702811
As 14.128005259717359 14.771205614022865 16.84038597156532
As 9.995999481758966 11.146681118791093 8.70941413059547
As 15.320123653481941 18.07105642692058 15.437589927954786
As 10.751581257850463 12.456839336566965 14.734297330981457
