39
Energy = -172.7117803 eV
As 12.702697817233473 8.931095010688937 6.139651345818794
As 11.96880908081548 10.572583039067817 7.8648326683840954
As 11.16669049478665 8.221353630705355 7.995007220650758
As 14.105775328032498 9.30901343462027 8.165173867562675
As 13.065463272212972 7.453953714458562 9.495761048247134
As 8.515636447865274 9.944955887847838 9.075266710555297
As 15.18933936463695 13.802491998551652 8.463967388051103
As 8.783061733805846 12.20514033070887 8.684103309884177
As 16.344470161243272 10.086549059508545 8.236540821501556
As 12.958671978601371 14.71365394018932 9.073008871592148
As 10.75275880739691 16.340131064955077 10.85535935260826
As 8.456815298229051 15.464132897729888 10.354349517464327
As 11.597952769869575 13.939851173353711 11.125530520947226
As 14.170279451476006 11.659066620764367 11.226811904114527
As 12.154413659360431 8.926093749327993 11.284244240718182
As 8.839224604431987 9.450827898512182 11.507486821063448
As 14.974675739703358 15.456220263062518 10.318901894898719
As 14.951600876555396 13.814202824929206 12.293384901473157
As 9.160506846814126 13.107064994717074 10.908062085087584
As 16.196560308001402 11.918700909494829 9.793079603759066
As 8.934093182973385 16.571040652854055 12.516851334699316
As 10.267445708367905 7.31772339331595 11.68943691225253
As 6.803332417883805 9.307170438348903 12.733643325374842
As 9.923205821283915 10.820205459110692 13.374493606910296
As 13.304136972724613 15.833115060655125 15.729610288374447
As 9.914707470123004 14.864349284889125 14.11314879126519
As 15.30458896475632 10.191026834678075 12.888080184705045
As 12.955310300500715 12.335250425790512 14.888447647806597
As 13.484958574626205 8.47956602345109 13.31876660154939
As 8.364216141401391 9.2903365804791 14.582595721930641
As 16.732935154144354 13.418543180483569 13.86335577512857
As 12.876449138146222 14.461298373219297 13.583870259197091
As 10.148369968740882 7.383863830955153 14.14197537637249
As 15.420869349708392 11.702784379180077 14.907947882975815
As 11.574826435887399 9.375259614771396 14.644149476672986
As 11.039369456175192 16.74641267725986 15.344985076523027
As 9.370260935418532 15.389461647552817 16.535082155933157
As 12.909412380815423 13.731709488293045 16.995010859113822
As 10.518061628790573 13.36575425505872 17.18997867237356
