38
Energy = -168.23511477 eV
As 10.808032434001255 6.891161388082633 4.406132855471434
As 6.12361175648763 9.84294408538213 5.8566354341361615
As 9.071302083124925 5.44205315202686 5.522707080768183
As 7.10457303877376 8.244359132797765 4.195582822093635
As 9.042993893296124 7.975757987694103 5.807492334305697
As 3.8570271789644384 8.719725053647073 5.3850403740521235
As 10.240882704914714 4.531000306201083 7.532582951111542
As 2.9893084242233856 10.502400495274376 8.773888610346166
As 4.786657644171771 4.725853234763705 4.811721577072035
As 9.266911070905403 11.112124807390623 5.0242309158752745
As 13.16546429252071 9.179415938551687 6.380655888002473
As 12.751121479103132 6.761906821342602 6.04870467762551
As 11.209267856317929 6.740076872200508 7.947449641166209
As 8.329741625234837 11.429036676345403 7.234775786491184
As 5.59288168703296 6.9488446284159275 5.7537273505227775
As 7.061893776663002 12.146340719206394 5.2117130932381395
As 6.434103682634091 3.3028120876401 5.9631423470751574
As 3.0149369831386914 8.235953078736307 7.717819567970959
As 13.416592871287756 9.744436776118606 8.642363469270606
As 8.402482160240055 10.681238560247811 10.251754733344136
As 6.137404200465845 4.8659154854543605 8.004649247259527
As 4.225287434660232 3.6017864738080942 6.975447269125023
As 9.66347797144689 13.266251059948951 8.40174031839411
As 5.352956085336387 7.935478820624081 8.660314231449686
As 5.486728822433121 10.46245136978065 8.94661780657955
As 13.040098649013846 8.322994397607442 10.526636321948908
As 8.20792440942133 7.681724003513477 9.276061921541604
As 12.593559528998783 5.953256428290586 9.83296351546282
As 8.723837415082189 13.11779219244874 10.708281608624977
As 8.816161814275961 5.19084218731618 9.52713536249563
As 4.627208191060637 7.753259463513332 11.065065930744899
As 10.186117669546173 8.162805284473551 10.869298228122323
As 6.96677149988981 3.7636209712842623 10.039608846530516
As 10.698153757691717 11.768393546886966 10.076538260444778
As 7.128701665409675 7.425956523685323 11.552246655269531
As 4.072844264403545 10.18590656033895 11.008139610610574
As 10.554729148915282 5.707340944891796 11.345225313017696
As 8.524735949048994 9.35326760420368 12.3923931625728
