30
Energy = -133.00934514 eV
As 11.963910001578212 11.399348475427558 6.318118805930833
As 13.863825009653993 10.25144326954832 7.418767361355863
As 11.771030071696162 7.432110296128974 9.139023944435635
As 13.74083315318325 12.716578392143571 7.425048865518445
As 9.855061730888545 11.543320452420755 7.706978264261019
As 10.466193991994537 13.584314281843467 8.854780975224767
As 12.75158663093203 9.649866374100347 9.588483384997781
As 8.710502722863342 10.012363514126863 9.35285952737747
As 12.888475695074861 13.762770027164839 9.536574262480276
As 9.620248343860256 7.900323837275473 10.281216905691993
As 8.522466645166753 13.55500302366993 10.4249786746638
As 12.500732430161264 6.000343899830029 11.0663398961309
As 9.078218177327608 15.31985319628181 12.11723494084701
As 14.324604691166714 12.915304076305121 11.382454611606851
As 8.15864496304318 11.339274799906313 11.421572029527326
As 13.71660145999294 14.94514439435962 12.793271444524235
As 14.205841275004225 7.307166184475087 12.297516582918533
As 11.461237087762008 10.959099634944732 11.596575232435695
As 11.864388370990437 7.182114254151797 13.171888117214163
As 14.792166593061937 9.257790694462386 10.883506253429
As 8.35793721674418 14.442064865675919 14.332764062530533
As 11.440694387483168 15.969713965401056 12.821921899544964
As 10.22734258338979 8.967089532139635 12.47848468826018
As 8.942288593810172 12.013811440642996 13.90046376662959
As 14.071660096435684 14.322353760838013 15.110228816416829
As 9.744161169362517 10.276199136502788 15.350038236526379
As 10.55461614827189 15.418033034553803 15.093031658722463
As 13.746715089853016 10.825719488826575 12.60601517976115
As 11.327070336629452 11.774346344759847 14.231362309534221
As 11.985384385391761 13.611574404866627 15.952938354275986
