31
Energy = -138.59691056 eV
As 11.895923873500385 10.879224811688074 17.305345717192633
As 9.747979570435108 11.669444199770684 16.418061539984716
As 13.1822841637242 9.894317609362552 15.438248244536082
As 14.964281649295167 11.578268441892412 15.096303872415582
As 11.555768490364247 13.319737345196462 17.12995459924528
As 11.745225307804695 7.496240929269042 9.745018848887437
As 11.624235646047115 10.189099368661221 13.482412821976972
As 14.144509311170344 7.714921220420593 10.387230228028878
As 15.999079659140248 10.577013409564186 13.073067081813466
As 10.24549183919236 12.151841270687658 13.991461581566409
As 9.727238134108864 8.80557265098825 14.265197727620913
As 13.40323148092539 8.538466692672948 8.238840466053205
As 9.160065270437796 8.096755590753675 12.136195246637381
As 14.142501725119136 10.048184096149333 11.41969677297369
As 11.723488987839906 14.036125043865706 14.750101261436278
As 10.689876553694024 9.465245429483945 10.832523199965424
As 12.39093085994384 12.44716871159252 11.119210241882248
As 14.155332371237684 13.828899842324352 14.356059319502926
As 10.272611093451172 12.380011688723206 8.034763646692912
As 15.691673316569702 10.987506107353491 9.77199828095936
As 16.311841789197583 12.602535324848754 11.638167262990374
As 9.367631197024927 16.43719520795319 12.913002718268714
As 7.045818453577368 15.983886538605034 13.585462376189161
As 14.22991619794791 13.983622417651402 11.885324177397678
As 12.347101816837784 11.144572266087783 7.398789003701589
As 8.079010284008067 14.687374981890475 11.766990148456086
As 11.080953010633195 14.150881371270305 9.679572517035176
As 13.728522315552102 12.408394266159737 9.021934127372473
As 7.509416139023589 17.054899245871134 11.420153905902172
As 11.744535994152129 13.53374518480943 6.378862002328412
As 12.935515677917714 14.750840914307533 8.162043240859932
