32
Energy = -139.73080818 eV
As 12.929931697293924 16.38274149285559 19.704940644572662
As 12.796332558338062 16.813082781569115 17.32010039124647
As 15.309704177756608 16.72356625985584 16.968465074412784
As 17.081672871858203 16.208915632480924 11.557793045471964
As 14.884202531736001 16.693200361015244 14.510626960188825
As 14.678574719158156 16.216602133826733 11.023469630374697
As 12.862762734863582 14.080154107228147 20.054185156864076
As 17.239304010182636 16.41207225946908 13.840519790857817
As 10.079871716996522 14.9741095908782 13.609258603659148
As 12.465212734266665 15.051494252529798 12.568208296372601
As 9.05487968146403 16.17313708452137 11.692589198877972
As 12.54113792296615 14.576247088725427 16.252737666905286
As 15.198447537131301 14.802793626284124 9.248320297620525
As 12.662227480202505 12.933573204933763 18.033151238948932
As 11.439197073519864 16.51409865051622 10.814682197093932
As 15.03511083447869 14.558782054100094 15.763478165488976
As 13.08831727923225 13.658026244899663 8.80315096292745
As 11.049235567980354 14.980268675658206 8.982441800736686
As 8.673680053655747 13.75598659434967 12.016526132805163
As 12.486574065095722 13.01558250146694 11.175492269000905
As 10.175288375085778 12.364609389641904 10.589477480332189
As 13.782456419313634 11.417754168789223 12.615270237659736
As 11.776264525364468 10.923673402290376 13.947007682725866
As 10.090198230507548 10.402311713923002 12.23765447938751
As 13.746293463759708 9.68399593706869 10.862143495759895
As 17.274916555600853 10.526244279450667 8.618892997532317
As 18.926165120337046 9.517466059403624 9.473031521527009
As 11.36660811850766 9.008397394548627 10.647727870360928
As 14.723825470650635 9.109137756658427 14.907791437886434
As 14.76450287809189 8.479333446994069 17.046547668341372
As 12.312447277317247 8.55513906379489 14.398865104118897
As 12.882437361960141 7.720631997996852 12.1123034702057
