33
Energy = -144.43982344 eV
As 9.936144680980043 18.425305797351317 10.889057127611988
As 16.45854107819715 8.374235765035472 11.232910413158157
As 11.85496662306287 17.76554794614658 12.283666605618588
As 14.545892480068062 12.844066733743874 12.718631090628072
As 15.975420785198901 13.914853072491244 15.565775956465595
As 16.68518955310134 19.322340129858013 14.601452457892321
As 8.482602253941026 7.443428816151903 13.819780570723939
As 10.887270135680117 11.600285045639527 14.849765661047535
As 14.908677342341296 17.58290534378938 14.459225339924197
As 15.802355665945496 11.617727637766022 16.210928011623867
As 10.650754131214374 13.919190742862957 15.545115759913555
As 9.753496319479618 16.485783427489277 12.387576273995489
As 15.510087009777578 18.497238267317005 18.152130901200614
As 11.178620901292382 16.351762363238873 10.388818203900755
As 15.267482198365661 8.74961889431404 13.27440617688845
As 16.488138863094644 20.298296516599574 16.821167573534385
As 16.192958248209738 10.64690375548794 10.460314613317786
As 16.739888748010713 10.551829557897433 14.145913035814143
As 13.36378552234776 13.535502033845294 10.628073620647868
As 16.940433731544914 12.24092272389316 12.301338000178841
As 12.149773506508872 11.577002737073544 10.470287823137506
As 13.404856634770887 15.631140436200813 17.518144661808627
As 13.702183000157106 17.92802875719899 16.601923627066082
As 17.329733545611493 16.167176007117416 9.258314171122477
As 13.280693155689235 14.592286713319895 15.228740437443752
As 17.214675212604917 16.928783594008188 15.063824367717434
As 14.04268784483116 10.598575529478564 11.80652175470929
As 8.583950973186253 8.909065337810244 15.352513368418355
As 11.011177387328422 12.196163256468843 17.232118602565198
As 16.051072256172873 15.616765388617864 10.86636730569067
As 15.749344806436499 14.797199705620795 17.899383265807582
As 13.170600908780344 12.163152637369103 15.893431583391106
As 17.19171177228506 16.813521874757797 17.543824416114123
