31
Energy = -135.89382339 eV
As 16.264314342880898 15.949035243807625 14.169448020466351
As 13.38295696610611 10.95226566774467 12.51367341074266
As 13.06311414252902 14.61462872544164 10.491378328351914
As 16.483414734509648 9.63130461612405 10.601443052982225
As 14.8891562568967 17.34436762652763 12.602102873695841
As 10.278053581753984 14.721178346062695 11.047323966064873
As 15.511889786861431 13.595969844092519 14.38754414368754
As 12.903838317653248 15.865487526301793 12.617171212039246
As 13.138875158165089 13.13751791312218 13.775469607148443
As 13.818919774172928 12.98570967105958 16.130110415835997
As 9.508416242563401 10.358869887249993 13.579239634157009
As 11.121423694192961 17.091213984621174 11.282227588639524
As 11.857435275406157 9.132136109691292 16.089676735468462
As 9.91039354875546 14.466753251043604 13.572314749861174
As 11.881354746726888 11.624232548198057 8.046779486678524
As 11.362562995420799 9.660115019563104 9.49280990405462
As 10.183514255107385 8.002248704667602 13.572951643374667
As 13.821487889015682 9.952330688450884 15.828653715729914
As 12.02826158172946 9.289985999747538 7.173486818209182
As 12.735825746291333 17.135356436608184 16.263616435728444
As 12.376746105016885 14.83657166759273 17.082046521610092
As 7.980756582632242 8.641363537041594 14.435917203613167
As 15.752360138388893 10.079178239980283 12.901909581246585
As 16.872286129006316 11.79805458908521 11.484818380056186
As 14.353592009126366 11.532264960868046 8.563818141180954
As 14.831145389746435 17.741394888229735 15.069498811411798
As 14.398960171755991 12.518180590376529 10.85833359887928
As 8.438174755033609 8.785808634355432 12.025392302437364
As 10.72772594932476 15.845250818379068 15.515924476768694
As 9.00101111907512 16.469826539836706 12.42053400738724
As 13.782965653604743 9.156531599473228 9.042450546488126
