34
Energy = -147.21578088 eV
As 18.190400025964358 15.847116563884121 12.585912595844725
As 15.131868832566498 12.144516322545401 11.63180109322466
As 9.296780832573194 19.17061048241907 12.918306989409908
As 13.291133612389046 10.813557265096383 12.624039683722636
As 13.89989646667408 18.460302621373838 15.932879177920615
As 19.438012539093982 12.129688001856021 13.12319416462174
As 18.41318665964725 10.902006723469617 14.8000968107257
As 13.188421476923596 9.237563638365346 18.75195451871042
As 12.475889995433835 8.563640219171212 8.797000062219297
As 18.65167911174541 19.239247495198917 15.514282189736923
As 14.250174455184403 10.438760915095354 17.077835880393607
As 11.416652904745336 12.45217097937358 12.742970012739027
As 13.921740471688691 13.522131845311348 9.96273007709528
As 11.50935074362038 10.730580936621111 10.92784668918832
As 16.91521233911234 19.520880083838367 13.740322451657576
As 15.47233074634042 16.75046444319784 16.27350999801046
As 16.515941691428264 17.093763056995567 13.928992471467755
As 16.892660160607868 12.80373883247316 15.205365096242549
As 18.793839130564983 14.155408581132157 14.318518638455192
As 15.653279326586622 11.783186723483615 18.413891951068774
As 11.336222829140048 18.561248903285996 12.732249558002824
As 15.288662845848627 20.37043372668269 15.447636763953984
As 15.59386655465346 11.509214493486537 20.752214163073265
As 12.234812105354175 12.063791588104662 8.969071181395664
As 14.53873868725667 14.080918325410478 13.13487394051613
As 7.94291394842473 18.5629447442712 15.71714238698298
As 17.208781575500915 13.377455109216005 17.574010099180818
As 12.45974775240303 14.471998723165079 11.709809749986842
As 13.723149495956298 10.279252496917847 8.06168441090792
As 17.0732504025902 20.22690522821278 17.22222216336464
As 15.768179319048906 15.876592063419652 11.893496061432227
As 13.968823392753608 9.868537075593956 20.902005712976166
As 17.52017835652523 17.831308655853196 17.240627740952903
As 5.917061316286785 19.152013712578242 16.006924233406217
