33
Energy = -147.65495656 eV
As 12.723772807416344 9.191099656047077 16.203584634493456
As 11.294426421522411 10.919527487474646 15.145741581711624
As 12.752379866409692 7.156794045840163 14.859843291268044
As 14.71027399183623 8.782600625466445 14.795132540699589
As 13.39731491629611 12.106633643800205 14.433011855033943
As 12.928763165003106 14.548313985838913 14.879346295055175
As 7.361841736499058 8.183092210060288 11.733761234116304
As 10.547553235973961 9.877669009284743 13.008039827090602
As 12.012730753821609 7.942700706993933 12.582119691428318
As 8.492353082651313 8.714029200722385 13.851169015652223
As 14.169365108078985 9.179151493305925 12.359092953364849
As 13.19604026823819 11.483663758985603 12.04064135447898
As 13.315870061601366 16.030948024383445 12.927990927969304
As 15.1195922389868 12.923515055729705 11.331838021917461
As 10.249396591465324 13.647099447132783 12.456350774981386
As 10.992062498411977 15.644906494258352 13.796056560522556
As 8.33707276590172 12.979945373700758 13.865316354378932
As 6.8013346764563165 10.267465498643963 12.868275342115142
As 13.265361118075417 14.516128202448009 10.931759977982862
As 7.875626056199584 14.170735567343593 11.865142875295685
As 12.98958768860726 9.53072368272911 8.336282377780696
As 7.606223663133378 11.71439564083999 10.880719801751145
As 15.084843340297882 12.160848223442779 8.95368356178512
As 9.170744641395624 9.0108878419352 9.695989678192127
As 10.034489782572559 11.284923932021425 10.371416604674538
As 14.410866251717906 15.9641007909919 9.308623027470153
As 10.764280057786522 8.581352397458446 7.7076678501009175
As 12.579303786566502 11.985874634484244 8.679999571994314
As 12.722246402226789 11.095537475058027 6.3900067401380545
As 15.342987897312451 14.421316139106116 7.914154910741376
As 7.4400510636897295 10.443858665027957 8.573515782659063
As 9.23615467019582 12.113893452607607 8.056405663359472
As 10.226047731665146 10.577225974849341 6.348277657810165
