35
Energy = -153.43888865 eV
As 16.703255302394656 14.28319814355358 10.989603603892565
As 15.294139571996968 15.947388796894748 16.365254459877136
As 13.412026339683106 14.733770817359208 17.542591294889103
As 14.928777413362278 10.438728708029071 13.775208113867386
As 9.959669286584704 16.47557479101551 13.439040654716717
As 10.036076333637173 14.104542157032355 12.866582002383744
As 13.52939961400525 6.52398353240103 16.240818845216346
As 15.837670090803297 7.0450780040766166 15.405739931525554
As 14.528582430789994 16.33607868239023 8.301653244779338
As 16.399520316696695 13.390107365895302 13.870302145533339
As 8.275347819730822 9.656197137743451 12.469251309138285
As 13.765529971286817 12.301010412187262 17.13615478672309
As 14.61175356846575 15.246129815825462 11.962634015247033
As 12.252746880335787 16.46728767965885 14.389617213464767
As 11.375438640158755 14.881986066073063 16.0904297392472
As 16.05941985546836 15.82612773207955 13.95301557939833
As 10.703569793389594 17.38334996213961 10.984620804088802
As 14.186590109507163 18.075112838687048 16.96006214870326
As 12.952417614870958 8.995871721755599 16.5458428016012
As 17.284402828498596 16.54761969973134 10.04144919296877
As 12.812856966305775 9.121268389527915 14.025964813244642
As 11.478946946999296 12.977699713786805 14.513816717325362
As 16.42455003675187 14.75626427148644 8.538296276830518
As 10.083299475386767 10.768279768377115 12.27274949517986
As 13.968258822735903 6.875619359771852 13.797766134512928
As 12.250146207786349 18.473411243204286 15.78637610525806
As 14.920166131156757 17.34103367088366 10.54590544813931
As 14.22509345864253 12.658635525885765 14.59378641405859
As 15.376917431370304 9.421772374116122 16.014128989087943
As 9.321551869998133 15.845333182923913 9.650129549538738
As 15.860531308463452 12.249472499865085 18.296084684850808
As 12.449840107578327 14.981942366597714 8.313537923272214
As 11.097687435286387 16.97130464934696 8.289785167018293
As 17.010830581538624 10.356020432844764 17.51597069650224
As 11.413434315947232 15.006453494101445 10.725730621219256
