33
Energy = -144.39319837 eV
As 17.39262187878419 11.82553740892346 16.044790190589076
As 13.382657680544016 12.629479991297375 9.865290181884836
As 17.154589045604684 9.306193594513584 15.710647427823545
As 16.1557078747275 15.044396306146478 14.093846579165886
As 19.609002137026888 9.007751589982755 16.156346651543437
As 11.147187776864001 11.677474076984055 16.16506540324063
As 15.626436456124939 13.165674392348691 8.959434968958853
As 13.181029282427515 13.562858001658249 12.278617070794196
As 18.782657723247418 9.430674194533262 13.844795994519526
As 9.577703812071094 14.110111961452365 13.731437138658807
As 12.671150802805858 13.778786858650152 16.05999922311352
As 10.517442429724026 14.836531401655215 10.820774082014957
As 9.337539847776352 11.690490653885085 14.448544308791023
As 17.349504656097636 13.529770147993965 10.79796161411051
As 19.360663136659646 11.133767609948267 17.35039070671335
As 13.991160356646288 15.740886059581388 11.448102290021847
As 16.620111202982915 15.634811048126148 11.7588899863084
As 14.968469573279833 12.859750036811459 13.860891761172045
As 18.577512856852426 11.927156373004044 13.820982518065295
As 10.885055828682752 16.871966088229822 15.989093067945623
As 12.159933028943753 15.49436488709531 14.23615368525813
As 14.265011828133117 18.046426642654193 16.56546872146446
As 16.55705083031604 11.735275376645003 12.335598020333114
As 14.30649606279392 16.71139762784791 13.885950931117106
As 11.605031606393815 11.049989268418436 13.69803888233552
As 8.260437155390735 15.827408789356639 10.903978498904264
As 7.410134099016983 14.899995640196208 12.822863777312923
As 11.587635345968328 16.763629253252073 11.517489518703346
As 11.776817171160143 9.4285164453458 15.432854992703565
As 9.003332525927622 15.274303013538338 15.924635459200848
As 10.914600235584938 14.868393855642623 17.472735761479825
As 14.218433200981579 20.187862897491993 16.498822308750697
As 13.87555131017181 14.850878312397672 8.934752737777973
