39
Energy = -173.8153707 eV
As 14.070964504598265 13.592095797217805 7.14626486490972
As 11.602599664778626 14.039113746622279 7.101810606529538
As 12.266258955782478 9.877892793162118 7.802617739758571
As 9.131269218913763 12.904435470063117 9.055618399883041
As 8.09029593458394 10.623054571579466 9.123136299420166
As 15.060139387145554 14.952410740306531 9.004067278740544
As 11.423600222157368 14.783965248649602 9.497985047536353
As 12.525259623458982 12.242815407402867 8.55282613584471
As 9.936851421695215 9.145659675520967 8.447317314914327
As 7.7666890810198925 14.640191157890555 10.351637617260014
As 13.159054318993352 16.522457736138612 9.518396170387165
As 15.377896825110291 13.30263448548568 10.835405895687282
As 13.83795861603485 9.371633044427089 9.689765716576302
As 9.540180565093195 16.37768429817932 9.95674908551616
As 10.005336590990227 7.935600685274879 10.892990933170982
As 9.02949697965858 10.127079346024596 11.505273229806768
As 12.55342612652477 7.566667078812052 10.70294455424559
As 10.387703991419661 12.30634207124396 11.205759393831835
As 13.63821855534215 11.386061107548757 11.283237190064149
As 9.143940529651081 7.4427877351448295 13.51743307047938
As 15.640194990428826 10.69993550110186 12.617076763139877
As 13.733926591271114 7.038449742046837 12.82767688267167
As 11.968428210672599 9.833705640960702 13.827932430762859
As 8.473331594095896 13.4600940796103 12.415333072783387
As 10.565067975408313 16.841709881404263 12.197475506319702
As 13.529435683398018 14.103918471911557 12.429254725259012
As 8.194101359473615 9.63840981474897 13.921370359046197
As 13.076719056199073 16.572286075926076 12.006735966850496
As 11.298949806127338 7.579717067943289 14.699759853305796
As 15.348823800068034 8.467743599058204 13.658541738203992
As 9.769880202412741 15.048459806349646 13.80693888868975
As 15.772742643540715 11.962109714091916 14.801326799671441
As 13.16305976389088 9.60558358100496 16.0116092437785
As 10.06646842097099 10.787671236596553 15.173417412806248
As 14.933240579394804 14.327519591443869 14.467600536625634
As 11.459596958289627 13.246140998415546 13.881916816954485
As 10.78538520959604 8.97302379045609 16.75295730311505
As 14.001910940936492 11.863096009482089 16.581860581625943
As 12.803143638980576 13.941391738860737 15.861527111934823
