35
Energy = -152.82931922 eV
As 12.230940397318713 12.728826437776325 10.719469588675885
As 9.94595668960786 10.836497676968563 19.534021843766496
As 12.13763555914903 16.83164979145677 13.244418834089014
As 17.427102405171823 8.273272596129663 16.8177649359078
As 14.52287257383912 13.40948483538983 18.646316186378254
As 20.118908195222502 11.643661680875491 11.020332616221543
As 12.328139365710177 18.451357451011926 9.920386933013228
As 10.01721238180589 17.98320606159328 13.105515129665788
As 13.785449154157416 12.81121202591685 16.37357817329922
As 11.542515255903497 8.402315411747713 12.281237899864353
As 9.635665173642955 14.781551704679375 15.254015827401576
As 11.693199277125077 14.538163279083255 13.967995440906623
As 11.885527475180712 9.080008328699101 9.917131166647449
As 12.278897539919068 14.069287372752425 17.852148416295602
As 8.645965108350481 16.80085102797526 14.571202060287636
As 11.28820960749368 14.897646334558553 9.871564407320177
As 9.285884178470656 11.380572828638202 13.091624305727523
As 12.034029262830572 10.714981890580269 19.88075443693454
As 17.278867959170455 16.302098994569885 9.58650040402018
As 18.768391964733564 17.61654645104176 11.031893569263097
As 14.28070024899275 15.157840029873032 16.920725674874788
As 17.610688138855984 15.625655308770853 11.922362800269962
As 11.151125656336822 10.233570710865642 13.830012104710628
As 15.38138357874436 9.32762939728704 15.947080721185365
As 19.746651703733953 9.566327354893481 10.835069192165902
As 17.31566966140086 10.715244308495228 16.547947767954163
As 8.71829502714915 10.586603414407094 10.824708498369416
As 10.721820915591472 11.221546236976343 9.440680659561318
As 13.120099128760222 17.96565789800597 7.622248963660782
As 15.999015023738915 9.618047813053435 18.304065216157635
As 9.634432401946576 8.25409020127596 10.748930415102656
As 16.32970731479418 17.66627506903937 11.407918978255134
As 13.034111335350545 16.284907026073892 10.972922373327789
As 14.544047383788659 19.105352540551205 8.979273878609153
As 10.383729300773549 13.766466773187394 11.947990007731837
