32
Energy = -143.51538983 eV
As 7.279787434972497 14.961281347270896 9.874222888460901
As 13.551869442968325 7.0486197771131875 11.6019018600975
As 6.603192639119976 12.909806266777297 11.071939059460359
As 13.300344976657986 13.13578019346984 15.823191468772736
As 11.620769539366753 8.20451467818368 12.641055515684068
As 13.15888942924299 17.41296843128431 8.727047891818042
As 8.033644782504643 16.662028166143298 11.526210289975626
As 9.173470685033626 10.2515594498949 10.920873770190198
As 13.943054808257823 16.06404325328447 11.667867567382455
As 16.351754425060722 8.573805771823782 14.297989102609879
As 12.350203763067688 9.423437229211395 9.132289046967681
As 15.626556540403378 7.9219235941111785 16.591810228261597
As 14.544913521003199 8.482971331978986 9.827144165249106
As 13.297590806243308 7.488597671439236 15.90059208758993
As 14.681623993734167 10.225579213730576 13.491017204079322
As 8.556607792539591 12.087635942251625 12.467218139726178
As 15.172080886625565 6.435963262336903 14.655583497991216
As 8.788491685264542 13.727827148665508 8.29796872935275
As 12.238465713580716 14.105921479914315 13.733770199116021
As 12.612073197412721 9.455111154870032 14.571560459150549
As 11.893002952224917 15.926235410353147 10.230594252013459
As 9.248211890603121 11.332223737456173 8.705366415440889
As 14.246058917078363 13.659963593363107 12.383081377593204
As 10.405209533139487 17.414328570248202 11.59139328527191
As 15.269414153119774 11.68277846938576 15.424714494176056
As 15.329406055982936 14.04041528120062 14.632107854782586
As 9.589287164984212 15.631676121217478 13.148031421656903
As 12.68969275265713 6.961723371865175 9.267963669983233
As 6.912804798309317 12.071840617234546 8.661356371297241
As 15.103822160190974 16.459541055742186 9.533921046275387
As 11.643520241033698 10.303950517295885 11.335949633654964
As 10.460675564587662 13.612440137855657 11.940759252891047
