37
Energy = -165.01341186 eV
As 11.284382544937262 7.388485058512853 14.347307709223786
As 15.192529710104331 4.532066906608014 9.170679428360712
As 7.42595044427226 7.319315510722014 13.68607476041068
As 9.598892376588301 7.364822448673241 12.500182324781866
As 11.004364343611488 9.183324309518586 16.035046193524714
As 13.260364369216852 5.994016740086662 9.58119186118417
As 6.4709373607650384 10.002696326487358 9.498119153237797
As 6.203400762425216 9.385103750933254 13.11333542484425
As 7.13169446110201 9.1086815837965 15.398664262472204
As 15.46802200632558 6.602614555088764 10.473107176701317
As 12.852368781821912 9.32049784660818 14.366090920044142
As 15.04791144971128 6.716721758284484 8.05390453600265
As 7.794628546173869 10.872933000330628 11.863856268297715
As 9.028953359350707 10.686888062842337 15.697858084646155
As 8.316582966279293 8.392271667764456 9.247468244842421
As 9.668671421512315 9.42390118128655 11.127558847419907
As 8.485963414097098 13.958377951052228 14.51022123350659
As 7.474860999130869 11.477882413714292 7.760366463661841
As 9.465599755277463 11.860507995770982 13.577109077099127
As 12.225209210768732 10.90864935339191 12.520352951358586
As 9.733097755177797 11.780752908159416 8.798630232909865
As 14.271138413387611 10.626766073682793 11.176987893081746
As 14.196408806803138 10.929785706897858 6.568010128426211
As 8.032036865045207 15.469462064059973 12.589517748704836
As 10.25031915746375 15.563620995329039 13.718498928760603
As 8.455713461151294 14.278599436100663 10.436516529622976
As 12.213380396104945 12.131723403639802 5.614079156681141
As 12.949456732714932 12.783052505902502 9.608487266594134
As 11.191611148306174 14.08692580265599 11.897698063312104
As 10.45168444795235 13.318005740358247 6.963152105023476
As 14.271543312914783 12.31353822651957 12.959667998399762
As 14.979876990792768 12.645591033287788 8.191680750135406
As 14.416004216914121 13.268541874410616 5.815766194312575
As 10.47246353265837 15.682711698968925 10.13799085176016
As 13.676804743743414 14.282411323414655 11.493910405573537
As 11.932792538984396 14.744866410294739 8.329369932257036
As 9.30782174840604 9.79732892683862 7.374983444818104
