39
Energy = -174.35005817 eV
As 10.155631130648123 13.16698751083147 9.061016515093058
As 12.618848760166044 15.385122171329483 8.10457207882925
As 13.007591726106998 12.930681950765388 7.4885214797235955
As 10.654647380766368 12.196838660103849 6.895962365378553
As 10.205382887105023 15.565966488190206 8.793983199716669
As 7.79500883684111 12.447568610427304 9.244374028589764
As 13.461850840394453 7.875490018741905 9.649647847804278
As 10.373365516709617 9.829592677054945 7.768990584892369
As 12.693279692305387 12.48768164613211 9.954561492790537
As 8.220267931396199 10.01757833074216 9.15412930839079
As 10.351768436982857 7.168660961094022 10.019987040593243
As 14.213899895664603 14.411603407162861 9.835809692564437
As 12.31749770851076 6.49507078611576 11.395949668214431
As 15.476310081531183 8.712270648817267 10.911331550151713
As 9.576854992829377 16.18906667779313 11.302856891791489
As 7.950651502844448 12.896242411726504 11.70171870245028
As 16.954746152088394 14.47749419117506 12.004312903117043
As 10.328913816704956 12.485090229882982 12.415559926147191
As 11.491508770799419 9.441706720682799 9.999233218069852
As 16.942468214475834 11.969011481088465 12.130940488984836
As 8.534742642360303 7.298172395233338 11.829724130014668
As 6.930700074424899 10.93295151511164 12.717248531230886
As 14.673505945908605 10.918586501867996 11.791763352470252
As 14.614625672524449 15.450660457820577 12.067620693748797
As 11.315923822290122 14.796891719435049 12.407836523571957
As 12.552660109696033 10.885672362078315 14.504078099483745
As 11.596642172319767 8.32654108693506 12.970539373878037
As 7.435664901874491 15.282363086054517 11.771019273797938
As 8.846417240330403 9.813474474872935 11.684813210651216
As 9.78956832508064 6.976944761794719 13.877958492725048
As 15.347366919564466 9.079365942902454 13.370102378541281
As 16.443937521350218 13.308767596713285 14.151342127477086
As 14.005694333485078 13.482105052345277 13.457174980632837
As 9.410960219992266 12.890671255035658 14.712688285995117
As 13.327761670351217 8.48955297332759 14.738633411464736
As 10.747712281039838 15.035254147277227 14.828009708796557
As 10.674773070248424 11.226698200249146 16.097184274299448
As 12.891709314464563 12.195538552342684 16.626830065128715
As 13.067674071983022 14.458596922905134 15.560508686959048
