31
Energy = -139.04704031 eV
As 13.159311710680795 8.226857575486198 10.045687217747098
As 13.993197846620467 9.50176949561383 12.007236670882374
As 11.70657452645766 9.054640114951106 15.489128777770375
As 11.834553339573977 8.553575863192753 12.96662294373526
As 12.261462311051702 9.62580317102281 8.459718942461683
As 9.483218468428937 10.112015691955428 15.79380141996511
As 13.185848381218847 11.772067236512182 11.35695353191466
As 16.01435796144161 11.069106963914551 15.150650900223926
As 13.151732020105067 11.866873927340208 8.876103948286925
As 11.54877361421819 11.457485464305975 16.06987034578559
As 14.994568362050858 13.35868901286095 12.056811408043027
As 8.49548986822548 10.206494521053754 13.495524660757502
As 16.76953844254099 11.902429993279906 12.946369190352067
As 9.033692153916236 9.942995670029578 9.888441769026405
As 10.456414894784656 10.378479837276867 12.051810068944881
As 18.05585415800806 12.343442847689616 16.03467108503835
As 6.748594297336083 9.74334102036382 10.595039739942596
As 14.776399131997143 13.054049792280367 15.959250187120531
As 11.758820198198903 12.258666134095249 13.708757284715992
As 18.115633629076587 13.72489582971809 13.955193138568827
As 10.922005556318144 13.101241837758007 8.975495388853124
As 11.665948225787135 14.912119416185805 7.459926430821133
As 13.619135324228033 14.041375829694225 14.037970838595628
As 7.936705995414765 12.55464140889227 12.853034519452372
As 16.795187154498958 14.499842762276256 15.89898887800669
As 7.6845876643840345 11.981876822535847 10.359273623410607
As 11.403877064527466 14.42061263357406 11.051475152605946
As 10.016228972865695 13.942143055785671 13.120062617889783
As 12.023820883086632 17.066217735496444 8.707079835954488
As 9.77909871018674 16.463211614300217 7.921540226737095
As 10.270637669683822 16.524305257471564 10.368777793302952
