38
Energy = -162.64494689 eV
As 17.38947993829497 1.5020306495947608 16.189181994892383
As 21.108716227430712 19.36316702969276 10.188687845175396
As 20.722173082808965 15.614393152030164 19.099235626668577
As 9.901858203771274 19.291365121169168 16.72169661373264
As 20.95084732452757 9.633514786395068 19.06860013719537
As 25.262744163068177 23.5490003308387 17.00753949507977
As 19.032768181700078 20.853079260475003 11.279919955465944
As 15.206533861406223 18.062305075653953 16.48414922084234
As 13.028499002146278 17.450101277868857 17.548083038273514
As 22.635180083676588 12.807109222166122 20.325412638495457
As 22.767372761150966 19.022898061073985 23.101400923436984
As 23.02193440067863 17.20752630462347 21.41227518284428
As 16.33117300896213 0.6853671117292881 17.829491907987528
As 21.7483011672505 17.892639350314315 19.36692940107065
As 19.428254448838445 17.46411324030421 20.138449350608003
As 14.231054214546079 20.71467274824004 22.922989470686403
As 21.125021096940888 20.40095214299889 12.341502098888746
As 19.016067033922546 19.814445877066493 9.12803645444385
As 13.94320376633699 20.04752601592003 20.72715672944462
As 18.485787276091653 17.977719243308602 17.9117267748118
As 12.105021426105875 18.772848504147838 15.664425622065291
As 9.744045959101207 19.988048323698756 18.872456896969858
As 21.83665401915234 11.569011530076557 22.29741268116569
As 22.11432841663123 9.231204968226951 21.21375287865564
As 21.180114851590183 14.565020433311034 21.327519785944098
As 23.223803469288114 24.506015650200766 16.91362117835956
As 23.237809910747863 9.784430795383747 19.106984023783728
As 13.625349941500582 19.805902326059588 17.331536716136252
As 10.464552369336763 21.1736987049169 22.340524366714483
As 24.687681740127193 19.067825379489825 21.57644589049006
As 20.2597912559014 12.313979188333922 20.56658212326023
As 23.644721499082927 22.53678718785425 22.237855869099203
As 23.49645951561884 22.585160335378067 18.492127685356255
As 16.33586474496409 17.796645232346716 18.675689808923956
As 12.176572580783613 21.41628390900181 23.87779830149171
As 22.72608866109559 20.51502353653843 21.11561703617962
As 11.610463999113184 20.372896987433638 20.451083304684477
As 24.096099415735182 23.921179412201937 20.470107016649965
