36
Energy = -160.73601028 eV
As 14.21597249783702 18.21620434320622 13.034345309615238
As 14.891525355602385 17.55882791814379 10.75220676197101
As 15.380479593191282 16.34734198641873 14.321231276707172
As 15.360301215245558 15.024705053242888 12.217742651941899
As 16.359540761000122 12.802313894573517 12.945007751115972
As 13.157666752450586 16.508500464254652 15.463496100048804
As 14.121150822412885 13.275910978755576 9.69787445558987
As 14.3765574677813 11.936507648249954 14.230213063308383
As 15.915959415844059 11.794532831532466 10.704343683569236
As 11.91767068206698 17.28351632193576 13.400568359991516
As 13.033536418406344 16.706212649399372 9.697180271574148
As 13.168195917643715 13.896663092899079 11.95113730921068
As 12.795062897638832 11.323526196746002 8.870599720056932
As 8.683256946446921 12.482223021649991 9.854954712933115
As 11.599557846971159 15.753950646802107 11.448681146810793
As 12.326371417485833 14.44857812169684 16.608716268824928
As 10.593644942307368 12.272673138103416 8.184829847507263
As 14.913948494547961 9.583545992065813 11.341697931107658
As 9.182843534666459 13.426416992234676 15.463095095005011
As 11.500326837344657 13.287960073068584 14.564670880960662
As 10.047786279544281 12.374115252590753 11.93988443367393
As 12.477187149014904 10.0479396696763 10.989908703384858
As 15.713881531229955 12.242861287920428 16.28755786525043
As 14.61805079169901 13.923251968591241 17.384725729092782
As 9.753796975583626 9.955644455369889 7.716100532800501
As 8.061527176452769 12.813950511165473 13.39950100365909
As 12.723484971259813 7.719022968851245 9.951539948937334
As 14.791814470252888 9.517202231709268 13.867959519861136
As 7.711537205323073 10.252132870975846 9.178280443369506
As 9.25571213188179 10.498956697725838 13.372098611266514
As 9.784548032852667 9.277924612902872 10.097460000761757
As 12.480113835315777 9.069313339855555 14.839751199517119
As 10.370687410511703 6.898154567508955 9.677880746227224
As 11.603225065333335 6.537455987612462 11.821836419217345
As 10.750209722806524 8.08426181806169 13.56750601578952
As 10.634632499314039 11.129465459769806 15.42718129460929
