32
Energy = -141.3414402 eV
As 12.550917185887918 8.322964240940088 11.68385295473255
As 18.22381708136833 13.799044105961098 9.15027717279122
As 18.531739453437268 14.662239794016692 18.555317903091545
As 16.65158626898461 11.747969792903216 9.439234312167429
As 13.738969316859423 17.430240563231578 14.561774379156883
As 11.000222831715709 16.17393364035252 18.36490326307351
As 16.548632499163197 15.317843200170115 8.323654923526904
As 14.840234365947975 7.491926586593487 11.378809155432494
As 10.459146877503395 13.1437130109414 15.848188871023469
As 14.91544739930296 13.091568321037835 16.667410255068134
As 13.808718635421876 17.047362658100294 16.985965838620665
As 14.724955194372168 13.969203077752613 18.995404877149248
As 13.410617646879572 19.851589435791993 14.422048051392307
As 12.22106510043139 14.015383388856304 18.562198058116426
As 15.213523787235621 9.836397454903812 12.205282407289614
As 16.595622471433753 19.807449573163385 16.017725660086633
As 20.040923302059685 16.16057129782993 18.448206615434923
As 12.666984963124593 14.235758537677503 16.187652942554518
As 13.233945540651307 10.833951404907625 11.068521288191867
As 15.63219396788632 18.83502942435721 13.891143928342405
As 9.592650488603143 15.372067105542325 16.717919718210833
As 12.137047260847298 11.791057980004018 13.109287387772275
As 13.999217463325788 8.05149088705036 13.619995197151004
As 15.1954310556434 13.009069410780008 10.986946909656327
As 9.900855777934755 14.289094832174758 13.66414881932681
As 17.043562937891107 11.727697701325312 11.85121416915878
As 14.367866854867556 20.790881435156003 16.60285322950656
As 15.253030757127327 18.868690983915208 17.82960888321455
As 10.137334787581635 12.56910800026919 11.869731638905485
As 11.976543488386461 14.144090294761378 12.302305855707546
As 16.837628772334497 15.25681295786567 10.63129490097984
As 15.72702004321834 15.381387165046602 17.20482537453773
