35
Energy = -148.92410964 eV
As 9.50816737098422 8.60716491184999 12.271767217932194
As 12.698042868755099 10.028666673927876 13.196822123016634
As 17.514877916301664 19.327316064945098 13.937775388963804
As 9.361465593726253 18.548389483251988 15.489367763675297
As 16.64466545853478 17.769188667285476 15.792768474985525
As 12.387730039192022 18.483540192767855 15.471381154798875
As 15.121665151013751 14.320620711734668 13.910668733592678
As 12.901877893790793 14.74664116041504 16.434885434728653
As 16.306363325196696 17.991726569406584 12.205122343392022
As 20.15382408606026 14.967370712925995 20.077541293627753
As 19.04517727311201 9.74028214788248 13.578942783061706
As 11.27499134359134 17.95430575109325 7.260328801406776
As 9.77178355685564 16.582775507933835 14.09584275886703
As 10.85642700962173 6.738816561100207 12.671103934164034
As 10.538651202623393 10.674297442153124 12.551264010793998
As 14.407747519940715 13.637050007278566 19.41061690491415
As 17.324432855518463 8.904277864179196 9.672773443330705
As 12.897255730015058 7.696263665094791 13.271585153963217
As 17.325269117847604 9.226430521200772 11.81732000021465
As 9.769554078697855 16.409231495516206 16.605850245722944
As 16.692893614821255 16.225991975910958 13.87083825795327
As 12.701928329449453 14.76428111626728 13.905673088418375
As 10.591523613118015 16.129807794186412 8.260837683583858
As 12.118419809199343 16.932548808956827 17.335367222850753
As 15.165028253022816 19.908065534576526 13.279294324315819
As 17.250586375737434 10.94161793207306 14.805199241433316
As 15.668482071723501 9.301825974577563 13.729357998143856
As 19.800082131364352 15.327557083780999 18.0200042827045
As 12.136584140790792 17.10722079359304 13.43660956512322
As 17.607139872814596 8.53813710625951 15.188842961322775
As 11.959046850645645 19.77369255200705 6.2513641575690615
As 15.33020484230082 14.283937149804274 16.538608617876772
As 12.416013183059029 12.978743853492208 18.28925699089698
As 14.63314732546679 12.074263696223632 17.580222460572696
As 14.729907623877388 19.345456503135484 15.624357120007899
