31
Energy = -135.65972829 eV
As 16.24716360220427 9.725165869277658 6.963016596701176
As 9.968705675743777 16.571873114669387 10.532417088275626
As 15.898902232887766 10.179733846286098 9.075169518282175
As 11.079498672326501 16.884258399232824 12.794238069316817
As 8.611151356409481 17.46357023379029 12.37558994564083
As 17.81461330545224 10.355951608085205 10.622338204377254
As 17.405737756503964 12.678104113367958 11.550592886381022
As 13.884034997575165 11.352234722862041 9.990227597058366
As 8.658621454565457 15.082259656182222 11.959718356363739
As 15.000834698149138 13.276775722707622 11.076167042260145
As 13.371835246197787 17.38793474248327 13.890776179941136
As 13.039057505042493 15.363512257283643 14.868792462698899
As 10.813087254602253 14.524995869035724 13.579943174179686
As 17.087334822225007 15.687636670328361 12.561187046858796
As 18.68197594245602 15.358053953576091 14.3973511220752
As 17.316827867200043 10.701968364885857 13.041337991290197
As 18.128861852875943 17.338708682835975 15.912261607519598
As 16.169121886057383 16.024941360386055 14.77007641141914
As 9.31171100548475 14.780833180956908 15.528393815613928
As 14.115222248767573 12.844547275988996 13.37413837160742
As 7.815183161285736 12.893856687927633 14.899320166747938
As 17.98124706062818 15.758488530789077 17.71986369165496
As 11.997902539084182 11.700383256195567 12.610407191177922
As 14.923792124213483 10.498099599868864 13.710047894100647
As 13.456316964017324 9.767159468611226 11.871453193107131
As 17.27333951865938 14.095144530972318 16.13688623625665
As 9.054154354547443 10.736032735110241 14.966113537096078
As 12.301799439321176 12.433596223609179 16.48361835141177
As 11.522611684243255 10.736823014840388 14.93546630926068
As 10.32560646174937 13.465708916686218 17.42843504798922
As 8.470243871754105 11.787341322835683 17.089685338461855
