32
Energy = -143.62930635 eV
As 18.509282328329956 11.962958024514895 16.33173102366847
As 8.75966533493509 15.344262199165549 12.669187788472332
As 16.626607540887065 13.540572873871993 15.855250324313053
As 16.31604436859096 11.67214644345486 17.448283007483255
As 17.517398170473232 12.088785166414354 14.05846927344405
As 13.791092344840536 14.1321451369962 14.499208363492457
As 9.604984246449636 14.054318683299151 14.638159399273981
As 11.72265652778509 15.437767983249527 14.621584634569379
As 15.40435046181203 9.714640840686611 16.26436466895011
As 6.116904913444775 11.459223608123654 11.151658052488585
As 16.259960039988954 9.966614477274135 13.963884977307663
As 13.000511738921151 10.292177377393358 16.011586510814393
As 14.18831168618194 10.553785418678286 12.698245412183814
As 12.722062686533164 11.921359572782807 14.151976440512177
As 15.395614616171512 16.282028356777232 11.41515759648314
As 14.4959776381542 14.019845548270988 11.884110846713728
As 12.987424338633446 8.755279264560553 14.014304310681524
As 12.230790295755257 14.035708995598151 10.869943653782174
As 11.202792748331964 15.899725771125118 12.206084514536792
As 11.737008057342079 18.086282863331142 11.403552229212739
As 13.652298164858815 17.45089388357793 10.067438365476617
As 12.560434906892562 15.552234287719642 8.96118358179563
As 15.543359848263984 13.019247087246788 9.60406034355474
As 9.390056888728882 12.959796333492124 12.411134832805912
As 10.619946116183517 9.288154175769735 13.288265633445278
As 11.095099408647823 10.116073396581678 11.01434400680373
As 16.50069212079263 15.308719947659629 9.373339557677358
As 7.198123437590988 12.05047769667811 13.24692856458551
As 8.790551804342032 9.349198025795761 10.468397092995799
As 14.605496407042239 14.527176917071817 7.935844841202092
As 7.226044780278603 9.69161006774369 12.421477985987313
As 10.507568847190045 7.745902389468874 11.329954979660183
