34
Energy = -152.16613875 eV
As 12.518908715342821 11.760853988735764 17.856643177742797
As 15.108084830114127 12.628023407633734 14.491313366102952
As 10.52303124099994 12.632267257231769 7.437851039351135
As 13.63025151880164 12.868375861579981 9.045545477415825
As 14.61385624111513 12.407605542466584 19.00586736878039
As 12.771373864378852 13.240257381513793 6.72798274921182
As 17.216164675741563 13.980421356478523 14.27242628984971
As 16.17804029262554 8.764710903005344 15.000982441951757
As 10.455154133860688 16.478827077984356 7.665121513412284
As 18.795937650608693 12.284060814425262 15.05408099831761
As 8.41067450857014 12.673246976338561 10.02884872626671
As 12.587740262595306 13.665062917144601 19.613616204201676
As 15.921882111309902 14.320411500695117 18.17638170354321
As 12.437319287378987 15.750332558640295 6.4471830207312655
As 12.548668333146425 15.72497706025559 18.320890608383003
As 10.046897527285338 11.156461261229415 11.000928302078522
As 7.7108570755806625 14.126869792833094 11.925125089771132
As 14.752127054387024 10.641423030574837 16.010092425276618
As 12.726641358291232 16.66246476066648 8.706707435068914
As 14.604032140786794 11.281044175930734 12.446142786278543
As 12.471814704555843 14.627744328357942 10.250741395152712
As 11.422277873108605 12.71195303279596 12.410099173551187
As 16.343016154968808 9.49684519473161 12.630546299855231
As 9.797642885490998 14.473786659625558 13.173397701741548
As 11.145617368983478 11.370330716615046 14.539522595102213
As 13.411859949224786 14.4423261443994 14.924089580390904
As 13.221169007148603 9.992806814071171 14.12012857953014
As 10.159426105811766 14.444048049553508 9.297414670985148
As 17.90859555284 13.993831971524493 16.64818081032399
As 14.448452812672237 15.734116936619074 16.830447888671507
As 18.182821872694422 9.953886599913096 14.249694251518605
As 11.620705642379333 13.265318864696198 16.095035631813982
As 11.681751289549425 11.16161401735219 9.017111187719241
As 9.292331651782712 15.948818738511815 11.244985204038827
