34
Energy = -152.28021847 eV
As 15.382984737154269 14.84392889604961 8.202119216337987
As 14.005014856028186 16.84153380182444 7.631750498724782
As 13.567566790115997 17.859720237596267 11.229624846163242
As 13.754639588494104 14.720092548616329 6.340380347417364
As 16.8383311804256 8.713980785453632 13.601055828942613
As 15.91537484893179 9.613739032678575 15.812908531269729
As 14.036933373166585 14.436940191741124 10.317574805501453
As 15.395937055248385 10.448114640670703 12.537437493489993
As 12.50556841489919 16.26350112300296 9.576196362136042
As 15.233836223736422 16.153979529787883 11.863784735352782
As 15.168084661850436 6.945933484372095 13.990591239710135
As 14.283441479973852 6.796364139650516 11.68195337334697
As 14.114745180093397 9.111599677897408 10.847722640496185
As 13.227700633432761 16.475764409146194 13.253863841237491
As 13.758865855939142 8.38475082655417 15.44617115534767
As 11.703526870266343 13.491068837506425 6.7885079067978715
As 14.00863148295248 10.684141107050099 14.578211308516607
As 11.22893338775318 15.003582373852677 12.715196762440932
As 11.743135086839358 13.76317112181845 16.45433365271434
As 11.763553296481346 13.217839653981285 9.138037910529807
As 11.758426534336632 9.664357904814704 11.48497224779615
As 11.625277803361087 12.529739970024874 12.946857108908416
As 10.694742694229822 11.932918854773726 15.216553615097823
As 10.023715363731476 14.672914135561621 17.943492093940236
As 10.606082900260423 15.822875653408747 15.7550202779077
As 10.384702029928926 11.2403899635476 9.708050601666395
As 10.117397113682298 14.621022216875758 10.4778997059588
As 11.955160634649594 6.140696763160687 12.22452716829279
As 10.85963243942217 8.080547520617348 13.277993203738733
As 10.511791528493603 7.598902370682238 10.853980656620736
As 9.474807696670197 12.43972237408143 11.652518587834347
As 8.372993214738099 12.667208484479453 14.955036283854747
As 7.819298264181075 13.962231683685838 16.962020119331523
As 8.403048469322206 15.100607375826788 14.77753756336768
