33
Energy = -146.24220312 eV
As 9.609982786805173 11.979563498823481 16.388144456132938
As 13.307974064917241 9.962839036384436 12.728141892662315
As 11.176080529083219 16.643591345951243 14.258562942074626
As 19.041917699229575 13.682910453283771 12.694990357662528
As 12.936842016911262 11.360298164121708 20.261065235317744
As 12.978285312586447 18.22690750340349 10.865548689025708
As 10.650603770416401 13.003430587109026 12.644355497536512
As 14.377393732317012 16.559570984537366 18.962525678915124
As 17.3890778698505 12.243777184538999 9.379897640427378
As 13.337352201483402 15.510260532251957 14.359954018007212
As 14.685680455443393 13.072626316997894 20.516728286750997
As 13.10051079550335 13.447632954099689 12.931227232220607
As 12.320823338920189 13.708047679788612 20.669949241060674
As 9.30441738280533 14.248131155358815 16.173140608565305
As 15.511487552037114 13.844813657680914 9.39823941393716
As 13.25736779070946 17.52984788679414 17.312090799337636
As 12.094109046806201 10.037195567160762 14.897013006109937
As 13.275319965913003 13.05980216017839 18.499537400104032
As 9.46227345298869 14.844701945359471 13.791574473864202
As 11.92653661986455 16.145849753243162 10.091209571048115
As 10.851866947144691 18.31122385262803 9.635495247176326
As 14.170781829457727 11.909214484462694 10.105891012549975
As 16.59307709760673 13.230752386976253 13.116383817732114
As 15.942253556520606 15.04458158907625 11.591276761848025
As 18.384355452654397 15.594008018926564 11.220671071655563
As 11.930821253559124 15.536209404222184 16.393725352104518
As 15.081540570237099 8.325441830627348 13.269090858075403
As 16.92209620293355 9.208542175338 12.25448961429682
As 19.346287564198477 13.53582448279066 10.252591869188754
As 16.194167142588743 11.433951134563788 11.360058139292393
As 12.923719772727708 17.697080909321482 8.464970290543468
As 10.009983741562692 11.133369937985135 14.133796794725058
As 13.92233281443976 11.663528140277968 14.445783137730466
