32
Energy = -139.290168 eV
As 18.55537401072535 14.245434608223231 11.635770464342901
As 17.41417852643019 16.083252185912862 12.390751860824999
As 15.535191159348024 15.291513858839705 15.563262477545425
As 14.441688631602114 17.149220150244663 14.277487496267717
As 14.939932007697498 16.20000324012804 12.034896291537788
As 17.051745124386187 12.299860057621757 11.528875897867032
As 15.649319113640745 12.45581296201904 17.59342003189718
As 15.500760606623071 13.243852403360785 14.135445389025863
As 17.865024132112694 10.836690152240278 9.71506541513171
As 14.402752191871897 14.647772743460221 17.728613825983984
As 17.13661882486069 11.615833769627946 18.94254218281092
As 15.173582582953493 13.259398236817288 10.285516188772862
As 12.456148922411291 17.578134043458242 10.476659235063705
As 13.899442705151525 13.95232809184208 12.342589320167837
As 14.635196262034837 11.341818108747466 15.535113572370108
As 12.465589281068235 19.70938764412869 10.58026262122858
As 15.955358847890471 9.821407940924658 9.00516095485585
As 13.96074923008564 11.125324130838436 9.821677263851466
As 11.909679458125535 17.143763930519576 14.390162572785947
As 12.36184561433294 11.538404881254596 16.459927182738237
As 13.51008035679279 10.396828738921446 12.178843363517561
As 11.59054752750391 14.781541126430644 15.003318147968658
As 12.189079749358694 13.66218637747777 17.57423492287898
As 11.677115194192053 12.032036010717366 11.688376644057753
As 10.990667969553861 11.913703792545308 14.168459023704866
As 10.873236344104361 15.61167211360566 12.685698151304248
As 11.260043117294462 9.560719467855824 11.469779463677405
As 9.217139358841933 15.307147926182315 14.573325372788798
As 10.190412476775926 9.55922277674867 13.766997539385828
As 8.747799911061442 12.826868433211628 14.714158454759666
As 8.228333896162198 10.056405774812019 12.325316403746587
As 7.527965615003411 12.202503757467758 12.697183630280763
