38
Energy = -166.98133382 eV
As 18.92485333868955 20.78281794108583 12.78557432403778
As 13.927570682471485 19.80753776594724 18.48956243901968
As 20.788783128774757 19.840605920504274 17.142971882235233
As 11.917848388827744 21.030228382453693 17.723339578584497
As 14.88791434628786 13.496496485020398 21.591609207412578
As 15.693814626322531 11.331931925643193 22.617501669712237
As 13.06442720933015 16.793871876696038 12.142007064683579
As 13.15086781200513 15.6738742948112 10.06609406392164
As 21.570369294844873 17.07102842478135 19.00790873112813
As 16.049555072214126 14.889880977943516 11.971531066322328
As 14.014740267339628 20.29489833011704 14.969496449433509
As 22.991520610028804 14.817003428473518 19.31713455296595
As 22.85445420753362 17.82408010820967 16.99246772451699
As 21.464156056692875 13.068345071596783 18.525880080802672
As 23.675412939545428 18.313959970042387 19.26073439554084
As 18.02253362715385 19.43153586955651 14.648005257316319
As 20.01746698501932 19.317314160749483 19.312254033613144
As 13.979843296111284 11.398643440337219 20.9915822624431
As 14.737285497768637 13.621418110821292 0.9520658245745219
As 15.04447903032243 21.49720577795136 13.005535555681005
As 23.343877269338247 15.269326875446383 16.928798603879457
As 16.693836418265235 19.720691473430232 12.56675405028247
As 14.9174858127492 16.304699618563923 13.458665234166729
As 20.401445825559342 13.401795091636055 14.704275841970187
As 18.38229423572969 21.869478024122667 14.944180505442555
As 16.250748356860075 23.024882596383044 14.535665652934723
As 15.070398506215419 14.372299842897636 9.916984542493228
As 13.021920182690215 13.690165388743006 23.465329688720114
As 15.06037272381913 21.93391550599345 16.51939505282986
As 20.905279534529708 14.692380701791963 16.80218403666589
As 12.372819672511532 22.54343013875092 19.610338709809763
As 18.104888286222483 13.614070473670811 12.563286466721035
As 22.18470543262402 20.456229555080604 19.103446977137715
As 13.826278108774334 11.524820394996862 0.35265645282431857
As 17.97898492669282 13.90960517589258 15.023403527846577
As 12.75709202078755 22.297670405779225 15.713383596936227
As 13.416733040122473 20.691466680405618 20.63883845181551
As 19.3516978665331 15.440462460023861 13.704545102176727
