37
Energy = -165.09035012 eV
As 9.969303324753131 15.712133816707395 16.922256491343795
As 21.377483666418975 19.809043517489982 12.291520155579683
As 21.180000607882754 15.853538492220567 17.555458198879634
As 14.905444305159582 13.324254722511746 20.330595297902743
As 13.730199089200209 15.860577767326776 17.42229779684121
As 16.439562863746364 19.85562239537524 12.392033935071158
As 18.49054853319872 15.248006715050737 15.014320493172418
As 11.79143396855528 11.16957406377172 19.374499333812974
As 20.105985915270825 16.999526041651674 19.402346346632605
As 17.160502758675648 12.28063902416131 20.03899414784803
As 16.665296642301595 18.620553364260495 15.961028645878425
As 14.591862357563711 18.619969097230957 11.222211451509418
As 10.122287205059934 16.262371528307874 13.190745258219986
As 12.675357130249939 17.52886614764817 15.957346286623327
As 18.02672735093429 16.011793580913462 12.695876767775234
As 16.220463554518126 16.244132393674413 15.466525481423623
As 12.18790335239396 12.691799899282957 17.442543606186725
As 15.401112992780323 12.084187796130372 18.280106060765913
As 9.833207547359983 13.370798046770352 17.872127746216545
As 13.20898138091129 19.070739264694243 13.289011191808287
As 11.571905078835256 15.46106841708462 15.001337218513026
As 19.836250154822434 18.3376379638533 11.074195471610325
As 21.749084282324766 16.280112589299396 13.891306623311444
As 20.39204349395221 16.022693451145756 11.819935627415902
As 15.193834688811354 20.07772710504549 14.547327467817347
As 15.928474711300604 17.08289348485792 17.801131731557266
As 14.222937676097377 10.942023365707414 20.147184779831957
As 11.661549333629841 17.055339764229036 18.216609199930165
As 17.96645261035894 14.454864521239967 19.04890668423488
As 19.972047385406466 14.761426685411651 20.4747343656882
As 20.170892981426267 13.641752149806347 18.236914625795254
As 0.2243929314242544 18.619993373955204 13.86687720162224
As 20.090605115282 17.060271131849387 15.606539321054484
As 18.38186579137398 18.45740813812399 13.111905167579566
As 11.686301926253025 17.045976840225524 11.696102424703334
As 11.591775435400267 13.63351535542004 19.617125274668894
As 13.954066880259962 16.77990842019769 12.781328735556267
