39
Energy = -174.09141504 eV
As 11.844646678089056 14.14662637394356 8.18738533916217
As 12.164857039219347 10.589560409013675 7.706164188147452
As 12.083759483567121 8.073154889555362 7.391383711464882
As 9.630417963231048 12.877861689694972 8.402352286789837
As 14.628169912365703 10.981216842515888 7.571182764356058
As 11.596495058495229 16.392738758953875 9.390456349963271
As 8.028133769226514 14.763025909753397 9.079074945041771
As 10.150202466968848 8.38097685387747 9.034240669755196
As 12.941764870952872 13.272600463068855 10.296647950931195
As 9.875676801060397 15.129748725831753 10.615450373234124
As 13.442415996437378 7.877134141665915 9.489565271996238
As 15.202536212605715 12.536292104863522 9.48452885372333
As 11.93772319167908 9.81538524729405 10.102690009213793
As 15.530982679512013 9.1278412323249 9.00547955821704
As 13.462960325421294 15.611556671383083 10.953956075322154
As 9.246189977179508 11.699299224596029 10.649359553091001
As 9.983993412278581 6.576455860353388 10.825578595802659
As 7.149430081394005 13.126062802224967 10.797174283859459
As 12.153605630754562 6.942241759959413 12.126385134228622
As 14.946684963022124 10.529367870693989 11.00756102952641
As 8.875489093880278 16.340598935001847 12.597260608665154
As 7.022966892700174 14.668731586846798 12.798365943169467
As 14.237472620526384 8.69721399827516 13.588585954016795
As 12.447859303943684 10.336207256850757 13.796827473475819
As 16.730638666418 10.043587409028142 12.63672049697101
As 10.842657995914294 6.8307739537111605 14.279780350266385
As 10.210976964702466 8.426401389491811 12.502784580721725
As 10.746978013278623 12.405475140377149 12.52966567062844
As 14.956184671608485 13.114668097214187 12.858496561154247
As 16.420927695681286 11.831128766742792 14.16609533168873
As 12.641346769285846 15.920855757080316 13.33837308564972
As 10.480489395890014 14.764753446758085 13.586996222877383
As 13.892729253850668 14.211241454888636 14.731108795643362
As 12.489536553264234 8.419587322993424 15.428929008389566
As 7.683903379594645 13.286777154670531 14.828818506944657
As 9.14278072110358 11.349015416002551 14.116898949648112
As 12.819666786555914 12.019284830530207 15.637667780138893
As 9.629787162702105 14.458450773032283 15.886575543322145
As 10.367499043337054 12.06663697663564 16.213969690499553
