30
Energy = -132.77998559 eV
As 10.847160843759678 11.920130398466215 7.515016908931304
As 10.200197890317755 9.42463279098592 7.455499381177972
As 11.092110025953232 7.804453321338768 5.755552909076151
As 13.330090536879915 9.821812234156585 7.361083208315225
As 7.870520703157278 9.164453885982358 6.649067365497067
As 6.5488877896869955 11.86145672007119 7.923009222238917
As 11.976506645113314 12.342453883966474 9.681603880147781
As 8.822446121370346 6.8368234764841835 6.470838957692202
As 7.797605860414232 9.936870621384989 9.093148169846858
As 11.817881064161192 8.04812484978773 9.146363890314085
As 9.113016419653782 5.3973134950785475 8.54025189513626
As 8.695016242515614 13.161120464817015 7.983957593654268
As 12.544017966153174 6.461040275799827 7.340371358893239
As 14.669338253384657 7.817034889375196 7.81246751031728
As 14.23079325595406 11.3938729782134 8.963836300389625
As 11.707995070955848 10.247367316969529 11.090754162820453
As 6.267282374739502 8.148741940896755 9.986228519599939
As 14.249122094302956 10.031497119152071 11.08883535808641
As 5.575581869761848 11.095249203386514 10.856961909977379
As 8.882769760207553 9.762599690820508 12.19343079961322
As 7.867978499981223 6.269984224917009 10.500642374305528
As 14.064044421507125 7.6879274054709805 10.251578016266004
As 10.321252072555785 6.424704202468791 10.47158743920418
As 4.952783544154127 10.310040312619817 13.208247852487194
As 8.460810786066677 13.682074855726562 10.395585310323542
As 5.649360280414945 8.056316201604721 12.477759419989592
As 10.693552223633159 11.213834328131274 13.047633627964865
As 7.657401063212748 11.904840175176092 11.947931631826014
As 5.96790542896053 13.42779984190398 9.803780918358491
As 7.140958350858845 9.359816354635871 14.001361567337675
