37
Energy = -165.89277318 eV
As 8.814126553996445 12.364419863990001 15.387848343213404
As 10.109873979324451 10.37158384119638 15.505054056797135
As 6.382824097973077 10.195074291361607 13.376983881038656
As 8.616821975297704 9.103142405692694 13.527200367399768
As 7.883713683251989 6.792034057749109 12.792175727484436
As 6.760623125911348 12.61690772436418 12.813875990227276
As 11.457479947213097 8.186200477559455 12.272768081181937
As 6.362093186958863 7.020956977847895 10.834507445992676
As 10.077091440456906 6.069104128902992 11.910877149992022
As 9.139250307477335 13.246969482461651 13.118646746512978
As 11.978866558374332 10.799925722820381 14.096516312892321
As 9.703527753171304 9.76748215394737 11.413876078903037
As 12.925565629283227 7.533304349662854 10.344611148359453
As 13.707026293976336 11.640440635062484 8.711316035299712
As 10.93915905465323 11.800765555815442 12.126780116922262
As 6.237732368666432 13.050901165326401 10.377993511740081
As 14.38660022417977 9.530905431743907 9.97427310576942
As 9.676813504450235 5.703129296849323 9.474827646134452
As 9.429883978190082 14.848192803954133 9.129664993305404
As 8.525760395831124 12.618468152985315 9.564163474917086
As 11.203784202277557 11.601921201499852 8.583409978727707
As 11.128052927554522 7.567256266709678 8.60852713641891
As 5.270093247245254 9.239242085894467 11.358839754657016
As 5.202490036812575 10.969043491138745 9.520180654203942
As 15.166556532580517 8.60528119048506 7.775141104406713
As 11.4476944491078 14.05089721278892 8.33470612595938
As 11.67771272703904 5.95373816787923 6.7201067498052725
As 7.624722138890186 6.931222643686279 8.681460557434669
As 14.722367868293778 10.78771446779524 6.575383226122854
As 10.119773282976714 11.466836233803114 6.257672372512313
As 12.966652733994533 9.078561608065606 6.756315976888716
As 8.630331652541196 9.183140641178817 8.434856958850078
As 12.86977260563793 7.326207340259951 5.019461091631422
As 10.378459663410952 7.2344932398874535 5.012149403867827
As 9.080134603987794 9.196015284376587 5.953830518693928
As 7.877010549620478 12.34376275857735 7.152482080783198
As 6.541899910264564 10.227100837551525 7.523859285823453
