37
Energy = -163.28934522 eV
As 13.86794819218879 21.217027115307484 14.358600148694991
As 17.24459946371034 20.981908682457778 21.99707596867329
As 14.649723761126747 8.023916542278863 13.337026339017367
As 16.225093450930125 21.801701586421544 13.773533979021169
As 14.25634468056757 16.974556456772806 13.25249080951087
As 13.110389884435497 18.842878969568368 14.451810453072488
As 14.793536655953192 17.421898300697535 15.623869722938283
As 14.519545573162858 20.413751903657154 18.436927167307633
As 16.001481916594862 22.41503470541438 18.48182383124704
As 16.099487357190963 22.870661947332422 20.928286481214815
As 17.30964979644389 20.00209360220875 19.906452233329773
As 22.24567686898217 11.810139839119367 17.76634229490311
As 19.64659100287477 14.523782909871105 17.971856141858666
As 13.621252419352336 23.273237998638002 20.982879398761593
As 15.301848160094803 11.519310563474134 13.260317899455897
As 17.677259489366673 19.90321665743816 16.831752852293228
As 19.48161039044386 18.818826386478857 19.641955718352335
As 16.573680647253074 17.60173840387401 13.897706286934483
As 20.00242344500325 20.32042885723217 17.722659852688842
As 16.16270735536391 13.66288846347042 14.191250970703573
As 20.288927733115443 11.68689960520671 20.416145097119163
As 17.300825818948763 15.027095640546845 17.29046404587024
As 19.286379596792695 18.02745916822273 17.25380345191771
As 17.170764791901323 19.74288064528986 12.796536890247273
As 22.214549238138005 10.497342983873246 19.734935424121247
As 16.462360063376487 12.780810928004072 16.48861595195582
As 12.774129160400408 9.155764907444157 12.444974296763993
As 14.25344710266247 0.2837594728963772 18.765366781181484
As 18.32783338059358 12.656294015142715 14.835080314283251
As 16.294946744543005 9.523645076555608 13.994491130541645
As 19.129259257354416 14.942860070273138 15.573712385902185
As 12.574944066670765 21.32562721099869 19.76519392537267
As 19.808828371617366 12.046150565124524 18.0239470722596
As 12.90171431421645 21.015529332460762 16.675336403985632
As 13.086308110562353 11.453974408085633 12.502076907097921
As 18.389313006617236 20.869038106248354 14.633098510099988
As 12.191640446983524 23.041396211177165 17.946371788892638
