34
Energy = -152.1752765 eV
As 14.387720524412565 11.089830172523751 5.740899089800932
As 13.377609277722453 13.311824226430948 8.574520814288599
As 13.624840102996204 16.53058077300011 10.7537423957807
As 12.107592491754364 11.963891416509298 5.348497536854479
As 14.200006655420129 14.705405438222895 16.07955258576816
As 13.698924892722747 9.694422627795065 7.661564355835298
As 11.626738589566315 16.554826147448054 9.664034086788185
As 14.831940648476825 14.124386434081464 13.759965888773156
As 16.350851034916804 7.169323315053557 12.8058352219695
As 15.669208230816158 8.46772204783351 10.835866036291295
As 12.490001881655674 9.519700797627157 5.503529670093714
As 12.368495656700588 14.388673669486556 10.60002581490861
As 11.212376352756332 12.664877889344638 7.554760337634594
As 12.308102558698677 11.142012244103569 9.118490573787009
As 12.530176882827375 14.90316583306263 14.225300884627979
As 15.882102901475355 9.617445880817979 13.04301831539562
As 15.012259101008219 12.415872888428131 15.577559165320118
As 14.173614569003679 6.665963747706281 11.714145184641358
As 8.765411115645005 15.707558000472778 11.47742093515753
As 13.300158675214432 10.629962413317834 15.738746898964328
As 9.06159916733369 13.279389893480364 11.19168465828692
As 13.427305088558354 9.934489775827076 13.282379319843404
As 10.846456864067465 13.05524083445973 13.941192059300555
As 8.18074344166313 16.147114791606953 13.849564686838306
As 10.995813284745347 11.607205662050761 15.948090374465925
As 12.821425373113074 7.5677807050586186 13.619399428374004
As 10.6383675681402 7.515843340689979 12.206986342138839
As 6.87774181176967 14.332070189365105 10.592063371838634
As 9.338638340859273 14.480898850349393 15.32552984254624
As 10.675499925733522 9.398159313835379 14.696931882658664
As 9.960240761312955 9.886951312882923 12.387679193640677
As 7.025728404103014 12.720330316312028 12.476615266556058
As 6.990972361154598 14.129116490283195 14.521342498042076
As 8.728046102858594 8.164673199735414 13.669775921990317
