34
Energy = -149.91452058 eV
As 11.272584313988522 16.866623029389594 13.651851197872045
As 14.058850102634471 14.381929750543266 16.492631436630973
As 14.317865686934713 12.767872962695279 18.25129269606745
As 15.108135239138967 12.793747797687617 14.64942543604227
As 17.303909185888635 18.053113074761033 13.591671088223343
As 13.463396239953116 9.396341972282796 12.293726093213863
As 19.748392616294854 15.29455947934266 14.153052419239756
As 14.20620968324515 19.841125718074004 14.151381691172542
As 11.795839493283042 13.087186057121624 13.273020268955209
As 16.837312148151543 20.852086152699346 16.432323781706152
As 16.959952296816052 11.313803720785113 13.250452902360504
As 17.351815753167834 18.597023664879128 17.3741920673022
As 14.482125704079058 10.523772006131985 15.538796992998753
As 10.102566290766417 11.455282056317756 14.216802911322837
As 14.12152639719083 18.44101681938715 12.299576664218907
As 12.299247736014037 7.625476893940008 12.406682256362213
As 8.629279191940727 15.022635562927578 14.130228010268423
As 19.701139903624508 18.67964866450331 16.51135364337235
As 18.271397478699686 15.214571705606433 12.173342087565146
As 10.379038922880351 14.868039239559366 12.362142719847187
As 16.32362133632315 11.832583693932241 16.59940037619094
As 8.123087112739066 12.761953082413227 14.685838748873701
As 17.89419939253615 10.352866196546376 15.010895373190237
As 12.935230556134362 10.878334909502213 17.463767586218637
As 14.092008225338562 17.866377191122226 15.726513756752862
As 20.51189186339643 15.452163754983644 11.804355754368627
As 10.406789366645949 15.858648167484143 15.769644009873415
As 10.76233800046912 11.888278418128248 16.690131297181875
As 11.79403975527681 13.858315346819962 15.634629912970894
As 19.69531704140201 17.80515816436333 14.193587912415378
As 13.721964109681869 16.40585451134762 13.712603987279325
As 16.46316744743483 17.06193065960043 15.691420295153243
As 17.201278019009774 20.505481206762465 14.022011023395573
As 19.18631932140702 20.925792468240747 15.525413122110832
