35
Energy = -155.81101202 eV
As 19.028557220396138 15.827243722023127 16.49439696418128
As 16.621496056389294 9.828875771195174 14.747907395349062
As 18.051853220212056 12.71549064096469 9.408748482812696
As 20.17395395709084 14.705846396693097 14.628663507400102
As 15.94692685895722 13.808945294030437 10.062895006021467
As 13.558736973866818 20.78486140016783 13.470820695102926
As 11.679120635464276 13.111827119270382 18.0841585076231
As 15.90190562834853 11.582701452260986 9.031715188033912
As 15.370014360978029 11.607057943531505 13.571729286857117
As 10.414590018778892 17.202428071946514 13.358598797094984
As 10.255996577484886 14.030721492874452 20.10022098861484
As 14.195512173529588 12.237801538901833 17.07687146149298
As 15.315716140244042 19.762767589752233 14.838592570287554
As 11.934729238776654 14.922058400383783 10.630296863076538
As 11.476109309462498 16.11888763744232 19.942409106787984
As 13.603606346608071 17.960709229848884 15.085860335432503
As 13.121259526987199 20.298901085189197 15.823996421611618
As 12.354657581431306 9.99409521710194 15.056315988468794
As 9.55577670116674 15.259984021532984 10.011745962202921
As 17.788008335591055 15.272361854163426 14.447755608346084
As 12.103781970419325 15.468919992095108 13.037204245881286
As 10.250045504514803 15.25650618591577 17.99932847393515
As 17.117633177436076 10.315904632312751 12.355964528498962
As 12.865842083793371 7.781922827392723 14.681424502899722
As 12.707645132539547 17.901116149535454 12.727081225353889
As 13.767970655818985 8.276026773206022 12.416348524747841
As 13.444660987166234 14.594952453942888 18.934656073408114
As 15.452451632440667 13.015948482338299 18.99249750373074
As 16.511984532079516 13.547162883243804 7.682066702143659
As 18.507057622142757 13.485640681949963 15.97080590259537
As 9.42826998023557 17.48170932713116 11.100295671131983
As 13.224024071135002 10.672122754729653 12.820519898196354
As 11.230509983037946 16.996394515125306 9.4727492896621
As 15.102407986378026 14.501773354754677 17.041356016722656
As 16.14662203619871 8.130000693434656 13.005983925314517
