31
Energy = -139.21371823 eV
As 6.448967922078362 8.628509527271852 13.11965059581827
As 5.9868747870144325 10.05533540984289 11.183468380464584
As 8.247318007007678 9.08006524698506 11.482887789537
As 6.464874289355363 11.111633950292951 13.402878410486549
As 9.950695111608141 10.576425129606157 14.96297730272386
As 9.069672054588606 13.806114926854207 13.923347084154102
As 8.90137275648863 11.387153316302086 12.853845109226171
As 11.544811385182863 9.093301779663488 13.73185148154515
As 10.816709663560594 12.896407961648581 15.453959701753023
As 14.558914522983336 11.687026560413713 13.91050228725591
As 13.65269268449826 9.593021237808324 14.865356151734584
As 10.23394796502097 15.065816545856759 12.123983939036782
As 11.401952805446552 9.528848569179445 6.655823238989506
As 13.138557403061085 8.760237660161986 8.266996689672752
As 12.741513607803245 11.193464042380851 7.91805589381167
As 9.783721196136687 13.3724350154471 10.264744869130897
As 12.980173735866162 13.608829414698274 14.400119456307094
As 12.302685132884179 13.681065269711107 12.036877400484979
As 12.049029706812032 8.094104021035951 10.436855270927927
As 11.749745904240909 10.27437211535315 11.543409601746724
As 14.080756359579986 11.228676255679446 11.518542553341314
As 15.087191833556805 8.073211730210794 13.476617263303954
As 10.389104071164915 10.768869827774274 8.589013847235625
As 7.997386575672808 14.026295327136515 8.633970948109454
As 10.353584033984811 14.658715957766848 8.22773246504591
As 14.30550980055576 7.338368625491519 11.22308407116579
As 14.077498023660102 15.235577088199504 11.130970116158066
As 15.746098916291023 9.345543271588157 11.43534033446822
As 15.407635496781815 13.415931205269267 10.09986963744066
As 9.415225752923416 12.641387968157533 7.129044741853532
As 13.892514790032802 14.549991338054223 8.774959662911133
