37
Energy = -165.93187457 eV
As 5.5851936461980065 9.760510552389123 7.029047168990743
As 6.405759870651111 8.525999021063726 13.394914326099535
As 6.209057875578583 7.709576356834581 8.34323996541718
As 4.160094555982608 11.185691429403287 8.488135199984136
As 7.003461613810048 10.884830953929663 13.011599163397886
As 8.277496272268902 12.009793186648734 5.277975816242895
As 8.31035527799216 7.335564580368283 14.437532824839797
As 9.143283052149792 11.189216820425143 14.245496688183447
As 10.42484362280704 10.902879742285778 4.657814195994406
As 5.590054727154046 12.101064089199973 10.303788654639465
As 5.771817292207133 13.02956446940872 8.011877781705945
As 7.775807993634615 8.425382172712274 10.132200869753323
As 7.7818275057347455 10.92013741069372 10.57907737581719
As 8.534765404588184 8.389383898859856 7.764626059549446
As 8.987982824841241 9.286992130272715 15.820442128547
As 7.534367378331271 11.239896444029283 7.524272884437274
As 11.045277743269695 9.540544233251333 6.638993714925826
As 10.449784632705592 12.9928813609686 6.047744959861057
As 11.969688593501425 11.44619699618756 11.305835539546466
As 10.426286925902293 9.932464173615287 12.552049721792265
As 10.779310471754322 11.800939882324082 8.265835783766867
As 11.539427994661011 13.552858880261633 9.934814196135028
As 9.898414709031677 6.2566545375153435 7.506244480825691
As 10.898075078014955 6.217621606969629 9.737304799910115
As 12.371914871526538 8.028602294372451 10.512317836842428
As 11.705329096627853 7.226032721434668 6.022624604597382
As 12.766064661618037 13.136056761638436 12.949312675432854
As 12.590380014629906 9.420430165435839 13.807134178883521
As 13.659525375529533 11.476517873501654 14.652496571848937
As 13.306711744148892 5.886494816445464 9.44036019708185
As 14.716399648877788 10.217768992553165 12.783099820865031
As 14.81247833773251 12.676102387435202 11.628002021753446
As 12.999821611782826 10.969157444791964 7.391416763234673
As 13.889781218316042 13.178347809472042 9.401096494349558
As 13.86411369795403 9.160186981889613 8.856023063334202
As 13.824172867257758 7.167462986397568 7.326876095678793
As 6.639553947130761 8.46887599091844 15.867057531639015
