38
Energy = -170.07843476 eV
As 15.988504746201642 12.213469153824759 10.432597964845884
As 15.304398313338355 14.495400895260373 10.429004224746542
As 11.571893122620288 15.037666408720407 9.563057216889511
As 9.492011536251239 14.964913639677015 8.195204819903793
As 14.249884647592092 12.930428861890219 8.79859102194534
As 11.028226360973607 11.823361544844927 6.683974228305252
As 8.786766866505253 12.572243731643166 7.579075593727135
As 13.386855169243558 13.572999635861446 12.092211031218081
As 11.657444597747709 13.499968459349814 14.054098334759141
As 14.683692779349544 11.539664869322976 12.731992765589414
As 9.384601712355193 15.668129256471461 10.586559511202948
As 10.248288808273788 9.696432636415855 5.671348067046281
As 11.42631305790898 9.63527824906404 7.752523175707678
As 12.10888919160672 12.654051846526812 10.153723945226234
As 9.065013403442729 11.58294285282846 9.828669854165803
As 7.185852685191086 13.164239282970964 10.26950230673723
As 13.344098816879594 9.838851411659371 11.476035641603449
As 12.854679316157272 11.574411458909026 14.85526304084673
As 8.021589618804128 9.072488216827654 6.9677660646501165
As 8.299098697609342 14.11774460571664 12.294902969755377
As 12.335806038075036 6.1955902642275165 8.990876469527429
As 9.830001973259412 12.218024010394954 12.834255098786542
As 11.305130827482474 7.134304676974121 11.048307207441756
As 11.746772520894668 9.763689194279968 13.50669546770289
As 6.157952077405941 10.562800892246877 7.906791100210375
As 9.131007985732145 8.373907461353555 9.078566298442231
As 14.660904966453101 8.045987965579572 12.657332168800377
As 10.022166904572984 6.251010689331994 8.049024297254157
As 6.764951242780365 10.681978791536263 10.336524042649149
As 10.533783572670618 4.949383781413927 10.112816867604186
As 8.439652015577947 11.34649408649298 14.747041647928402
As 7.557986653325218 9.595536641022429 13.265708814843096
As 5.017904664712367 8.328440424597312 8.391276189860642
As 9.426794268091383 9.082157778419141 14.595904443088767
As 6.845137827821811 6.895739817543138 9.245090746780706
As 12.990653206748837 6.216320479032073 12.664680247179428
As 12.998367272327949 7.845540834163173 14.539947062198431
As 6.456367931216309 6.99855145786269 6.862082146605472
