34
Energy = -147.92650255 eV
As 13.781719827470317 13.58321408357624 11.54943347174821
As 15.611916176840769 12.436547880643841 7.952310604388142
As 13.394970040278299 15.16178744671997 7.500094303545832
As 13.466881256567671 10.198024012670516 12.990836591739903
As 13.505260285211378 18.1294321702639 15.322957571910084
As 14.961514122004953 12.553667205173973 15.862293514384287
As 11.25583837055919 11.153676555742742 16.46590674153828
As 14.239586935239382 13.039786332797314 18.203004685326878
As 8.142704857453422 11.833316965841913 13.760325049577855
As 16.158805881331965 14.337740750813351 11.389552661356701
As 11.92166830692505 13.456184902831868 17.231302584509688
As 15.75481026875367 11.524852698460956 13.081091727345976
As 11.469861553129265 17.994450012312104 13.905717396355952
As 15.890544976159791 14.849787894293277 7.5130536168418125
As 16.753816676253535 10.389328839991212 11.189714315359534
As 8.880961447068417 10.271101310824545 12.257337390602437
As 11.144907571455565 9.367780803319542 11.967647597129465
As 9.890692389109955 14.935820828022697 15.396777864515936
As 14.069012229950273 7.781401721035367 12.834275594096654
As 9.178455384815695 12.402342854140567 15.883440506263781
As 13.065313259723803 12.72399920510122 8.032514880646909
As 13.77016650020444 8.850073826853063 15.055083716446168
As 13.190642758538392 16.130719735341504 16.780657377492712
As 12.604582390105714 12.586498078533534 14.961792842524456
As 13.468023703290086 15.074686588364399 13.543899687333719
As 11.08018576086037 15.62160257949126 13.27468362897175
As 11.69436294703244 7.717818968600161 13.625740380990967
As 15.248111113276739 15.08170473908559 17.133319685769273
As 16.003542243713152 10.331647321505429 15.200472310680725
As 16.068179729709012 16.033677896935718 9.645065491421919
As 13.780770172674465 17.50928128962118 12.943722507430449
As 17.06657368546577 12.491636307286706 9.962779106366472
As 8.598828524276303 16.545960999323402 16.1563830017443
As 12.402062849095085 14.444599114296194 9.658739014456177
