33
Energy = -143.51301378 eV
As 16.958627786583367 15.492724366471684 13.333962076494121
As 16.523241836400462 15.264372462768323 17.09043186956508
As 11.72330100679387 16.699916636981936 15.733513521187769
As 17.587002867232297 9.747129209569508 12.565890390188013
As 14.810920169426122 9.629599694387663 9.996861746290863
As 7.1638583807912015 10.670595944902002 17.898572402998507
As 15.436409222375042 10.171743509136453 13.671131586850866
As 16.697252967686765 8.741159498101405 8.9853945036155
As 13.846410847079408 17.442983688585038 12.573969424018502
As 13.95587354080382 13.63322566687904 14.655063228165421
As 9.705477918583092 10.042440865804286 10.856432943310159
As 9.083351854367162 10.420471955478067 8.509717203539106
As 17.58563355446582 13.15845981607468 13.286221255661435
As 12.093852571934411 14.050039062720606 11.227928540229255
As 16.237895821623297 8.00551881307126 11.265595670972417
As 10.10318846374376 16.407727529282482 13.927583253890344
As 15.396279742424715 16.128302061236518 11.293011882159536
As 7.5986660109270465 11.18350726468919 10.312399801247341
As 15.150319740902392 15.762330619173007 15.037436657580285
As 11.501304523327008 16.045210157028368 19.02528568707565
As 16.97613819702156 12.847323476001696 17.241748599089252
As 14.316096475345145 14.057365678539174 10.566712886469732
As 16.063956093403505 11.51867126371092 11.693856328513043
As 17.225527262480746 19.447932910323367 10.906835228625038
As 11.921028237803386 16.10735614010242 12.402543318907986
As 15.012487552094417 13.824947448278463 18.39286781328889
As 13.218705444783257 12.95417311579544 16.90173248288637
As 7.8467010675706765 8.781112281593506 9.858809587426268
As 16.01393573684941 12.31491232370716 14.96157591242461
As 11.314277519900253 14.613652238840167 17.075336012737825
As 10.64128293088258 17.73703574589039 17.675632511464684
As 18.602089774770462 19.981878035525217 9.383037699205332
As 7.92222602042795 12.075591675200057 16.505044775750896
