31
Energy = -138.72568932 eV
As 15.871052718685338 13.112951700519995 13.927307745333868
As 17.31743077452131 12.58788145159105 10.540301892689051
As 17.39968917013913 10.872532137494114 8.780800264860579
As 14.905172361938183 15.111649744179202 12.802520894416036
As 15.280281123461402 11.858237153323843 11.823199995547322
As 16.239630467696525 13.020122463473317 8.28440814233365
As 13.549043086444842 13.895145228025399 14.425069254473971
As 12.996491584417656 13.603485248398954 11.98411170368504
As 15.113481345826443 9.834449342815875 9.054726192201366
As 15.067608310259208 9.342752457455974 11.477752045167628
As 11.225519943782151 8.21489672633824 12.501477935022306
As 14.069574524595296 12.13930217547198 9.263151312890493
As 9.290193580145834 10.436774532720491 17.115163852254913
As 10.264968555459607 12.109895561527582 13.712283612885884
As 12.580649234225538 10.045361832930025 11.382855357706498
As 8.926174206222438 12.493759870120867 15.819990622734958
As 10.373554211857167 9.704940052273315 14.44546071486109
As 12.015316807689159 9.325693920403877 8.943082135995919
As 12.013772805062855 11.59808968532656 7.90087475913414
As 11.416030021040575 15.638980166343467 11.657006952430157
As 8.173284136753665 13.046188789002956 12.680358925345866
As 7.19338221899885 10.708771679006968 15.866784813975379
As 9.597797475100633 9.647070335583265 11.325592979760595
As 10.732466377585455 12.460669711437856 9.880961846505963
As 9.501379620646848 9.167495138364243 8.907620591791082
As 9.001153724557854 15.13737433576299 11.53644866019014
As 10.41760584146463 14.90741909206347 9.486473900004357
As 7.246999063985811 9.311626125688841 11.913659102576643
As 7.088135503755538 11.664478207610065 10.919931244760544
As 8.021606755306543 8.959196536117716 14.292819536080016
As 8.629606887251239 11.561861037507356 8.866855451263435
