33
Energy = -145.43876319 eV
As 13.880595649496522 17.91050304143839 15.321502658972562
As 12.41215925148408 12.123829203604812 17.300998620328482
As 9.36890412741979 11.620719310896646 15.418185325334035
As 9.938287860086591 9.469825559340286 16.164350483421348
As 14.866959675063349 10.34628970751366 15.466653761825707
As 17.36842255984924 13.77387437922371 9.418971524702359
As 14.980539162183964 15.355117859196351 12.48031120835947
As 17.58000421597746 10.434301339084135 18.351528547657075
As 11.999054431078678 17.519527674277708 13.776766729949701
As 17.66164829225299 14.334432764804877 14.366232349521468
As 10.211258308949995 13.187568068551794 17.250447314883015
As 10.017194748648176 17.206188430964048 10.721695617134172
As 19.18586025949227 14.436155266840338 10.929662145021853
As 12.517008400781679 15.412076815701333 12.55827770523363
As 6.954758094719106 15.563914532224032 10.395927122809425
As 8.873628071963502 15.346038967247457 11.991141789397782
As 12.277313780567 16.333845105914705 10.31299834867583
As 13.794336842577863 19.108058653324267 13.151429840232597
As 14.420673045935272 11.829133866782948 13.64236445743857
As 19.46544722335587 12.493556385282728 9.45055201133716
As 15.226076115541272 14.036362885826522 14.597432799688349
As 12.022629530648757 13.991827481903586 15.712466457192816
As 18.410461776670985 10.43171373748933 16.04843493930861
As 15.609826539544859 11.808517427047946 17.462927319070886
As 11.737725698656751 12.144718037213812 13.967675535984611
As 17.697691104162494 12.853851723645226 16.216914451775462
As 8.809145152962225 16.078801497816286 8.80550143747602
As 8.691985300340965 13.882710281583353 9.97915439311563
As 12.134259585826255 10.177557097020351 15.462136008063355
As 19.423913279570556 14.756803732137215 8.495341875885071
As 15.61315284667559 17.478651801026444 13.589787560265579
As 19.439150315777812 11.969282242247205 17.75298047176931
As 14.051367344934976 12.56184758332474 19.06268339196207
