39
Energy = -174.58640041 eV
As 12.466882588734881 14.354627058130971 6.002027836317559
As 16.353514258676466 14.880997586404678 6.540527189886972
As 12.760392489266874 16.319122393494112 7.430652871242488
As 14.618952996141141 13.141875142672069 6.217150454855381
As 10.221431240365781 8.46915707044047 8.161714959737298
As 10.768674361244921 10.923809474482164 8.36543399302715
As 12.171072623057478 7.482435609778737 9.49143683195027
As 15.07239808278678 16.067188371706905 8.296230970350754
As 8.662420009185036 12.261733192112864 8.758380134865176
As 13.22723028105374 9.612135419779454 10.11448636610615
As 11.965248698241671 14.19199808344528 8.425941510185103
As 8.772590919966763 7.781812616978873 10.113842480917768
As 9.498688396695911 14.629614507956507 8.493222645625885
As 15.482053885120783 13.629390833266601 8.489619650914259
As 11.153747071651674 10.891429653203526 10.832020110990804
As 10.703479057400248 6.841106582946703 11.471008285206805
As 9.744400145695444 13.457439180584045 10.710787507969169
As 8.636402290880758 10.038250430420858 11.06201596439007
As 14.899638074171927 8.82683520781126 11.79069982627557
As 15.852970957444791 11.105745086627637 12.32936854414465
As 13.709562232229807 14.520216171903934 13.179383744002477
As 11.688805484408794 15.240090418618006 11.925521665115085
As 13.551875506154426 12.019052290447998 12.714983931004529
As 11.009166478702198 8.854903877523705 12.912872098747643
As 8.568345087336539 9.201495160580617 13.385911981454404
As 8.132774203149285 13.689110005575934 12.596111202320609
As 9.745739473727 15.256779092679178 13.541789434515335
As 14.443172488242217 8.58472874532066 14.260104235326306
As 12.903084874527359 14.929150179532305 15.521420191862452
As 14.799217951868476 11.050683670554033 14.64435829520146
As 10.969204165119917 11.887920122506795 14.02704215251695
As 8.545920380563018 11.49686606657461 14.476088081286292
As 10.688801592427673 13.845377895430968 15.493506978617557
As 14.182229782879686 13.393267959839392 16.969694089049014
As 12.115071579893412 8.014416678574952 14.970724678601226
As 11.740368352175654 10.345670608172462 15.932483184959716
As 10.317542603798875 12.63192679150041 17.79396567998879
As 12.701866946042562 11.896939227497615 17.96988321298408
As 9.454572703681254 10.53421184963361 16.887097342197077
