36
Energy = -157.65782036 eV
As 14.597832522216772 10.775551360741366 15.008598105953523
As 16.781161122064468 11.09123905654022 17.63799990121554
As 11.71868970552207 19.335770754542338 11.835993534981133
As 13.89301715815742 14.730469725706133 9.619732937135897
As 16.913300574980987 10.826923441499927 14.025598868399571
As 15.488384507561843 19.491355675717614 15.94585256903591
As 14.85962905397103 16.182438754562558 13.748998925407468
As 14.63648332361694 8.150995142313729 18.020795861200753
As 9.639744439152148 18.80085731236628 13.035525644716646
As 7.952257580459866 12.25989609949916 13.907626313016886
As 14.980214254268839 18.318430783455863 18.029340404475484
As 9.708993383512473 18.633563117379023 10.586320100810996
As 10.20004824490931 13.228414279035084 13.259253790660578
As 17.449064335405023 13.050871718104716 15.122342127255406
As 18.32771144373113 14.262406358369491 13.093156982572017
As 16.24081549678197 15.142043276627751 10.180944783389299
As 17.568117167014204 9.398294945367534 15.971101567606151
As 19.611517314121272 12.750419128483827 16.260304262770596
As 12.940693936226687 13.645648004229203 11.619937194958952
As 13.021220787777523 10.1142141051695 13.133705901709183
As 17.3151811541209 16.48753126138946 13.682754410813653
As 15.881743231288336 9.546226877043988 19.321516619479354
As 15.927874975189976 17.083048551527376 11.711520119158964
As 16.50936848812899 13.281496297472874 11.756126660795413
As 17.322787551558484 18.567984445135515 17.37974726839939
As 9.193827608238228 10.136223830715695 13.476086095150231
As 15.31352074250818 8.420728652827185 15.624641507803167
As 16.891986211519768 20.973876863714636 17.294338975053293
As 8.882758023629902 11.837821298024258 11.675145849874454
As 6.372911550142198 15.062627588267315 11.759291406875391
As 10.934479101996926 17.005322970733502 11.96528027086001
As 19.088236209553582 11.628715507160134 18.210699792052278
As 7.149565707023444 16.355393650820066 10.262609328930102
As 13.52069175855534 11.319639754934148 11.068743911824322
As 14.70071054842717 13.746980171497349 13.356130181272757
As 11.220014014231088 11.250716300794734 14.454634892416005
