33
Energy = -147.86097893 eV
As 19.13990519843858 13.307844113395612 12.504068793257392
As 17.947815620021416 11.271266267833441 13.208460698773639
As 17.792343353025576 13.31002634570129 14.565913170499833
As 16.68020061159056 13.209791249213485 12.378080289755577
As 14.999119540015904 9.177882972117704 14.704676869466763
As 14.672131870568357 11.2079979018338 16.09898546048406
As 14.706778426015642 15.817788547875056 14.95298456157617
As 13.179935143690445 9.2291442162768 16.41948825867017
As 13.172912124208727 14.684076321546552 16.582600330839202
As 13.380431542798686 10.060693348652542 12.923295737695963
As 12.463649515794708 16.751796489116497 15.398277633823978
As 13.799776890060608 8.951475412949165 6.0055171043722035
As 13.740040678893676 12.282775234537143 14.022130911903727
As 11.82571443176629 12.780517513982796 15.529669829447178
As 11.740896245259792 8.97024512365569 14.404568404577484
As 12.843664254052918 15.389937479342771 13.355514239830274
As 13.229430063333806 9.108589865203184 8.397699300185698
As 9.43656684474836 9.869743381527885 14.574519525565231
As 11.853846805479076 12.631602390596575 11.455486796734817
As 10.511417381008334 10.700202875857553 10.567600039402354
As 12.716474437846928 17.113661537990666 11.536294068169727
As 9.859535147554372 14.113687363997698 14.66563465142087
As 8.824768791212577 9.7639221708242 12.113991105679297
As 10.094925813165903 14.205911884984285 12.211121984773767
As 13.216445496913291 11.13586625799373 7.013530577050701
As 11.486481593858217 9.418961034923436 6.700341866379694
As 11.94846063988323 15.935759352785944 9.464031650360642
As 10.319423518337238 16.548032634330795 11.205847630879706
As 11.593190179746259 13.44980503444703 9.153906723052094
As 8.376583168687354 12.134973975246485 14.865331408722964
As 9.076665707672293 12.212831957081079 9.268301343127725
As 7.295884019353132 11.689824525878011 12.611617284442236
As 7.987524986511625 13.47630525981587 11.053451790594528
