31
Energy = -136.56841404 eV
As 9.009867041852946 9.996548500353132 15.696142213024286
As 8.528657609165816 11.513621858861958 13.813986101099639
As 10.70357655556715 15.606931607002943 17.61359232626804
As 7.0938967879997845 13.29498774551513 14.411529500236883
As 8.538892224687077 16.173364585121092 16.492510630333452
As 16.409384171088494 11.390851239976461 6.668380889637806
As 10.263182534991047 11.225389472135499 12.022528123834102
As 7.91389041588422 9.110292695477389 13.589753050644047
As 16.23180551324955 11.921637399824544 10.214339084271364
As 13.833916914156367 15.329362385399893 15.689716958323896
As 17.804954954615948 12.475148423669944 8.28440488960404
As 13.96220994026997 17.481404093486734 16.89104292960226
As 13.36222922676232 14.573099314910316 8.822595523518322
As 13.850688700693457 12.3254875080563 9.725947619021742
As 15.572484496675452 12.128415770863935 14.065779748526355
As 10.329186446572217 15.131845735166038 15.19863640056084
As 17.220273364193517 12.857684285984522 12.328445342040778
As 15.743204371549762 9.578501780115781 9.889962327502657
As 16.72359315974223 13.88333318845739 6.49533921249033
As 12.615929224905177 10.844255900076945 15.170077427232979
As 8.618857863762939 13.677199583532866 16.322206939186742
As 12.153040297166243 12.284356033904777 13.208015393682986
As 15.985853784145444 14.386210106512705 16.38415994403781
As 10.264167875886297 8.830909463179578 12.599130308281618
As 11.105010084340929 8.900273876696211 14.946586862338213
As 15.935097016573813 15.83748182190953 14.432511258373795
As 13.884080687622074 10.525096246960901 13.013060981437517
As 15.158410146912352 14.16348363267192 12.718434817443258
As 14.440922473937151 10.550224217083022 8.082484860372436
As 14.863877854443995 15.261476210551585 7.25476874078802
As 11.836338451665753 17.811305796441964 17.677369781164273
