30
Energy = -136.82142763 eV
As 10.29845896684327 16.390459114276442 7.415221784633961
As 11.584896355390471 16.27518330261094 9.557489726442267
As 11.819107166250122 13.851173134798502 9.347828030462946
As 8.616338338583667 14.572822549176472 7.67791795466637
As 8.171867431374414 16.772362693188036 8.721783920441293
As 9.477107839204521 13.110378664759628 9.492929883988351
As 9.469668968730668 16.63641033397543 10.851304979618412
As 12.47609227118627 13.164522773090646 11.658797188653049
As 11.650336609497659 10.897931665070168 10.984970108590195
As 8.711086706294541 14.392642767454186 11.451303430984188
As 10.623274641527326 14.114420420686546 13.027123430137568
As 12.427951130681539 9.38115613049019 12.83463899589992
As 10.11340628587212 10.202128771376136 12.771984852820943
As 13.421698448314851 10.95563361262663 14.48086440738141
As 11.823732455248143 12.021035988812985 15.8708653484269
As 15.531851034381313 12.017290457779522 13.51204980703695
As 15.19207642341859 14.017627758953997 14.896090918832945
As 9.939842082947212 12.14814289835215 14.36268686998076
As 14.722589546243272 9.339946925060199 15.850495299239478
As 17.525414542194884 14.851001351253313 14.693911304849594
As 17.06072094698008 16.963804661126783 15.840575731701426
As 16.845784692086813 10.429168494513535 14.956937243117379
As 14.960070124406018 13.133316916695296 17.24439707829775
As 16.051808197923233 10.899844895343286 17.222123461432705
As 19.47097754181001 17.441478120974434 16.27915797622526
As 18.634911540019626 13.565059341062572 16.474166107780075
As 16.737840512900505 16.347099761045403 18.24523962689949
As 17.072535400200394 13.929414537890255 18.336566262494664
As 20.31519316447401 15.271461246270421 17.133826635027617
As 19.150399181831865 16.804119258102116 18.703790180753888
