33
Energy = -148.41925595 eV
As 12.813461194914726 8.080879704299248 14.530051636831343
As 13.344188163637908 10.34992289231616 15.409922586683109
As 15.700351699475448 10.62777599042008 14.582489638341109
As 9.874341598059084 9.95833957692687 15.230807124811635
As 10.818515202467037 7.806777836804584 16.054471356532378
As 15.886828749435752 12.892461346221078 13.540995184807636
As 13.855843551877637 8.283896563244648 10.740533256719363
As 13.46851027639375 13.080594034787143 12.972222571221463
As 12.68938613149726 14.340250167619182 14.947809955154236
As 11.742794966425755 10.109852925726203 13.535628247312346
As 10.608671959248749 15.327621771313412 14.036411039290925
As 9.712634204176537 6.139650304965535 14.62844583769201
As 16.217349436624897 10.825028236863375 12.174654277232685
As 8.192540227278467 9.250803739997007 13.592553911817696
As 13.186729151809342 8.488310927788595 8.348436999303239
As 15.408557868359038 9.273843831918333 9.10075334215508
As 12.593572730189958 16.752151856009284 14.362877805741155
As 14.169802403387791 10.736653849588437 10.708621359693126
As 11.752589727874561 16.347428652562503 12.063565387284692
As 13.375427257379892 14.739268033571973 11.13923601192463
As 7.415461946109222 7.016122676736849 14.333895333004344
As 11.595034243623106 10.355665176673886 7.8017479704872255
As 10.127472378722572 10.391596241467266 9.757332535334262
As 9.050923003517347 7.207202744147384 12.488999532776566
As 11.615588328952224 13.13862982893739 10.234997940691533
As 12.67574263548289 12.603784425516563 8.070533836288496
As 8.210852386821793 11.408531378327707 8.56896480753353
As 10.073406714794965 14.792389178122415 9.10704420887849
As 9.131561394670737 12.097682654815351 6.396304904918169
As 8.026665534946199 13.569700807085997 9.731387295968636
As 10.76529981861288 13.896265622176442 6.877418902775068
As 7.830412958451018 14.13511280472385 5.957616340609664
As 7.060066275664244 14.966388339206635 7.963852981064869
