35
Energy = -150.10276544 eV
As 15.999450381844852 9.274808924931223 15.737433923869922
As 12.819709283981746 10.78441686350083 14.865680009614506
As 12.57675434974769 18.01592923378661 9.843030363825543
As 18.389882163244952 16.121924129231044 9.815135531878848
As 17.656645895025076 15.480799569896567 15.884483312174911
As 12.008851695194393 8.318022896498558 11.831521423726375
As 12.650053985021616 8.40715696531133 14.211251187310861
As 14.739204183273634 9.686692328839676 13.70141350974449
As 18.122001583890885 9.077965841592276 14.462822074584096
As 17.098376197007553 14.051906665681006 17.67547559463139
As 11.801125408189279 12.105876503562582 13.043692819794611
As 7.955207084751888 11.755555968963844 12.583940444240744
As 12.717120771076827 17.12808468694776 16.861650412291613
As 18.379742488038815 15.38706923203089 11.8100992726012
As 11.202368164882182 13.257907516015498 8.304571141137611
As 15.75083543572595 18.163873875060407 14.633954404171353
As 13.627021725041326 15.132351401678125 15.628128137411776
As 9.662060892904151 11.978495240871679 14.305647386281674
As 9.64175754236639 9.099117628080402 11.58286683239474
As 8.69478178259608 9.76460250024975 13.788917029268022
As 13.966325530045497 16.33224687075055 19.362568885099257
As 17.488020009447958 6.932567147794493 13.432259423879731
As 18.071986420962364 18.86048802111331 14.581098228388711
As 10.547058036948092 17.959280399407817 11.228558450052878
As 15.674709483049687 15.62277891133453 14.339043583887527
As 13.745343589856112 19.239019146314288 16.187697031322205
As 12.680627367277218 18.588915783832274 12.283793214772333
As 11.519373268546223 10.632429798418206 11.068408372182711
As 12.611574473000932 14.834957523878778 8.065319793780356
As 12.293659561517238 16.266394828036955 11.553511844862976
As 13.284333686645482 14.123052445243061 19.699777947570258
As 17.233879914902126 8.794004525425384 12.131168950851064
As 14.735401891180448 14.56550203038498 17.81468360693024
As 11.650132409323493 18.70881014730301 15.27120010319128
As 17.232593168012112 17.967886070058636 16.62539077766928
