34
Energy = -151.95476994 eV
As 17.25060483871895 14.697038110958216 12.748363391073374
As 17.468345571313552 12.206344264276284 12.516019551901653
As 16.421952354013627 9.270716710241226 13.436021067833684
As 13.357952908999264 10.410797707236085 9.205226479519611
As 16.240754325723028 15.006386810680388 10.468034764032426
As 14.285391559533489 12.434791065006612 8.251245073935825
As 15.479090565545095 11.571706893188217 13.702804519387291
As 14.89503418549965 8.060897460538884 11.9656373851593
As 16.386595184852904 12.542125069935665 9.976465394344665
As 15.467800003062658 7.112455530217128 14.247129223119119
As 14.638258509734902 17.17754045705756 13.094730676884923
As 14.800095646079686 14.781947439642265 12.464426575153471
As 12.4942788802773 12.60708790460339 9.89680512359946
As 14.41524340894409 11.637751279400328 11.226158290131384
As 13.75342120325075 14.261511954419536 15.547410666103724
As 12.523550017669395 8.671846668759855 12.73963996406542
As 13.61111551098524 16.766343044006938 15.255183046111767
As 11.420670888624082 16.834569281529053 13.792929560365565
As 12.370811099196155 17.16721645035429 11.50284740025007
As 13.007264955910687 6.725219807796117 14.146465934996971
As 10.031305219706217 18.063871101004402 9.178415427248007
As 9.915862427164281 16.215516400829316 10.749782177038277
As 9.64368059508569 19.99812569728453 10.322722605994866
As 13.20512499347905 14.386089894169539 17.968947603260006
As 8.844281767799314 16.957667043958413 12.738339738716679
As 11.411472388429585 14.00902488947283 16.327174879822763
As 13.731960199089981 10.56107674705881 16.339590028868304
As 12.227492445174407 10.56685807233854 14.330353040525322
As 11.774708914570548 19.12155196921131 12.890200394217608
As 9.262184260160101 19.366646666001063 12.648586539687548
As 12.228889792076957 12.105643722657332 17.691859660286653
As 11.576819330927542 7.110782752170864 16.135881799964853
As 12.09073544153328 9.038235799972018 17.560611739389994
As 10.472232046674819 9.259596773830358 15.638971716816261
