38
Energy = -161.62841912 eV
As 15.45435560123389 14.567525207755061 20.117065082180943
As 19.623155316243018 16.767216549758647 17.226366427347426
As 15.518399607058367 16.976249558075338 15.303767781008629
As 18.621130561638907 16.269000451011525 13.89363926392527
As 13.301873548042465 16.527705148462477 14.67894440200777
As 22.58542792294555 19.90617898209099 13.74830888797878
As 18.432945225258884 21.424027126020654 15.886060807756193
As 23.993079850357574 14.541173970249421 20.578106531957577
As 7.46958702750927 22.51709017551269 17.027490587622285
As 22.314938381146835 21.816817105229166 14.980924495071536
As 21.10894419876038 17.06893594679882 20.953725564880816
As 16.827295052020116 21.55828537630614 0.05296038394029984
As 16.656127588171998 12.410949019656954 20.144466894228582
As 14.749430218717235 15.25443686475372 17.75396352089644
As 18.44137619108658 20.433243999355845 0.8405521932342656
As 15.224865937312428 19.339944369928634 15.278151164826365
As 15.515359932120615 13.5736307776993 16.029885981551836
As 22.905396319478946 14.388284373782454 18.54129687853328
As 21.102462555634855 15.843328207443616 18.95033527046961
As 19.941535396574377 15.115541963474076 15.640886613810222
As 20.302178534657294 15.71021059369146 12.17344248528093
As 12.814541415980415 11.875031771924426 21.033360737938203
As 20.041519247437673 22.555571203234365 14.359789916345818
As 17.42596076389126 23.638211393645793 16.162029230861645
As 19.520174785712936 0.13267505289974565 15.723146385004913
As 13.084754072273226 14.049614004270714 20.35241771623946
As 14.984943239683432 10.757180930115464 20.955582704682044
As 13.93005588761601 11.853646339194182 16.955969455581606
As 12.606334013420536 13.941485947133309 17.47760379365574
As 17.253891732254527 20.04243375584561 14.139243484845583
As 19.20888909678125 18.563137118153957 14.669922730259936
As 9.517746495840752 21.01842035985488 20.59618363802494
As 15.59235873181626 10.865346810824569 18.546217422652933
As 22.952392776274955 16.130742831272865 21.994674951522263
As 8.495935099477606 21.767260688975508 18.812003341122384
As 13.32337169637709 14.096763796820708 14.917204705514497
As 20.367936623173204 19.563025373538437 12.685258807317425
As 21.20290574114298 17.634119880531845 11.396274947520498
