36
Energy = -159.03294778 eV
As 10.57593170018067 11.151742677331367 16.716098246380543
As 14.093926338095967 12.513226071177336 10.014206510487773
As 14.954018000305336 11.114143150851062 14.949500869409224
As 16.065220940106606 12.758904427605751 16.430200023133622
As 8.54241692339478 15.572702909833843 10.823051309805244
As 17.442532242293645 18.813206680360004 16.728656655330305
As 19.239483253025387 11.788267968899621 12.778632252239364
As 10.25366799390154 13.476499307397901 10.374367992800652
As 17.034154955136795 17.890853765913665 14.856455181886629
As 9.614553936551683 17.521122239171927 11.89144994667459
As 9.98672636893745 14.717666732033504 15.85323826079085
As 12.5179758712737 11.047826705497117 18.279716288236603
As 11.261062159546187 14.310821586581456 8.282533578807037
As 11.806267601475584 16.28300189855362 15.280673114747445
As 18.58548754675111 10.130168679737437 14.180663630412019
As 8.335912454205092 15.972684096878568 13.158229595814843
As 12.156441804600165 14.566272364547103 17.061434606314723
As 11.66282274480006 8.903359861538211 19.246761643134874
As 11.049861038267618 7.694396200209032 17.39980187101938
As 17.105277276965193 10.54448994552272 16.092881929571178
As 11.506678578355695 10.59337240384298 8.178945593199002
As 18.530119078131797 14.101513403493588 13.152527803003048
As 12.944439009556422 12.508055378372477 7.836200772271056
As 14.082547750406727 17.246238830635598 12.715858010922949
As 11.601185691603188 12.92722997627629 15.26580663403041
As 15.88087833047746 16.0471711512074 11.418672509645942
As 12.193644325799903 12.465050689018152 11.593726287335198
As 16.082748381204308 13.874569810049266 12.671030409644993
As 10.690025941063071 10.894345660038477 10.372097040855206
As 12.014664730449903 16.419513742902303 11.608172488555716
As 11.599417213471119 9.214274631760718 15.496678940106074
As 13.03256137108706 15.081661533967312 13.44293675173636
As 13.807175902035306 9.631471005976888 16.64323413249932
As 14.838344638941521 14.84346862770746 9.483817481942813
As 16.859484254044755 14.604726752292278 14.907681846336112
As 12.747367198869823 16.09445871833109 9.228989711444832
