35
Energy = -156.59240162 eV
As 15.061751807206761 16.279782106818214 7.739672597295711
As 13.259343653372138 14.74389580496436 7.2983648827137415
As 15.44721009320575 15.859191527083839 10.072738655814783
As 11.65887813998875 15.16915897823606 9.177926471193102
As 13.118811201920252 16.195660324769054 10.942277510876025
As 15.052440316586232 13.072490622464459 12.377278264563435
As 12.751541002369859 14.110715999274746 12.252316311824867
As 12.270657966543332 14.768617891377508 14.670465650613739
As 15.664897240424562 13.383162030912864 9.992987157636767
As 10.626248911144103 16.509436179267105 14.456890480020215
As 12.01047355373218 12.77046081501098 9.91873238773486
As 9.058277185475182 16.116232288326806 12.72814779184137
As 13.960325011829056 12.566828910289884 8.333797839078754
As 14.14722982141795 10.754117952482869 12.129809452158739
As 14.432303956912259 10.022404773469628 14.458499227385447
As 10.997015040362937 12.492958462863205 14.675500036334993
As 9.592879431187221 13.924122585903154 12.145100555001834
As 16.071310636381778 9.744089901038825 10.985419417335699
As 8.166986335818862 13.474417868405293 10.1350598792651
As 9.849881989793662 12.186574417884225 8.774571556054639
As 16.060514410618307 7.468505574559428 11.893705627068456
As 14.97674366674348 7.65441803985403 14.21008757974454
As 11.68473358438869 11.273474817821175 16.725701582844877
As 10.653934210527897 10.995270663920783 12.688266998253905
As 9.260178123392054 11.887388414795067 16.369473122073913
As 16.73795769149949 9.31051465549757 14.87377288731521
As 8.194273736998971 11.268678396850229 13.139165670228056
As 17.805689296990263 9.120897963873638 12.598791045160375
As 6.835926294885746 11.624662907738179 11.11729749320105
As 9.530292121503363 9.75423923491029 8.957288820913357
As 9.997258810451058 9.543807003750047 16.264160333815873
As 10.54759731473749 8.834144809056271 13.928235484402672
As 7.137530087434304 9.65962240802527 9.544027500260706
As 8.16710473595056 8.753334597528218 13.142905299274478
As 8.718381873454648 8.213300326226724 10.788143685948887
