30
Energy = -136.55976366 eV
As 13.56290656143257 20.378336583650636 9.21907199061526
As 12.636218220724352 16.91174912930872 10.283810735444758
As 11.671035599266345 19.165240830400823 10.362340770488977
As 15.573414191174466 19.435000231419508 10.289566370353995
As 12.208975500923303 16.25085140528728 12.697106879629592
As 14.827781865481365 17.314850501753526 11.347910573966324
As 12.549530623346234 11.725760858154121 12.321847318269352
As 14.339108689805359 21.223861592612703 11.454083802519202
As 10.178371444440028 17.608874428777018 13.106203509461613
As 12.438458583966955 19.991269608439435 12.57259550696747
As 13.542646126475654 8.413667764745437 13.369050434636922
As 11.353811167012037 9.515820224954783 12.859785770262542
As 14.492909917194254 10.23444397201511 11.97055532129187
As 12.610812235774747 11.960880721942521 14.788372965997018
As 13.763954650954105 18.110563745666305 13.437187275711997
As 8.574048206386742 15.874710375840035 14.034765863749397
As 16.213707564351726 11.503194416820447 13.217027794713744
As 17.478807611837397 9.613154697505202 14.185231632250069
As 12.291113850092252 9.533124624078164 15.176084216062153
As 10.654207515878367 17.89717262907996 15.552569419535425
As 19.028183491445148 11.07049017205837 15.392607728080366
As 14.997305092638971 12.534698250085464 15.169349393917496
As 9.96126349516776 15.553106282633724 16.086434416518827
As 8.26122573370461 17.31529182180564 16.038466260738442
As 15.979155596397547 8.889852801265283 15.999594250507585
As 19.865100742991178 9.217327366375581 16.84382351863315
As 17.71712130863639 11.989906067773301 17.327046376910165
As 15.473112132458013 11.046590911982104 17.08877141281188
As 17.755542866217496 8.127357405971381 17.57021304608906
As 18.546162761697794 10.138843925470741 18.78451879173833
