32
Energy = -139.13378971 eV
As 14.572911760246946 20.15726761071238 13.510021740261823
As 17.94805505128376 19.28693914701288 14.564900481788102
As 15.58848294815695 17.586158294092797 10.611017726927129
As 16.151704022205667 20.827353736831455 15.13596980427163
As 16.12105974750064 18.380039067675312 12.928292175169691
As 13.406315802270408 18.175328081283702 11.220041716777752
As 17.298663014008582 17.276229745668463 15.949165066426234
As 16.90608580357119 14.34128979906378 12.260919557526652
As 14.064606102199228 19.11206451005364 17.450072761789762
As 15.347971571498855 16.576539449614884 14.578036840890755
As 12.864913552058265 15.79739210061224 10.672211217452181
As 18.269128873227256 12.543452636540524 11.190669049685654
As 16.465422720161946 18.68150293010026 17.814531606529652
As 13.329704148259614 17.61851788039099 15.592532955022069
As 13.225683537750653 14.521017127386333 12.781441115191196
As 10.464842672198822 15.376281817664536 11.056927464163682
As 17.773501028017677 11.03903271249024 12.872168617838188
As 11.065612517733065 13.478271173161643 12.233613935560424
As 14.74457783044167 17.64158196200642 19.328232424312013
As 14.948392079884822 12.850424747279428 11.997067752240309
As 16.32144728554939 12.684281920532761 14.061905464216142
As 12.721274853823838 15.440142778174758 16.696160647340488
As 15.017137875730125 14.517710001330123 16.946271993823288
As 13.790514548954796 15.38777259842374 18.921566031282538
As 12.6003930806361 11.569320226045201 15.27985125323931
As 14.182331727603316 12.150075513224307 17.088094308353313
As 11.776934249798016 11.781912955980046 17.666240992121946
As 15.477932839327265 9.172402777544148 14.9571022171791
As 15.813098394273005 10.566615367624593 17.80042604055383
As 12.169619311667573 9.577500435292214 16.65569492454618
As 16.712700469034218 7.31818519624719 14.612247038064206
As 14.462405681335827 8.659765049323882 17.196281912600647
