31
Energy = -138.72416778 eV
As 13.366419892278396 10.44476115494578 17.590730289527652
As 13.889127745556657 8.331382649383855 16.417245894311964
As 8.141349247562456 9.719924274966818 11.396309062252033
As 11.686831009777311 11.566723220752717 11.630742884030038
As 15.304347791742831 8.892901250525796 14.466782338569706
As 7.279445643005165 12.002074190826988 11.166937760317426
As 6.786592092169543 10.233900629213059 9.392711630418077
As 11.737162031487866 9.508887308247553 15.978045653783436
As 9.163527407405208 15.843202269064884 14.540505181153092
As 13.41107896750954 8.418846811498401 12.925489239163014
As 10.55526307190354 9.51380804558277 10.734725995796383
As 12.728805153449324 7.72539643302279 10.010986262173343
As 12.825612744597388 11.678125331838467 15.503534348902573
As 14.855838402417968 11.318264559128773 14.156202172033774
As 7.537496321894927 14.831500830959007 13.011478461275104
As 13.979130099593089 10.553937244144318 11.88884047142514
As 9.741122655737266 13.677795021746558 13.370901168438337
As 8.281843403090349 13.315753444661572 9.280941006959976
As 10.532692069257118 14.308642571010914 9.382085602085654
As 13.91568217470143 9.424228736079455 8.611682283305829
As 10.969188376788155 15.104551220555177 11.705842591464796
As 8.404579520781954 11.317639103455544 7.811589972317524
As 9.035586227141405 16.64811397918966 12.187266791897464
As 17.411420352396483 14.63195188269955 12.532321119233162
As 15.38373666379717 15.266634643725745 13.7617495221301
As 12.427727518434173 12.699974343352 9.580168486540137
As 10.210463287355777 9.738562572442113 8.306591666150963
As 13.035805243933321 7.313492041005408 7.736053392108102
As 16.150305933019528 16.63935124439535 11.870496415815182
As 15.202747145552086 14.403030121262427 11.46251151575366
As 12.187090123293359 11.064661187946843 7.726549138296487
