33
Energy = -145.69372073 eV
As 12.143940777556699 9.174696375516284 9.004120287356523
As 9.11693900100826 12.766072219784666 13.386116303139026
As 13.844822121193548 14.983402756440574 15.894553956465735
As 11.297329647637422 7.069691644147945 9.944006214396197
As 15.715893822005942 13.331314875307116 16.17707986060062
As 15.601784871069462 15.829319645420252 9.048246952142495
As 15.985943246187162 14.270195786829172 12.429904970875642
As 15.055312760226101 14.926079795219193 18.678263970368132
As 13.233752198302067 12.024617280577496 13.871030609973431
As 17.274108002973296 15.296908237344281 15.742317657936937
As 7.382716873055032 14.209377773098636 10.154456925290955
As 14.016371645165071 12.53431030417716 9.856467754794194
As 9.427142881664992 15.351968500507544 10.744847264559251
As 10.396049944095699 14.009781820854354 15.164524330037843
As 10.234235677907284 10.405474940672063 12.64085337400817
As 8.754423891438 12.023761900946827 10.062235396725333
As 15.715731324634051 12.270792715695318 13.880894056899566
As 14.173649613489323 14.811333507331282 10.758887980420642
As 10.66553612533431 11.884956335672575 16.525631455332608
As 17.714012855430727 13.18222245403308 10.866337049092216
As 8.61309516299411 9.812540487064295 11.087299620635628
As 13.693356057905447 7.312343852372194 9.419103024997296
As 12.453776865000167 14.357764865073372 13.817032019972078
As 12.364541694475232 12.454178452658661 18.261059233742987
As 16.287816177938243 16.24331486457085 13.688734418463673
As 10.606809536075868 12.914978059426822 11.44252493246311
As 17.668834320297822 14.854879868970777 9.102763026302764
As 15.472880505198562 16.627777983276903 16.9432856847796
As 16.079090939153904 11.544518489581431 10.073277534588934
As 13.0143950255316 11.159241329855075 16.243322360204946
As 12.686188718407381 8.55720336466757 11.317113772023577
As 12.663138591202635 14.944124792651712 18.065029498869226
As 7.8047613586231925 14.89428995515832 12.487508217799348
