31
Energy = -138.68728267 eV
As 16.754984310338102 15.567718062342658 14.115661836649958
As 17.614874146417428 13.241211223291693 14.171965908961335
As 10.335603299772794 10.232206880904432 15.691656799782576
As 11.92019831646159 12.383399883580015 12.826406369498907
As 17.001825587362855 12.095928895219846 12.06287889688356
As 8.483966409862745 11.715159089944441 15.009170928060792
As 8.220778412737308 9.18974521799953 14.955973171251722
As 15.415300817427164 13.79045657621311 15.1922039499077
As 8.951144303199667 17.260905294038743 13.695313291803814
As 15.04300122169687 10.94167209810232 13.193834762105316
As 11.968585409454647 10.045801361833357 13.805763061466738
As 14.53393707483764 8.525735756473633 12.896132839846594
As 14.560170336248683 14.908074588317033 13.155630909170135
As 15.317377473566898 13.67694245057834 11.158935215707393
As 8.556253235614653 15.099085226363723 14.800995494339281
As 13.725713764049644 11.70130964673006 11.24601014659936
As 10.768267326666239 15.516869865451664 13.711213615642974
As 8.166958883901327 11.666423203297015 12.530686165363706
As 10.102733047692254 12.424662376935961 11.170758078241438
As 13.94425342204925 8.42012217624876 10.533172486517516
As 9.949716773986623 14.93993369367657 11.397215944145852
As 8.375067568488758 9.194238605660304 12.443722256576589
As 7.733065450835409 15.463128185628834 12.468567610157463
As 14.214727320533315 14.38404676512802 7.080166523121634
As 12.74802766530189 15.253019736164397 8.848998968522737
As 11.489926409930591 9.047086700396417 10.210528106318636
As 10.71429907510158 8.38928451599474 12.489258646007634
As 13.302199496968111 6.040950824372116 10.321869986491505
As 11.83041264084893 14.78210607782317 6.618934649367262
As 12.50746579873423 12.92408749090205 8.083207376164848
As 11.207936539896462 6.637459070370207 9.57193754530889
