30
Energy = -136.24702829 eV
As 14.450357322414451 13.668471170110863 8.26623255742699
As 12.74787766492216 15.528688276175219 8.50198050833695
As 15.521590001151655 10.66847371528563 9.301360468519377
As 15.101813106811449 15.774129681085396 9.348433071636151
As 13.611654693336739 12.138948838916166 10.06207466112865
As 17.37479114109648 12.184657543160638 9.816967345831845
As 19.175991156413694 10.478827220502106 10.118911930470341
As 17.989573670314133 8.327609476550453 10.456499787918663
As 11.746143160208677 15.048453981175113 10.739188619614497
As 15.687396769988418 9.056779879649877 11.128946881328655
As 14.004181483962869 15.231225383672006 11.511325789333931
As 14.513926064234616 12.92927706051557 12.255746031520951
As 16.974467490325946 12.599116529123211 12.21757583957394
As 18.95789228079047 9.583541908687144 12.415765512914557
As 16.652001173781194 10.326222664541202 13.06119538762239
As 14.447551595067907 17.10830565102547 13.10406053286463
As 12.379745804747788 17.221071900182583 14.45664099588802
As 11.477658912834295 14.928333955744266 14.257331576636638
As 9.591299218630095 15.517754256030477 15.766259591324115
As 8.493296788074835 13.337881577617626 15.857982403929615
As 15.887264661976829 16.365910834083127 15.005439264156285
As 12.968621319813664 13.4352529212258 15.626907109486497
As 13.952879680174842 17.246997947282722 16.439679574772978
As 7.183723332928736 13.952633767280103 17.89178434793012
As 10.007800024952186 11.903151177105316 17.24640959017566
As 14.689586876137856 14.925226850801325 16.59725493077534
As 10.805410091446639 15.56454910329859 17.900326427427323
As 11.878902048659603 13.35479767118504 17.85907601500604
As 8.897298773323223 14.973083216557775 19.374515184853923
As 8.705783319337199 12.497105469287991 19.290607689455094
