30
Energy = -136.60780069 eV
As 12.908127021568317 13.337923323651333 7.375168752257541
As 12.541236030692481 11.124557713217106 8.424493336915898
As 10.763258185941028 12.84146135867127 8.605963540806824
As 13.687455828806968 14.725112766722914 9.308050697939922
As 15.270189191351472 13.025420077823398 10.065818875602904
As 11.550175625116871 14.261557693272986 10.52532715828475
As 13.76661706351885 11.145931393288281 10.609103064725803
As 11.97492169177693 12.26929401269458 11.860288321895414
As 17.874914427204175 16.58845686488101 11.780897314461745
As 15.627408279531736 14.117719967051292 12.27099646623045
As 19.725880176495803 17.514799026248753 13.230990941772765
As 17.366177461164582 12.517987604122592 13.040934571126028
As 16.269668125308424 16.974511555611738 13.69023463849041
As 13.59885099660648 13.214814063897029 13.522596489842252
As 16.253191061471615 10.783158451137213 14.317004738149537
As 19.633698540580482 15.139739574220552 12.695996294720308
As 12.86232206439746 15.040229202537136 15.099668055517597
As 18.688396710931727 13.973723764364392 14.626039375004813
As 10.529168770589022 14.27746536760013 15.398578311616342
As 17.123951633407483 15.619936706978075 15.542336190221699
As 18.129601626004746 17.826613895779637 15.164229662034103
As 14.235578196923838 11.548841048548061 15.256562534358713
As 10.822439158194909 12.038350960276006 16.38753166893107
As 14.214357252416931 13.693292472057232 16.761943910371148
As 10.239146319478959 15.663297784145684 17.396858219008784
As 8.163414785784367 14.458912143975665 18.09441383125534
As 8.818493405221348 12.074665715196456 17.855024292082682
As 12.503351124179979 12.54086228965294 18.11458879747517
As 11.532744605954651 14.504139790917103 19.20067242278664
As 9.464206365073778 13.296165137155041 19.916629251807894
