31
Energy = -135.62061488 eV
As 9.135408710242867 17.91030727263302 16.44896592324677
As 14.086045122391338 12.910785536369032 7.821312280890004
As 10.268577785071685 13.933813842084536 11.631181893568698
As 11.927754461893382 13.777124442758776 8.186762340732065
As 18.50890551166585 14.519746891772494 15.608953408983215
As 13.31321571630688 16.723240844083787 12.955610481717846
As 15.537009621401898 13.121620412080318 5.818696964498238
As 13.842974114380887 9.972789310964417 14.141335701976118
As 9.345820859225704 14.467244220063746 15.634621662104704
As 17.545199396142202 12.269920747042526 14.786971264987402
As 15.021286645224194 10.588716683743499 17.794695737517042
As 16.661051262749464 14.825262180905579 17.24411021392595
As 10.546021311304667 16.096904422538273 16.827749421347704
As 16.344226313458762 14.100161169897877 7.92839317742492
As 7.32628832583578 17.335930327138293 15.049534257171176
As 15.099597991724343 10.82854193914269 8.603051313942334
As 16.895449697391616 14.461301002164118 13.708346438955335
As 10.01382168842004 12.119829888313568 15.346105582066102
As 11.047733729038164 12.059921665611588 13.024890509452764
As 13.302646163738093 12.614104865671347 13.969051643834032
As 15.55807451324143 15.823015446319085 15.243846085444051
As 13.028490202298356 10.028944984640805 16.456210117858678
As 12.50149971261805 13.787951558140294 10.558797285448092
As 16.20151253327553 9.566528075422475 14.315598448582696
As 12.323661456212122 12.448393256811707 16.277584939881994
As 17.004840709402224 11.779125466652044 7.33987030936268
As 16.80028786724452 12.268969924378643 17.12796971389233
As 7.424821681085224 15.085823324966073 14.46074472401567
As 13.216653325126847 15.162655023497681 14.681803646357432
As 11.63206661013015 16.019061047862518 11.354315229548764
As 16.752156580789393 9.36525529796777 16.591891529269716
