30
Energy = -134.60634376 eV
As 12.229409540492044 8.722817385864701 5.081246894255262
As 9.790376249606805 9.150824992696368 5.3445899563292505
As 6.756067638103008 10.514822840707703 7.3757537379912606
As 9.199362131151682 7.066012167024137 6.536131022001764
As 12.512769570915369 11.06032245034647 6.0789163713347
As 12.826411304776455 7.581189167648427 7.27793789727209
As 8.684529693982986 13.760348045255324 8.8327324694959
As 6.999576140238275 7.967659754408168 7.254603608508046
As 10.416304521634952 10.632958020580084 7.387480152100246
As 8.592806559924277 12.17050834730654 6.771881760767166
As 10.797531211280972 5.608494943038242 9.735557033761815
As 13.886854184769533 9.804610290219724 7.768821938541094
As 6.4581776737174605 13.09575058637834 9.813042263675793
As 10.627431962613496 7.722898628219486 8.459250246401576
As 13.238535142508596 10.662223039801203 10.071144742116914
As 7.296808720989028 10.781727610770783 9.761397545602861
As 9.971450416000021 12.541950591553231 10.538718351582204
As 11.79457964195751 12.37086163616702 9.067438614205996
As 5.202517922446817 9.97598140947909 10.811243359529401
As 8.499837715401332 8.300216964577482 11.325661391246141
As 6.977929721604438 13.027551391798001 12.242883382271918
As 12.122833008541024 7.084332838078342 11.325775823232298
As 11.212507779530537 9.3942448236525 10.931683513606758
As 6.665749899666144 6.49316746599747 9.328844333110641
As 8.575434618881658 5.879489360539157 10.84933644533275
As 6.010716295689014 11.04782387824812 12.918482979391449
As 6.067429965096839 7.714850394673032 11.473042211780204
As 11.410223719056463 9.578862277819116 13.494254425352286
As 9.199650172718187 8.478992283738656 13.74468250165454
As 11.267570823530335 7.09989036023894 13.688848974373073
