30
Energy = -136.83803855 eV
As 12.578716204359909 18.057322226517982 8.771100007173514
As 10.62696873623044 17.11627031152829 10.065025360568246
As 13.36704282202268 15.737247939002255 8.291111831874103
As 11.433633127324521 14.803137446322904 9.588145880283049
As 12.561269009469516 18.11391126399514 11.257205526209898
As 15.19820659893539 15.908554359006988 9.898686240947137
As 19.7681232395363 12.69895946532223 10.363157440735904
As 12.292422640842009 14.428523499408701 11.85456582562327
As 18.411281656686917 11.893916156035406 12.30723937686784
As 19.023020675135978 14.903458338919645 11.254299662977285
As 13.979141554997279 16.21889278600723 12.013061246458696
As 16.92884741757773 13.930334397494953 12.291841740029458
As 15.756404707249914 13.510901866534228 10.123584627985553
As 13.616526433688502 12.505202974239863 10.998780186988858
As 20.42573197238859 13.355112552667872 12.62563386515079
As 14.875021561919503 11.228022079060151 12.716659406806906
As 13.335787714302853 9.458002870050633 13.56444781673639
As 15.331244136352376 12.115162178523683 14.99699435649079
As 11.418850993734983 12.684789420670498 15.268363989835917
As 11.93949608684419 10.268070741077654 15.419089039686297
As 13.630670140019994 13.860520995944066 15.317897820605138
As 14.32068750569134 9.977756555573402 15.872023837916633
As 10.730861835006113 12.612683582005397 17.655671380514157
As 10.31721787816951 14.996190627568588 18.00975635793088
As 14.156416719262406 14.212897313706385 17.717031790837257
As 12.587647485634243 16.055997400885904 18.066108436279748
As 12.935209099996456 12.324387167612128 18.706573498555347
As 10.357775924218268 14.754808414194079 20.493422928544238
As 12.645365904687106 15.82944252344133 20.549465844294
As 12.39258246529762 13.38169479426435 20.885226922674285
