30
Energy = -133.30325994 eV
As 9.69392503541626 7.546243384281394 9.64640155840196
As 11.309574932372973 8.954121740093832 12.58504122716707
As 8.330967616458244 5.876340511653665 8.360647008735384
As 9.172297011270775 11.559728607050602 7.904401289058865
As 13.534302294607306 11.226476703791866 11.451419641796845
As 12.64848365553139 10.748141311769574 13.736583621463769
As 9.145262427541207 8.75135827462889 6.145249959378104
As 8.292131725831595 12.096850204545964 11.040899056992641
As 13.358801889087724 13.774763785648137 10.859479198796267
As 8.423421432515617 13.961585846030712 7.879533432153178
As 8.431079978158161 4.1799503090729 10.20368155446626
As 9.110073402964979 11.134964155646381 5.434626720659861
As 10.348419332102972 4.451407632075971 8.495607655040972
As 7.30594360058729 10.27818600846042 6.847252968859804
As 10.961012520499223 8.899995062737307 7.935907617338895
As 11.417322457531697 5.852832396370964 10.343527882795073
As 10.749358088811148 14.81586886779819 8.469298361038964
As 12.205346916893262 6.77806069513857 7.518918235541711
As 12.1802565155415 12.858799538881602 8.914693949596504
As 11.219498976816153 10.919413571587695 10.48853096686883
As 13.439395072813925 6.945925256991837 9.521036672371606
As 9.863419507800888 15.503759063367362 10.71327801545189
As 8.135467001837574 7.463217254567135 11.682499232287963
As 7.622859585362873 14.367354084010206 10.259780950422558
As 11.475036537320188 14.502063805524926 12.345948734667907
As 7.228991057854839 10.694715174801544 12.867534336083578
As 10.84449917443798 12.118498643443182 12.67291719667912
As 9.371969669493073 5.412262552311594 12.127776738037541
As 8.520522975221967 12.703308171699138 13.425291588853767
As 8.991555824953952 8.95500360365549 13.453430846630003
