35
Energy = -155.86038837 eV
As 15.13928865848329 13.085196279401558 14.694871240944575
As 14.43137608909417 13.591153695323166 12.356542117228527
As 15.371917676943436 15.622685339772755 11.245626913069538
As 13.154059533318621 14.530111883390093 14.274646781607748
As 13.526402675511683 10.54613506837081 12.20348331669735
As 15.460112626273121 9.877950078229837 10.826767479359745
As 14.385937155447555 10.65974456464619 14.5282971293799
As 12.022946109020813 10.860117525852543 15.361802287629175
As 16.861624826397467 12.224414152084332 9.623843385999328
As 13.928959152713134 8.108956090496257 11.852823028450722
As 11.490412509529643 12.72626117242546 13.78644266411593
As 14.108802407934052 15.029694999806505 9.13766312960302
As 16.535764587058093 14.635825661088502 9.264011700748833
As 14.833055839183505 11.21513072053499 8.745122148408255
As 13.107634967151615 12.773262907774159 9.724139678104743
As 10.745605714895786 9.88890731291426 13.369583351432572
As 11.789927236945006 7.4215646115192655 10.838832855609056
As 9.250587699895682 13.323773943530759 14.682534416115153
As 9.644976883302842 15.852296613882011 13.925715996898743
As 11.553692410965386 13.032714769756645 7.770231973929729
As 10.796324908311703 7.359800048904928 13.114838615669262
As 8.686133379412704 10.503758242331754 14.66146892793361
As 11.073090175221436 8.863126732646862 8.858223786639229
As 9.96333017256942 12.463052202977027 10.96993385548144
As 10.127643154993622 10.958660553927674 7.795117375168257
As 8.442306045222749 9.564412892838716 11.197544482257848
As 8.428418054033976 15.76949552224117 12.056436170167025
As 8.403893143413084 7.383233888013232 12.361528445430247
As 9.817883232991676 14.206316238285238 9.188095641609907
As 7.050432334022828 10.699417461249947 12.901810682721926
As 8.077349289563184 13.20139195751772 12.456409304878528
As 8.35751427116311 12.164478356538806 9.079129950939292
As 8.987624891436292 7.681039014181858 8.214286748428213
As 8.08601110313022 6.31514056743382 10.083307059026469
As 6.970814085284773 8.472631930946028 9.460740359152426
