36
Energy = -158.36653435 eV
As 16.112520530009814 17.6116675012858 13.482053887602422
As 11.170272511320318 14.276863931396827 11.533740750548459
As 16.702514784334642 14.220994619206811 14.844089327385802
As 14.507029049699156 13.943550017186439 20.140805227470153
As 22.65953041006672 11.037752656606507 15.130708186463783
As 13.743963808583695 11.374357575293173 12.21657911068412
As 8.826528442728172 14.60246060343171 11.899482726364461
As 11.0192234807834 16.66343470087757 14.462402831900768
As 13.393651874583957 12.901111622625272 15.862140736460155
As 17.010312752777054 13.294022478652217 11.439944312063965
As 14.726222105917197 17.292186209053394 15.521803101984496
As 18.017680437552063 16.08240891957236 13.828810657951822
As 8.90429439803632 16.66113795282011 13.154715754337154
As 16.6199747020533 17.61881927350025 17.09250889810291
As 11.86664411738851 14.33539846294501 9.080797149182251
As 14.317781296511713 14.068437387916708 9.411309322381806
As 15.356861004653851 12.908659356410071 18.48120366845768
As 18.681151252251073 16.613652743477857 16.167406691221736
As 12.2170161475455 16.04515743215267 18.168511628803792
As 12.153247066632598 18.028273953452004 19.619277816088783
As 10.856131116135094 18.02963400571834 12.415572501356621
As 11.111939783807161 12.64647891917411 14.859972774535924
As 16.15907254811828 19.292093733213914 15.32191402336314
As 20.297169440267986 11.112368816499753 15.567975726615181
As 20.47706648641795 13.60299204479501 15.659921324658592
As 12.24115086033393 10.714777346300899 15.912470955602513
As 10.087667746294388 17.229178957027727 18.55205235220667
As 14.651218251896491 13.699615511549192 11.90401471572997
As 11.35849545574358 11.977016347248245 12.500952083224758
As 12.525150968447186 16.179760628877982 12.444505907051978
As 19.946638805802944 12.508963227885502 13.519808496840826
As 17.44534831637396 12.215771273628404 13.600675132914501
As 14.356731978355976 10.999443550313503 14.590520527800047
As 11.119555390757794 15.927583859957046 20.368016146256682
As 18.281349011393814 14.18628461755913 16.768971374562557
As 13.24175617046894 16.26884573623492 9.45141480899336
