33
Energy = -146.46080785 eV
As 10.924212079051388 12.302464218009144 7.960922756519516
As 17.142750644907988 14.264037499082775 13.519363370071492
As 16.129690335580566 10.42105212806699 13.576189756562806
As 8.691795785566756 13.316340737444731 8.327798409281092
As 8.598075120673354 12.676235425259142 10.725097128451281
As 14.238366355727345 11.78091905919981 12.828211487326847
As 14.679861970490805 15.618506759997052 11.015373184815221
As 18.005082962897404 12.03253108588499 14.089823600711723
As 15.729457535757449 13.446385265826839 11.630749478495611
As 17.92240266564406 10.851930220937433 11.864664900230702
As 10.153817159203442 11.382421612174289 16.627284120773837
As 14.528578347954952 16.4973277853333 14.801659554647028
As 12.367705484869044 12.714297340816707 9.91849523964152
As 10.758200053060984 13.350777420492493 11.709018525108268
As 11.737660178710128 17.101878331953298 12.545617013443682
As 20.660690932352793 17.861901803011058 15.044688119124348
As 10.563322990810114 16.250541546548057 14.542774417304683
As 12.800377705062386 15.136903977639266 9.4084106227271
As 13.297782159951899 15.275961478216885 13.044570735548195
As 18.916425409279658 17.59707075044079 13.869829125396576
As 13.993769064523134 12.756393017948575 15.197891111564227
As 14.317018042479425 11.461843267988172 17.405391080371803
As 14.046433081491408 13.761089317125085 18.201373477276334
As 9.100353625542065 10.974688556494545 8.984564847504005
As 9.356369953570418 9.002245087600715 16.36541321927298
As 12.083632236051697 10.477801078606614 17.959585012449317
As 17.129221903645778 12.337719071408968 10.115875011717046
As 12.205720047235546 13.937494152316233 16.661732117031235
As 10.706145651936348 15.670281525098526 10.74656528531357
As 12.414805511829591 16.383831022606618 16.185702073631784
As 11.823663494218124 8.604218305041275 16.302909135398544
As 15.789876705354772 14.488805118146542 15.642894849845359
As 10.705065342665076 10.046577250418622 14.597854756025907
