36
Energy = -161.34957452 eV
As 7.796415614873806 13.18744538554485 13.220265808201727
As 13.828837736801955 14.888702796503773 10.174623194673606
As 15.876138823775866 14.048480138205393 11.316635570067186
As 6.001268990969187 11.96137765644667 14.42062813793462
As 9.427709926829168 8.401811236510111 10.65258989075988
As 15.019260416273806 12.156563178858175 14.36211296082496
As 12.638582166829636 18.054591143244238 12.319600307180924
As 17.412897900151467 9.296579621798541 7.928165911584022
As 9.538705078428201 11.5977470310824 12.518325938484445
As 15.927316748366286 9.194029109093526 9.899044718318347
As 12.208789798348986 16.05980131397459 13.860332862442347
As 9.178916504724823 9.635639361891977 14.01932574277044
As 11.612542943122364 11.696316582551553 6.156506892317374
As 11.5142433253291 13.410709805224952 16.07539814068109
As 13.190086347758596 8.740594101076821 13.557325503568705
As 14.611922968855856 16.16265058359858 14.477809565249418
As 7.845937981505187 13.020458586118298 15.683656577344752
As 7.5988573765086205 10.548127251619485 15.683695558291546
As 8.110820864697864 10.483792779961718 10.755857482960309
As 12.670608923979874 12.41943897191111 13.52830190126865
As 11.219173685720715 9.694782416797741 7.536892972357877
As 15.113590661561714 17.784370141772246 12.573201222933168
As 11.423872576700234 11.900720106410182 8.598172163869783
As 12.556883060799068 11.368910248921367 17.043595893988886
As 14.785429071055443 12.537889776359846 16.810008406851455
As 15.717752103812119 16.426416147659424 10.564346424415925
As 16.004145422458635 11.226447593406016 8.520397420474499
As 13.431176089865348 14.624322360915205 16.76972817138096
As 13.41245694189335 10.499888855581302 11.790964107168197
As 9.432812185996909 11.358241619492418 7.2557000154452576
As 11.880435805051777 10.48067154050039 14.830230126077817
As 11.875457329025997 8.611864118877701 11.464047320680937
As 11.929521805608132 15.878515510851201 11.426792060081475
As 14.969702335464095 9.179064725952912 7.635442186532963
As 16.09417822426778 14.327758494880637 13.751061252908286
As 7.601470119992438 8.593197563808529 12.277135447312027
