39
Energy = -172.72392913 eV
As 12.552955328163852 10.747896524050121 7.058755665708993
As 10.196549650194372 11.484342483164543 7.013374459355565
As 9.376931221717092 9.249744169950738 7.9366688622616355
As 15.025777154559547 13.864888866944014 8.926134176646192
As 11.734709686755343 8.919592617783714 8.892181808589413
As 10.431918964713594 13.458442321916001 8.558493761327448
As 13.595352020913067 11.640640067485007 9.076433464170728
As 13.329057303386886 15.58801524534599 9.037649055554388
As 7.002146875357256 15.573648908979463 9.829499509722147
As 14.297380218265845 9.281124668888124 10.260968537536726
As 8.638620491422818 10.24032576085956 10.07047048840912
As 11.32568984843879 6.652596439515066 10.25291278896847
As 8.161312240963529 13.45402357842256 9.805891392836788
As 13.387523594522913 16.36671546985654 11.313715220710941
As 15.839331398726273 13.624079700943092 11.22718165113823
As 11.001496232447138 10.216886418010095 10.910284505803576
As 8.56171957102536 15.142216754915191 11.634959772189688
As 11.741664118544522 12.541062601957083 10.449114678300475
As 13.22330951847156 7.287800945178593 11.648972818527055
As 8.026409059501859 8.455637894233247 11.747423706047346
As 13.256629231961304 14.254253797981178 12.689956045321745
As 15.798961601649335 15.954694325591955 11.938980223599515
As 9.816409027679612 6.7880909930280335 12.271359444623057
As 7.295380278091858 11.835931914343263 12.2472891599677
As 11.759977148508478 7.498903324958593 13.68361826700131
As 15.221794650169471 9.347804878977849 14.119312260446105
As 9.657519323538411 12.599629339294687 13.16945752479338
As 7.57586544338929 13.861153263206745 13.666514254635139
As 7.698460114132219 9.953112946999708 13.776141496345764
As 16.363357822184803 11.455116963482107 13.300764855538421
As 14.085033736253035 10.656412594927719 12.306714802519897
As 14.925670292383865 15.312378669890691 14.226508269537934
As 9.76936741679887 11.026288876614316 15.130706291580857
As 11.773429727235628 9.998995310762002 13.910871180967723
As 13.497626312937847 10.039356059432599 15.802397851670255
As 11.088261044342824 14.657581706464338 13.985530593809465
As 13.461038766776461 12.310846927922995 14.851276465916362
As 15.809724114882151 13.126004965676259 15.125055965856992
As 11.488186002600097 13.326308255652815 15.939005275668865
