36
Energy = -161.2802767 eV
As 16.401525618960665 11.925465892081204 16.357219784056696
As 15.984140274550496 14.361646968420391 16.33665377406185
As 15.583585805474312 12.143499412859876 9.840563021233415
As 14.742626071160082 14.970036491558362 12.676052781152242
As 14.790274526595047 12.997698121339578 7.642628919735114
As 14.83605957630245 11.131271870134663 14.581452682381398
As 14.47178752150067 12.846229241964954 17.63650932788184
As 13.763325162558695 13.63188116454058 10.776490862928195
As 13.110963854716232 16.54517174900347 11.712937761671512
As 14.249818297968467 10.09869609882567 10.383373809210562
As 13.904943181888951 14.786406502287226 15.02301474594651
As 13.949481253651244 9.138179629266464 15.838639313845755
As 13.778348214637054 11.099892820904834 6.439546478444089
As 13.93092917986419 9.24415785473117 8.073122004411923
As 12.312117895474179 12.897711667924733 7.373084153854982
As 12.096659231676124 17.701955733912488 13.624152528467052
As 13.012008158281354 12.53791884747678 15.551369802739094
As 13.603144390358272 8.11892991472889 13.59000357698107
As 11.800566935635423 9.431898760877075 14.606817238971564
As 12.434131378834824 11.530788920124724 11.334996991490502
As 11.228290611419514 8.511078270863313 11.239570572517659
As 11.66165896354065 6.9313468197230295 14.62043495964472
As 10.632095577593821 16.02234671033481 14.728441292618163
As 10.755177197843153 14.10178700603238 13.09745221029977
As 11.025006139495169 12.286410033652716 9.437039758253798
As 11.591157534654467 8.650854311973578 7.507078199986708
As 10.237213539022902 6.72989817233125 12.617999401437425
As 9.706634434172228 17.493196401744793 12.9299240868171
As 9.935040335800048 15.593296904635388 11.277578253617937
As 10.783265846240038 7.0638032612142 9.280562676508085
As 9.954876065647177 10.37547326629029 8.254377115722466
As 9.092135032038167 8.77833908942899 10.008629146802972
As 8.708773269678806 13.098928661687705 14.026907993859536
As 7.489394718918628 15.20169111050525 11.347657805305575
As 7.157941553791588 12.869918207951772 12.108353234730481
As 6.87051943738056 14.737810895993908 13.704980519738239
