34
Energy = -153.14329571 eV
As 12.753021242629474 9.867009967811155 15.637976327387882
As 14.210048594681739 8.534695867700608 14.09835421618298
As 12.088630290033604 7.585561619656294 13.260618357317057
As 14.136661604223663 11.816318051151804 16.309444033558286
As 12.54622037400171 13.696346749343865 15.939494776609624
As 14.165711124119605 7.282024654389697 9.76371136329762
As 15.056484964699656 10.318687286304428 12.595004726178162
As 11.429036559010052 10.749324929733348 13.769530976297471
As 10.459160921778869 12.565406743345026 15.134887645767646
As 15.47514649064296 9.283733820700295 10.361969297759396
As 12.090447196064742 6.908693578715697 11.074001654705079
As 6.594684906305596 12.009129613195075 14.139813802998626
As 13.187034932018989 11.966274409313796 12.519171758754831
As 14.328420138356984 13.25783751582093 14.299394960788007
As 5.995841702665989 13.362659802477186 12.371262945939474
As 8.53829321490691 8.032497936638249 10.832455433366208
As 7.4436630144936755 14.311481909209485 14.139687723042801
As 13.430323584054946 15.956534913121507 8.383301912573893
As 9.830675896534435 14.180272845615937 13.3077607998244
As 6.957267198679862 9.907045357561568 11.093809518290954
As 13.689124104694255 9.448595221314298 8.615720697865854
As 11.677037633396196 10.272787204228557 9.898236977190475
As 14.527828701479427 13.144668237381335 9.618093907463983
As 10.260091136838563 8.41359893895721 9.0538194348765
As 6.787714274614225 8.56135626019943 9.04874458421167
As 9.967498610676047 12.419241619566385 11.54255763200518
As 14.137462958344486 13.860217234370353 7.23946039994975
As 12.85358101976009 14.75016252489505 10.541820017751922
As 15.758085663307526 15.090014974563596 8.59669315375889
As 8.56059548948222 9.451968649804476 7.50987439102937
As 7.745109745306435 12.164250227446743 10.408966116213229
As 11.082045618949625 12.028171713623745 8.182182183180501
As 10.638722249314261 13.968344336638584 9.715586047801903
As 8.614183317897368 11.850939759167138 8.012446700024377
