32
Energy = -143.6486986 eV
As 11.68779906930799 9.669700860406303 16.789496837818202
As 14.763160150210396 12.408395001149783 16.43640780899151
As 12.482479902492207 11.773970009470395 15.62331353832795
As 12.361990076641518 8.319626191415256 14.818975811357515
As 9.957026719191045 8.941922801654641 15.137422934920217
As 15.64212100065961 10.435354446594667 13.67246443308605
As 15.677310218193348 12.913137469832643 14.1867308935851
As 12.773691046524881 13.845876074038019 16.93411194300477
As 13.174367727165015 10.126459800102026 13.238654433029579
As 15.842070667420261 10.547158988502918 11.162255349020079
As 8.683313830235548 10.852455787603269 14.066743325970466
As 14.009317438546288 8.813823813052945 11.256915501986448
As 10.346440139285553 12.704749596535393 13.789507349790867
As 13.565471150706754 13.066582514938998 12.852886867294547
As 8.423887829162256 10.821177572592683 11.592795011966437
As 15.040769936780956 12.929021721741746 10.797521488535033
As 12.145785972927017 10.091210281744942 10.230309932092773
As 12.089155352058482 15.629094881695854 15.261861677219237
As 9.804017399664732 14.662061865711358 15.22923869401441
As 12.993917709845618 15.502214756927433 12.924820661304896
As 9.709609034947794 9.095219763895015 10.567648952717569
As 11.116167882803532 12.811762548850346 10.919291553402285
As 11.786960816247031 9.51009219753306 7.8574982869378855
As 13.070747584582966 12.787633883068443 9.270844661937987
As 9.040491856897162 14.656307268474634 12.884831166044556
As 13.369450809542338 11.351216215062285 7.29294840139009
As 10.966120167269178 15.358298944262994 11.460957465683205
As 9.448690087175814 10.307581286137514 8.350987251023291
As 9.366990785534519 12.694963159102034 9.18130313178737
As 12.629879767716249 14.80450045377827 7.706686415497742
As 12.255546964480915 13.121247642288683 5.898279413283489
As 10.36110701464446 14.033038310695858 7.192144915839032
