38
Energy = -169.5975394 eV
As 8.376061219252556 8.572188727470044 5.024549006360561
As 9.464739642165691 6.8848094865083045 6.4338672867962545
As 10.224310674486844 9.178194095047626 6.5141724098965055
As 9.710562302820136 15.539848450978353 5.043312748718776
As 9.936135866006232 13.203948081224766 4.536656816714016
As 11.606787630561234 14.330596040197493 5.96425949740615
As 11.226143388101507 5.139260870483039 8.832565363504019
As 12.89663286654762 12.677654198500719 9.02019395710321
As 5.534848423902087 8.58747096031441 9.571250786944432
As 7.979148597167619 15.017224411529877 7.194705995081828
As 7.7820744530116555 9.390324304941258 7.3512996009776606
As 12.468087804162769 10.913582350896073 10.847931095336369
As 14.350050860158076 10.307718631795446 9.459497413383456
As 7.495291183779787 7.104711283323627 8.312327350541247
As 8.484410003284076 15.913120480503116 9.468796278460108
As 9.670133758269525 13.208722062374825 7.142570549573087
As 12.23857836443191 15.307763149600476 9.172306706558894
As 5.716121183601057 10.553977820068202 8.567702143911927
As 9.793542681105844 3.7898328283577984 10.29426664504698
As 11.044588506620942 7.418117888171359 9.854155524377916
As 12.113190551708788 4.297368377304152 11.051227417169788
As 10.274075200948038 14.515423470710022 10.508231060575877
As 7.2370893986067815 13.722871216709377 9.408552206400701
As 11.880074043617872 6.580049302451253 12.06037507940376
As 8.320231439546232 5.369413383592066 11.524738286507748
As 14.357573724956673 13.52200867180549 10.784875756102018
As 14.809108828438161 11.072001886883148 11.674120022336355
As 8.674566676268748 7.57058384249911 10.475151857192682
As 10.19071519512982 11.279281183732339 15.112095320175081
As 9.922902245985252 5.771970262397616 13.349783284833011
As 9.268486335882187 12.401817318357782 9.611560789507827
As 8.734768724730698 7.838035871197426 14.163492004747567
As 10.24701182438788 9.583121710935451 13.346522553125043
As 13.66666608633543 15.731986493198512 11.075544815806817
As 12.187170111587259 9.793415853613734 14.836134464919578
As 9.531556068909106 9.993935743545348 17.225223475703874
As 9.319112073604199 7.659668762295904 16.535394480123887
As 11.560792624189537 8.551321090755861 16.943930512944995
