34
Energy = -152.01046379 eV
As 13.491854418317224 14.076897527916763 17.739824439710965
As 14.529324703864576 16.24725120152806 17.163725790138507
As 15.921027812231506 14.157832612695419 17.46921417921052
As 11.313988997811334 17.385314389766314 14.14317001405366
As 10.572380010046695 13.36358657069284 15.504625410281225
As 12.790526541803208 12.316307223159031 16.11625558157772
As 9.022551853177816 11.252935375901869 14.967489911841922
As 15.253174954693508 16.375406712699334 14.766964683494887
As 10.055024168271093 15.872964370901913 12.609806405574712
As 13.012294820352308 15.590048458435815 13.931188899759656
As 16.183336825654532 14.0519454645661 14.946074322057092
As 12.231871620273655 16.86726027436446 11.917237444167341
As 7.059335676920323 12.463543863936977 14.318452781841032
As 10.961234770137251 13.573260015881282 13.130853849229268
As 14.198451500941456 12.771442388969428 14.105552299275903
As 15.55346882807987 10.636873040069402 14.089020199787997
As 13.944278858022017 8.873883182229278 13.313005157553995
As 16.649877507607734 11.402230740184626 12.007030511707756
As 8.746598795887165 12.079258554616136 12.669698042429212
As 12.742607943283213 11.048642957707987 11.233328305291627
As 11.848414061563698 10.333965273682125 13.461087106982534
As 8.581815472158706 8.575220170945297 13.94105120094269
As 14.83064980534356 12.424527375302468 10.679889093183982
As 10.921160291112024 11.831484931789555 9.667479993487511
As 13.837051463795403 8.875837148146363 10.808153863710885
As 15.845502840732504 10.177833134564192 10.03029458777635
As 10.540572736914026 8.404049366432377 12.438700804397378
As 12.14048145475228 13.660747397700154 8.574554550902574
As 11.171612602867425 9.935407838194125 8.138344459608184
As 8.411450546221149 9.464969677500338 11.780109255359518
As 11.450354183975566 13.431098325788035 6.234783364530785
As 10.842014224260295 10.967777817067537 5.946338257585747
As 13.7450506809587 12.740620288516576 6.979857840991276
As 13.135355760577625 10.304273060757112 6.711534124166264
