32
Energy = -143.75329129 eV
As 11.917301206754994 11.15118844585326 18.32029104529585
As 13.923779763801738 10.722398714520482 16.850110152567968
As 11.73954603857469 9.677550477066001 16.34049931351243
As 9.22895291798565 7.558150409294118 11.16253802648526
As 10.746867902443793 7.0501965520693055 9.28361557860095
As 12.06623068836224 9.078790370446857 9.864123184151405
As 16.63833625898927 11.887753402954585 8.797240287688622
As 8.13875229069154 9.719476851072555 10.626014733687741
As 13.670953594469587 13.01966542751504 15.882475270474783
As 10.678382762956241 11.042798382882397 14.508656717740635
As 7.3631623211450785 7.6076641436246595 9.502942787035904
As 14.116489848714036 9.373772013021245 8.405379841917785
As 11.668549195433288 13.437479465967884 17.330679790201017
As 14.500808018853732 11.502597222494881 9.566161626350988
As 9.716851888474684 12.745840154772942 16.02793742390644
As 12.768149420953488 12.147585458948077 13.778716605194077
As 9.077064107668091 7.954014233171809 7.619375120684991
As 11.804893315683179 9.825923847954238 7.546751493625002
As 15.529192083011749 13.262190084464551 11.97497576453608
As 16.937909931299675 14.007594020487764 10.054624142584737
As 8.52187352904534 10.291302769193148 8.21860927273312
As 10.427211193403524 12.1240140954794 10.382674404767918
As 14.508329151449331 14.624773377282812 10.170571052913065
As 10.48463200630855 11.906224854503783 7.87985574302527
As 8.574373857819936 12.919603499239836 12.860165034610237
As 9.486905492997431 14.567776269961731 14.335554924039704
As 11.791503380804171 14.348115677553615 13.142525323246081
As 8.815218635722683 14.03606220062661 10.685785954972586
As 15.826755517294274 15.36550803948462 13.378818530604432
As 11.30833894333449 14.422488099973117 10.701795446043452
As 13.527073162762365 16.204919082339586 13.577892646019578
As 14.81388815321007 16.73485893619766 11.540919341199617
