32
Energy = -142.35097954 eV
As 12.375651993982368 10.268228973393342 16.121832233445787
As 13.819737908848834 12.312854778896378 8.174504174591776
As 13.620738340350163 10.269175453529657 12.403200969733179
As 8.512437849196518 13.295422554372845 10.346303852503766
As 8.279151388559097 14.738184549264059 16.66501234647219
As 16.56995048682767 10.462558313458466 10.210981049738708
As 13.027983020413778 10.035003162030698 8.735259555941226
As 10.46524762948158 14.545634060327984 15.813874142562788
As 8.748256754872616 11.583099479498593 14.21556076203434
As 10.01851848686756 12.210176931316195 8.699252391839394
As 11.770920892660502 9.341055356906438 13.907157123074011
As 14.33487946132944 13.730127456023611 15.45934791470828
As 14.776982225082715 12.863871977824887 11.90225137698166
As 16.827466677254066 11.538180113756008 12.602218075884785
As 12.566245090262976 15.05286935741402 12.938064735783895
As 9.422580986784453 16.713608695214532 13.075086813929092
As 17.05867474284115 11.599892525193418 16.98038832358329
As 14.732822965108054 11.253524707637341 15.677587455147629
As 15.012303406453219 14.934533942582704 13.385262276934336
As 8.543768146686235 14.10828421148046 14.336676852213005
As 15.546166816680318 9.80107798193515 13.85713950497157
As 11.263556597229307 11.758760361291424 14.437026215383506
As 14.579677870701795 9.018595527176023 10.390265516938364
As 12.212339124132859 15.609011227651694 10.640403283805988
As 8.3822999119813 10.842959097972031 9.993439974193969
As 18.04590709779927 12.710494616027699 15.157105778282224
As 10.046586196678456 16.43329102313949 10.768095504951937
As 16.578472294509925 14.02318476664481 16.617115411638007
As 15.839522825598287 12.736148360479786 9.582853278812342
As 9.734230221714913 11.757719499039915 11.875575109338634
As 12.173389444651391 11.97396090842586 10.054945964210795
As 11.415409405576595 16.65321500639154 14.382439767481435
