42
Energy = -181.13298948 eV
As 24.554008709092894 14.086183000803128 18.31038034394032
As 12.645279428412328 18.746949125457878 21.296938753634624
As 18.365722223722873 21.777997251241356 22.704138453189625
As 13.2315972755521 17.529500631958577 23.23952146748652
As 17.154953515771403 20.447421978156918 12.438413276980047
As 22.710981260751737 13.379263152700075 19.338150974699367
As 15.87851644139438 14.584165147989816 15.832561666441432
As 16.30077718424484 22.96494180919751 21.902002251852995
As 12.099605100762874 15.370779727630806 20.229969858641176
As 20.095937742754018 17.595429858591636 23.874359166844794
As 12.014880395942345 17.519307065580378 19.37838002840095
As 17.574578900705742 14.744714493892872 14.083750978086783
As 15.326280435234896 21.406162678875223 13.851830178213605
As 13.538822188218727 20.75737676151574 12.219983082949753
As 22.411812503793957 15.543812273330335 15.446903779719436
As 16.388924289689257 22.73372772553587 12.007724828614021
As 13.279858067130805 18.29988236310209 12.53082492824029
As 15.306556364027122 17.575390632433432 13.836170560860053
As 17.865405754913816 17.255656350955395 22.823023726997583
As 13.897613593086586 17.620873714845544 15.924952910275502
As 12.778410434538403 15.379661935273724 22.507132826522945
As 20.277758483413685 19.918009865211896 24.529824183204312
As 12.218251994251075 18.913183495336984 14.660311297206357
As 14.004645876842742 15.585005995900417 14.476391354764017
As 0.14983384016476764 19.482134375273613 16.396125740936302
As 25.35248481204748 17.084480932828896 15.788754578848927
As 15.522749403232682 12.169502208443411 15.153531459303684
As 18.17746423895386 16.71214296837043 25.204233190270642
As 13.325033966222353 21.008614326467573 20.924677795587762
As 18.728636270866662 11.755785966823886 16.216279845713526
As 24.881426066238486 20.629551726120006 14.382299783335036
As 16.918339696288914 20.758572547568676 20.97595490816107
As 1.40011372947713 21.83835328880165 14.41497113742065
As 23.624081245138036 16.255926283075006 17.4201737942315
As 16.66857145354964 18.571443674534507 24.534423567984476
As 15.092205254935074 20.931485643983528 22.65609987652277
As 17.98856870537776 20.635676275007107 24.92584793396504
As 15.49450508544367 20.86298589491362 10.621069209520078
As 17.76165224491031 12.283529834345623 13.987055127262092
As 16.67031327039723 11.407593422004961 17.198036169048166
As 23.493648188808884 17.2135323258107 14.224051624845071
As 2.3990953916031548 20.01693719836674 15.529604921899237
