42
Energy = -185.37726542 eV
As 11.790513891802822 14.363439516029542 7.497577738597392
As 12.69428950866048 6.866584492451349 9.546685547165797
As 13.055816406796675 15.519872899048433 9.33855230441468
As 15.968696687268503 14.369773443475605 9.23986287093366
As 12.628937761022081 12.25194135033243 8.628218566790197
As 9.926635337672568 14.007005484382889 9.160680398560102
As 17.446418664893812 12.391227621675572 9.622035817993005
As 9.388436943408417 16.28721923346978 10.048060159210959
As 15.022665626715739 7.223467713080938 10.083242948468529
As 11.587088931508344 17.43414573620442 9.793129880985752
As 14.92161808611545 12.235484965633253 9.94505596870314
As 11.715916954592911 7.592927660614705 11.644025794517159
As 6.812672283524752 10.803208472385265 12.57207956534156
As 16.675733539187323 15.430396115358699 11.429827035683017
As 8.34106627156686 8.830271052445635 12.32684148492256
As 9.12170267099852 11.156895485966363 11.836527986422386
As 11.961521470701543 13.652805663352032 10.62375171617959
As 16.60129399642455 12.991119986265348 11.969833183642296
As 9.146382076207074 15.589902164526885 12.414595944853646
As 14.579953735455875 16.22232367360854 12.756128224177406
As 13.868071121466098 8.988540160725982 11.523994639779492
As 12.946229991571391 6.048832598173977 13.234880338245686
As 15.106371245961267 7.096978461178675 12.58347696083693
As 15.642695766447902 14.37189245144607 14.744087881519315
As 8.582843177584971 11.441733042738074 14.258142420248122
As 17.280207822859023 12.450403096671927 14.393253517871244
As 8.910542476493774 9.000091150937234 14.777840168780031
As 13.826989723995261 13.868141226721855 12.921033857237253
As 12.58124005173844 17.689564089712114 12.04993888774882
As 7.82868597679685 17.667796525291976 13.21376137262602
As 13.929413054924419 10.860482966073903 13.760990578563359
As 16.310782824823757 10.249591836952243 13.598605452340074
As 11.083614436220733 16.500239960489562 13.656865925250104
As 11.410670621826595 9.309527011864356 14.510871665311717
As 12.979593102952753 7.429608835004447 15.283968252723957
As 11.878951228472937 14.183159322088851 14.467757604688469
As 13.632298798353268 14.284289059765804 16.262341814596574
As 7.550598232516315 16.937924744938396 15.506747881647629
As 14.81397429203659 9.229013895260541 15.443604582839427
As 9.400113409139337 18.272690472908913 15.035592191526774
As 13.696305582245033 11.730421576512162 16.198743412580026
As 11.339438685527405 11.156057252713829 16.08377992395422
