48
Energy = -212.21091068 eV
As 13.684304485136748 11.76098460902541 7.608646869104645
As 12.445623284282636 13.83793782400564 7.6746737292460345
As 8.451313355945686 9.154969297278923 8.04521584829709
As 8.998111422049472 13.049614517689239 8.833569224125817
As 9.757818193266319 10.760470629291865 9.352871693074105
As 16.51233399850253 16.492386026470545 8.371725799867539
As 14.740210652838456 14.796286284605726 8.67449632623184
As 11.106878476760306 14.067957413036766 9.832740610014156
As 17.93524946424586 14.699306840388443 9.015958422683239
As 12.187340793046618 10.603244440711961 9.163325029624325
As 16.095247986342194 12.676791192678175 8.834603470071375
As 9.721815947127068 7.529106433205141 9.575482201411186
As 12.12791020831236 8.211524152954413 9.680504060663608
As 6.9234931023782895 9.952335135097924 9.939546449266539
As 7.729601289000408 12.279048488771483 10.871880169833984
As 12.956515115779274 17.595272835741092 9.991593228475761
As 11.958678473880783 12.19276364324703 11.208891587479105
As 16.073504290741745 16.418194356250574 11.584269988616501
As 18.156694649261613 15.112772018938783 11.517048267553053
As 15.306433435613894 12.53134338913137 11.217130236817148
As 8.036128682329597 8.228722526247648 11.349580513413212
As 12.91373431532443 8.934103913017557 12.428968185569948
As 9.699643332789185 11.839154627038473 12.433782136519726
As 14.245304257744245 14.796335076473113 11.182654205879004
As 11.96356183328868 18.065431534417925 11.843267938121032
As 13.879435920671149 7.390218417793487 14.304928897757222
As 15.823990171790157 16.29778449202081 14.082566491227727
As 10.810880443205027 7.8062625453097265 13.098663762755859
As 8.708923664680425 14.198345364962048 13.480205841059444
As 12.872727020621834 10.87104726964557 14.258254623315969
As 17.4614568000764 12.937620408632117 12.382563707553555
As 14.15051371120258 13.390076116544604 14.332887848093657
As 10.46831210381359 15.83820076276388 13.050126906973809
As 8.968429347435073 9.484484276638986 13.243243702430616
As 13.278365214847787 15.804950152000051 14.034147688579086
As 11.634297554327746 7.366247808086304 15.437107330581432
As 11.571121207454114 13.651674704032521 15.888962657186925
As 16.7109552829533 13.995353186993402 14.555205724870525
As 14.90626297333551 9.589064531495508 14.984464491910025
As 11.86209296261138 9.686069236395115 16.28392049554868
As 9.144180895834669 14.36000758848447 15.91177198015291
As 14.10596491733846 9.567600063045358 17.351298844087648
As 10.146008305929245 16.607924092941207 15.35773470719159
As 14.769421313363122 13.793086812479531 16.675646280227294
As 10.200989204136413 10.65770052624772 17.655161536190302
As 12.480093408200762 15.920605898101172 16.402175290387493
As 11.583750841601697 12.587702835277849 18.134582273173187
As 14.059279960994782 11.936819976806788 18.186856999199694
