43
Energy = -191.59453605 eV
As 15.252083686328845 12.79628256885936 7.899510081476544
As 12.868264582280387 13.043991471192989 7.073176425681136
As 13.573029453445807 15.712637584209391 7.357493736115016
As 11.6499155322918 10.688875309238476 7.7771447437658665
As 14.464425187513998 14.638605371451279 9.39510995698958
As 15.42643251990768 10.927965327805923 9.574017296105138
As 13.36393259696379 9.546782037060824 9.142437180808875
As 11.519223008307895 16.33173649286906 8.585525079244695
As 11.694449723523705 13.834600213381226 9.142947001174804
As 9.945823037098636 11.884440958734967 9.047208968160495
As 16.2952994292671 16.226260639354635 10.07346640823236
As 14.716914203949957 12.225272408279318 11.577542620592874
As 9.289010387883165 13.46512076092534 12.109557558272607
As 12.722390134129348 8.664265382130441 11.419097738786265
As 17.57282006788045 14.517477931855428 11.222753579719082
As 10.462340066027352 9.529238353415954 12.306851671240247
As 12.289247950363865 17.18257674851868 10.86306832824245
As 12.809648319946566 15.13607423885505 12.185846377328584
As 14.742109228783065 17.756674665743493 11.329982366243303
As 10.94681067158715 11.766506713924091 11.304642462557496
As 13.849275699471908 10.293184854199032 12.890703433696345
As 16.631181269160074 11.926874163857393 13.241285464905939
As 7.952830841975385 12.953254283413333 14.193578785040497
As 10.974034087480321 14.27901570407895 13.726745515482188
As 14.02463788856053 16.822670133634688 13.55019641320561
As 11.284315943738271 10.837901051550693 14.355882250986438
As 17.630318826149395 14.511069346168185 13.574999882286704
As 15.870291333097477 9.51590531129034 14.094994264619926
As 14.911046684649296 13.17769796234453 14.838243225561612
As 8.916337094393002 15.23630382764679 14.743185883844022
As 9.096684436775472 11.180273004780606 15.567972315248191
As 11.718048887812817 15.858257316245012 16.94787533650918
As 15.846561232906538 15.62561841906033 14.806842811349563
As 12.290899589776911 13.523577780922908 16.170577216682883
As 9.390565033109489 15.768861995054896 17.079580248742783
As 10.355701515761373 12.434147822367128 17.3414771293537
As 12.240926398944652 9.129335603457019 15.972479126797902
As 14.312917525493443 10.521536200779899 15.738935586576822
As 15.877650180194557 13.157008447706746 17.19352810551449
As 13.652312763976752 13.775195620157938 18.305247409506954
As 11.480062125491424 10.310338825114087 18.04973883502407
As 15.483846134297897 10.718276347041336 17.898040568883648
As 13.44530256923064 11.408228651251463 19.170428459372335
