44
Energy = -196.26115492 eV
As 4.997144171534244 10.630475345824488 4.465089123497316
As 8.395329780276388 8.372604369902914 3.7889026919603577
As 8.836675298221353 10.659598982742251 4.796391799501316
As 6.77050305227367 5.611788626266666 4.652393385984742
As 3.859614596011572 12.400967386952228 5.844508381198276
As 10.703788143740633 5.839517993349663 5.110468898308714
As 6.045277801698716 7.639684713621117 3.6918508386985835
As 10.24641479156535 9.502415355658428 6.548286513211819
As 6.146123915869694 13.004119523188184 6.6044838091550035
As 6.795949041141496 10.596578120032307 6.249038588910632
As 12.175799296863358 11.070806432571704 6.703826697626166
As 11.834011811483403 8.060250227082415 5.189688261430548
As 3.2330028929619448 9.987838402074713 6.090365127896477
As 8.546940770443328 6.894002322508094 5.780955383414469
As 8.191396505059032 3.0345525400830144 7.737859978143051
As 5.3951390624066216 5.224058293117164 7.328722199836156
As 3.1757460914034636 6.4447471262930005 7.585675358113612
As 12.369408364240902 6.276977137467799 6.885936683504942
As 11.059634377718458 12.708483353923416 8.252153129303316
As 12.842720763792833 10.095470430271183 8.967345926383189
As 4.730450376285548 8.43766804724823 7.376217878756897
As 5.653878662021047 13.24561074839313 9.064084619094823
As 10.133408433641435 3.9973868689879257 8.478758621758308
As 6.885022460556906 6.283889598490556 9.001539572749023
As 7.878671312978469 12.375345532934743 9.782286628795172
As 11.752916917212781 4.691422931583134 11.498875880444265
As 11.439127737256955 7.313339897528126 9.008675947878544
As 10.564104923753941 10.77898188059286 9.841186081672445
As 13.343149239575741 6.044269291404885 10.1169235013682
As 13.249030895118498 12.5434989767925 9.520218943613571
As 5.055068641915414 6.4577426273227685 10.65874267627255
As 9.799512783371398 5.727175381618552 10.265580176097698
As 5.98646977646664 10.831240397948532 9.534141429536076
As 11.461320802845632 8.582821490010227 11.84749301805594
As 6.378015187364666 3.860266144829828 9.217606362315198
As 7.870648398371171 9.299147835919834 11.489802272758933
As 3.473617165344811 7.99264111699497 9.474496902112564
As 8.23717230725061 6.363520267241157 12.90606956753841
As 12.89270974259517 6.66798924252472 12.482143876968383
As 11.826639734836265 12.115746953071552 11.571204710798657
As 13.114413886414642 10.175917651717176 12.421907936056874
As 6.223942969347632 7.725342413530123 12.51658898624667
As 9.272656100174595 8.477301661980102 13.38076467878663
As 6.713361628385308 11.512726970194782 11.826677566037022
