44
Energy = -196.58448056 eV
As 7.66351675423318 8.0204027754357 3.1069934662795875
As 8.943845841413623 4.193970449397227 3.9602507231398723
As 10.827219969277195 3.6911041978554233 5.175130038894535
As 10.761029685427193 7.160982301702318 4.5852272826370895
As 5.475792487873099 8.828072317722642 4.1817101414375
As 8.576284661330744 10.01191529417597 4.228338165228326
As 5.534307597679119 6.893787660833128 5.59762606902599
As 10.003691226072624 9.013748890966658 6.017362399980112
As 13.634893290938384 8.684215865392174 7.296194032272195
As 8.414126868807516 6.438675006231072 4.93387119182594
As 12.216111950220464 10.142245009481053 5.809140234589639
As 6.615885495685018 10.014848851791559 6.166015247019658
As 13.344123150620433 6.17445825677782 7.197133667804822
As 10.943663329320877 5.760834703538187 6.602594761394681
As 6.514193089640785 12.541902840235803 6.40841293642303
As 6.366872702598165 3.0182025460724913 7.870121807508425
As 10.750539943816856 7.721267069188306 9.358840658388676
As 4.049820635485301 9.883226952851123 6.826089684193571
As 8.991389742748401 12.919823029022558 6.428765976987446
As 4.454477093981567 7.615454892339785 7.702992725774014
As 9.538341976573374 11.296178105503465 8.26299560001605
As 6.0539886086706405 8.558853005123982 9.516075647413917
As 12.000347063446636 11.449528852077126 7.974586029826686
As 3.9945836458702226 11.492093196023932 8.809667091782993
As 7.14948803010423 13.917934172520509 9.815757528630892
As 7.873036867498883 4.871224877963846 8.468128689693875
As 9.401860952597723 13.761939040842288 8.743433020718165
As 3.8121428637371846 9.40686308751716 10.176214566643454
As 11.629352811594602 4.156136073944019 10.038688830122668
As 6.471497245070316 11.762480894580962 8.775208727523157
As 12.572707266478478 9.458090452780949 9.45251511377304
As 8.778502955153193 2.6057681636058323 8.228867613553247
As 6.210799209136509 6.910052528648136 11.429078262688565
As 6.88784967573972 10.764605110852001 11.698823347162056
As 7.335933464574488 3.1473962121369294 10.145224041053126
As 12.799377396072654 6.302429242135261 9.641106499344916
As 10.4729515066346 7.265420881031775 11.847660711712477
As 3.937362373955081 9.827531901957862 12.593006750635919
As 10.087981189507842 4.836580910989067 11.598650488083953
As 9.350853455338436 11.009612484561645 11.454388703332214
As 7.937801505017466 12.987190719382252 12.053809157740787
As 8.204829605250307 7.514219592147728 12.872975856898579
As 5.004189206714362 7.933279569489884 13.335744168332063
As 8.312177414807945 9.935193819886013 13.514324149226965
