41
Energy = -184.08693047 eV
As 13.119419572838149 9.25582681048144 6.160731901541814
As 7.48809635871853 8.87129465796452 7.641760724839038
As 8.963292191673748 9.004822695644574 5.459648744072231
As 7.513440418076324 10.845463436780884 4.789972333004337
As 9.591824327515988 11.314017194079518 6.074812226491327
As 12.213108740649181 6.939695586402279 5.610470586203255
As 14.412610570602235 8.205330185034036 8.021349781655163
As 7.236819785881454 13.060048983624645 8.08961021370684
As 5.632656956266523 10.041730734388223 6.465095845185923
As 10.576110508532722 7.06555861655829 7.455994145099275
As 13.797004724503852 11.27361410901376 8.890690915151254
As 5.20289274446886 11.672403666022007 8.365743123537174
As 10.5712702685772 13.519244477578294 8.554111454355747
As 6.1188727369864235 9.83151363970553 9.786244692252149
As 12.193722833570055 9.223134471584881 8.488986365306905
As 11.720991182485498 5.172098885720888 8.469114324348856
As 6.400276803029942 6.698843708300528 8.396847949671287
As 13.799207237411522 5.890401061968121 7.262623880275654
As 9.438709017038677 14.919751211339568 10.3289067654937
As 7.04667254532948 14.262498456826643 10.256418655821632
As 12.557523268333169 13.107865083721935 10.019734258775612
As 12.668359489246228 9.234389836454655 11.78354380827587
As 14.854226311573719 9.99136137487328 10.774034734703829
As 8.265796347134847 10.87219115418467 12.113670817620779
As 9.610302253099073 7.908517689039843 10.44349163833367
As 9.10171476877841 11.46903121438689 8.582125146506483
As 11.29455090846242 12.017553494466371 11.856001372164771
As 7.602639774423308 6.447383933291833 10.627010201582605
As 6.320109076225215 7.280124350817489 12.585206726498308
As 4.596794347534871 8.380626516511105 8.609848955885655
As 10.88863456904619 5.7982988499177734 10.817099989183559
As 10.167268476657544 14.134823585444096 12.583266067960752
As 12.285373754870902 6.865556207675956 12.575803720804528
As 15.148134615885027 11.405936732480322 12.821734296401935
As 6.482726782635074 12.621992092738667 12.052055116450177
As 13.536869312783075 9.932882659147296 14.037091166275736
As 8.318684086336766 12.830797032141042 13.684108357017704
As 10.17372790482829 8.320932210322342 12.869128504617196
As 8.19101424349968 7.423568400618218 14.197568751048554
As 6.833347603663459 9.472973070794515 13.657317556201184
As 12.979273633728514 12.329972974854693 13.655095238578674
