42
Energy = -186.12305605 eV
As 14.077774441158809 16.37782767973764 14.354131695552562
As 7.0835393819481975 13.768595999070792 12.158143376131273
As 8.789540797228977 12.240000951531574 11.021147671036843
As 12.798261018750523 9.223024827826825 15.273685728868346
As 8.110334253041396 8.410845467413976 10.541562294352339
As 11.5556838109896 12.380457945993543 9.913397213428851
As 9.882731897868089 13.016209732243675 13.998461698678636
As 8.40472567716684 15.789826154197629 12.535419485739997
As 14.112799533969225 14.075702014172222 11.438739128138133
As 11.303441945802433 7.078902988519448 12.842118046022065
As 13.861970855112121 14.101194079244713 15.338234561531564
As 15.754713680373811 13.181759882881126 9.722432180324045
As 12.57433509555598 9.590385536373033 10.353290044229778
As 11.311436833956975 11.816392561398063 15.71705838738382
As 15.928320745438988 10.852327910832912 10.588439785255478
As 14.945469284055761 6.655286632580132 10.689562998993832
As 15.583845209284148 14.694724559375185 13.236080610063013
As 12.542874645199698 7.0875716495848184 10.611533441624632
As 14.24071997341532 7.275439016958301 14.500211472950621
As 10.728293683443443 14.706710637013614 9.162365059428486
As 11.136594403864038 11.014834710773158 7.805346973861081
As 9.53459909747275 6.710623120267588 11.119761933256997
As 14.5832459092397 10.834698172311235 14.560365791481374
As 10.811078724832708 12.882710231340532 6.152791130385936
As 7.559215462791265 12.48412684325957 8.82437032584562
As 8.610488077956179 16.21439770805429 10.205008951719842
As 9.003418425794278 9.488883710009489 14.197630726747471
As 14.909548191841854 8.397771559024617 12.42781716592291
As 16.185980821167476 8.875732276773679 14.537322641630523
As 13.606201538897853 12.880228008036267 8.438004242054896
As 8.843121195060613 11.532178637928464 15.677851407840354
As 7.736585895847664 10.207086759470252 12.165386572535976
As 13.568123978611299 10.806889745331196 7.168891277327271
As 14.664683338701016 9.271342391104536 9.018318915178687
As 11.329073187641304 9.52839270415006 13.24580725122554
As 6.698196688654749 14.631163295025468 9.823118457678131
As 12.277886899254922 14.873045177923638 13.61037235959478
As 13.890439329374322 11.20488143687458 12.009675241925374
As 10.357069383244257 15.128954468077191 15.289272767142359
As 12.27802061771813 14.642141808735712 7.114998879744859
As 11.697142630725587 13.925986913688684 17.00164799765126
As 9.026934443162874 14.039205100506674 7.508685115130077
