48
Energy = -215.2395682 eV
As 14.871323162264687 14.247612020688543 8.438047240827999
As 8.279691256613754 14.434699238814675 8.76553526915056
As 11.753988853032258 9.36265251064769 8.750445418595795
As 17.104574305750045 14.515003777634133 9.52348664466767
As 8.695794969135012 11.952419585719285 9.100947368538007
As 12.036263726528228 11.662663286143072 7.988264059570772
As 13.803830777555028 15.551374551242015 10.268226155994695
As 10.60531573174812 15.127789435482676 9.424601052107558
As 16.09805081963106 16.665778846957434 10.351054771356281
As 14.473696579556787 11.775003457064225 8.466571965199062
As 7.250563482991387 12.012637901486544 11.164823246274564
As 16.568214175984124 13.389147544706386 11.643542264800214
As 6.8783987815576815 14.487671375730526 10.83005034431137
As 11.02017394242715 12.68098783886053 10.01659667565476
As 11.709619758758164 9.633690550250034 11.162110365990635
As 14.334449737016504 14.272636435454404 12.40579032855863
As 16.934962625987875 11.033182512564592 11.027175380943367
As 9.403181314225169 9.502053769633896 12.177197972114145
As 13.020557428154628 7.741167960460431 11.97689491714841
As 10.562807910788393 15.756672500218267 11.836260285878678
As 9.284055546631688 11.968229546323768 12.608619637196876
As 14.522756076652968 10.508100155991972 10.64362773669639
As 8.242650538613033 15.463318465194176 12.634358684031929
As 17.84566795176839 14.778184959752219 13.32646277292257
As 12.236764363804133 7.511123733071244 14.293086310673146
As 15.963786806101943 16.296242521696527 12.83809499444688
As 8.457317377875746 18.894544550443104 10.517065575351069
As 17.440994680395196 10.137769904983797 13.324794826521046
As 7.241860039128091 17.70458749478831 12.323756626707993
As 12.907673271790882 11.809581392016105 12.086647480260035
As 10.764674871183418 9.540964499636969 14.239888045731028
As 12.528180847271361 11.44311744513602 14.96101157105725
As 14.115212195630354 9.070845266400907 15.051556934248074
As 15.98558721386701 11.472871073412003 14.84761617805732
As 14.546562897727256 14.725680063908944 15.446788966492928
As 9.084337221761007 19.2633473964787 12.879781858697115
As 10.686248813934856 18.173915615406496 11.336019879024676
As 8.662274358686826 12.188164743088889 15.07698222791162
As 16.85507139200882 13.84766557567282 15.457124946177185
As 10.82314206322935 13.395385067896274 15.019826471949726
As 9.319093001470453 10.006700910930256 16.19431693095825
As 15.993677629026777 8.132667569555833 13.678579723777624
As 13.94684227642429 12.811675233280528 16.760076064902194
As 17.04180246273016 10.249517788557046 16.801941678304672
As 11.4793789278805 10.629693961333022 17.236927448849688
As 15.285640554195693 8.550843310132821 17.24852220659912
As 11.511715492672097 13.143850791355678 17.399522473858656
As 17.275856258628618 7.930850334590992 15.903664491706555
