49
Energy = -214.65266384 eV
As 16.676274149413505 0.6905917084410657 21.230680773119264
As 15.90849881007569 18.433432183102234 13.941845254059228
As 16.964134342562073 15.488235062029238 16.48536555445788
As 23.924952217367878 17.813709975984796 18.90482346119862
As 19.940464147252168 14.363331750708548 12.34352145491826
As 17.539997541001544 23.682367316267058 21.087282650131826
As 20.738801883907023 21.503099705875098 21.67901840266828
As 19.161898792374902 12.317084176316246 12.938067961321543
As 14.588141994390082 19.91192887180113 15.481941936640661
As 12.507150450247016 20.853674554331675 14.57636609957531
As 24.192254098601737 21.215124240064025 20.584349226758206
As 10.571820170483557 19.76887291888813 15.112519940547855
As 14.285597578014498 14.066672362258991 16.75183236958577
As 22.90560188256522 21.604595255620392 22.72273465519254
As 21.432123622751167 16.2843423325538 21.086353991398312
As 19.643470774895146 17.43940018336718 14.06672097342856
As 22.54301581077388 19.76829033167651 19.439688599126995
As 18.953406758145924 17.042622780591685 16.388033877681536
As 2.4757761094398756 23.3345080732945 14.569895029064417
As 16.137708961406556 12.321431426082686 18.84465208716666
As 12.05794486247884 14.550205833745988 15.613500959665842
As 0.0947857575854341 19.524021469179004 22.009940076974267
As 23.234787660528674 16.26691356609898 22.657017924579677
As 12.686135399548112 17.0093529349068 18.228042880244853
As 19.200641603637674 0.22287183530954324 18.345634686939743
As 17.678070677199788 1.7020264724155498 19.41855507101713
As 17.685201499543005 22.911250921265257 23.399391430629894
As 16.421871075975925 14.99435437631719 14.087966966171729
As 16.839074487482417 12.583051037577142 13.662650069122874
As 17.19903295921041 11.581112438222348 15.872708190726012
As 12.455678536429106 18.746555753018292 19.96494200266551
As 12.918880675505225 15.504969430042078 20.14849554580087
As 10.665536792039978 16.040298181750607 17.127918743759516
As 21.411512188784016 18.897062088381976 21.514424199066823
As 19.234472504374505 23.376846921656824 19.43593640990124
As 10.65734940639898 17.32556135173142 14.953678411972172
As 13.934887490799674 17.4758290931074 21.220124171090653
As 20.99866561015115 15.806571838016831 23.448624472047715
As 0.3480308984360439 17.61401359901316 20.506779847508852
As 14.869809143293109 11.56876267854137 16.797031746687956
As 12.89493135680387 16.51686213185187 14.269327793478524
As 23.160560302202263 18.955393756707622 23.267979016474715
As 18.036102848827305 19.011169468919864 15.155897071705061
As 13.874475984539401 13.410323197302086 19.068545658609782
As 1.9197668652107758 22.47525105992627 16.426908472800122
As 19.51250809858662 21.60395987201082 23.80069820351704
As 17.973188591911004 13.393215029072188 17.418018864111605
As 18.158436020661792 16.003832190887643 12.662693564864295
As 14.589033141279314 17.492842095664958 15.868593029740161
