47
Energy = -211.22608471 eV
As 13.530114525720524 13.889613140549006 7.4561175169904015
As 14.560004741821393 11.673478358838521 7.941563285423049
As 9.156072988372003 10.695893532840355 8.714869596094578
As 11.340237567300262 9.638145605274229 8.58577259903226
As 10.707265599570995 7.306370896631573 9.234152788481522
As 11.120215298640323 13.812141096789324 6.80178900105898
As 9.546467424983724 13.197153088716977 8.634628807778391
As 16.798468026614316 12.494109262501707 8.793560861637985
As 16.415944641993104 10.346634786422756 10.078807102858011
As 12.900693343298249 7.284985725901256 10.457619516873864
As 13.092984757030033 15.040690811271135 9.57323728086723
As 10.79949305731501 14.497857835476893 10.315809303079947
As 8.99862987875169 7.5038975881602035 11.059562901058493
As 7.707422489907176 9.54298340610522 10.495808193140519
As 11.129375833229961 15.911662154567479 8.255197717060202
As 12.362377914321284 9.725368628854167 10.849339825121916
As 16.115436275852428 13.782359465472252 10.884140604920546
As 14.17157755740822 11.375717770430146 10.401501427281042
As 14.684543170839195 16.73702276863025 14.598563761574379
As 16.82741877930642 16.130860657697365 10.924501855731977
As 8.15503772885672 12.728219877335826 11.978802429133065
As 14.899531992469381 13.364538033996544 14.008846902247729
As 10.537333086504761 11.960889014916173 12.356841184229745
As 6.9397923546366025 10.708162471366215 12.62527466917417
As 13.518680302752108 18.736841310282244 14.67621334205869
As 12.414825347171577 7.0124993230874795 12.825261674228685
As 17.272609346274255 16.302657909612567 13.202682894253394
As 17.348312152292888 10.684570189064834 12.426367572190605
As 18.1280258146045 13.01280362334162 12.066986152503448
As 9.735757285975772 15.326270703920102 13.662185578343722
As 10.147414933272403 7.790586038724051 13.22231317017487
As 7.619208196955195 14.079124203780234 13.967075359337404
As 11.366770724342205 13.522950474680385 14.124036543693425
As 10.49526667124102 10.138515633956096 14.08021788963938
As 17.347325521035675 13.991325836737063 14.198221803550885
As 15.084813386856487 10.965139520802255 13.426672716722978
As 13.889734634382654 17.631797860688366 16.815326835394092
As 9.931881445669578 16.565416802178856 15.80231060763595
As 15.541782249469362 9.804898565422846 15.57353008760254
As 8.144669109463935 10.183775291508772 14.766429991904298
As 13.851705131549373 10.892440059533568 17.02000673255152
As 12.263315504343455 15.810662333412518 16.12370903387371
As 10.449868437421665 12.643857932860506 16.26353559744688
As 14.632894965138266 13.189634043853928 16.478956124281677
As 8.016478727326225 12.465894812612559 15.845636077282359
As 16.250296582475908 11.469593400297299 17.262184115342688
As 10.427322363580522 14.805386019236067 17.519228837476597
