46
Energy = -204.70844872 eV
As 14.720254390538248 7.8180444915245335 9.725573327085868
As 14.416736313815127 8.635828561755698 13.936108828695923
As 12.04501105872837 6.052955714507888 12.284356441411441
As 13.839993734967667 5.570265701037117 9.123558112109787
As 13.434330670950384 5.5094784291579835 6.63196141642962
As 13.079205438815247 10.63453120123477 14.644897248252208
As 12.161339665717858 8.329962274343236 14.919907339561222
As 14.658335022892457 11.11609734496388 10.229251007090397
As 12.899471481278994 9.512877656676155 9.239346149427512
As 13.306982385361131 8.133249044270341 11.774921377848651
As 9.540695335384813 14.804316008756322 13.938554049299132
As 10.921229880313831 14.478760865135158 15.98751116163961
As 8.89316387717045 8.746353125401859 14.602540959202884
As 10.670019712686422 8.215934101600624 12.811409195193564
As 13.957337091639811 13.129225336561639 11.485648326154887
As 11.29244155506409 11.13525931014857 12.922175223081002
As 11.485089743310155 5.3577036458919025 9.933126327396867
As 13.372097045449959 10.64047354936017 7.049072974613386
As 14.030324944337302 13.208659400892282 8.995611657059415
As 11.07007377194419 7.269535642054614 4.734410647053452
As 10.96472844168539 5.528812127676645 6.549067607645067
As 9.85175637984496 11.067932471361193 15.053860398427558
As 13.587246751869783 7.421790215552892 4.899706735169287
As 12.676139294654098 14.643599910529298 14.249101130337865
As 7.425230267457615 11.706268575563278 14.641278316572176
As 11.829380775442601 12.247666208224185 8.251550013193313
As 7.350606010707626 15.677814703325964 10.446370347556783
As 8.642011873872313 11.164385337714993 11.395459944326367
As 7.286264317751619 9.790900543565797 12.995125596963764
As 11.007539178200398 14.196799047220972 6.881303007984101
As 8.151789431239365 6.81655340234487 8.315956506950672
As 11.5338039587439 13.527163906710715 12.24994397354909
As 9.296727689317956 9.196589813326995 10.022053881486281
As 7.492992713077977 7.582083339234474 10.666807637701988
As 11.165538545829342 16.567595786938593 14.693261006164773
As 10.365666678998243 15.071447111547371 9.151706595061029
As 10.699211951604816 7.173884450019829 8.399283666043951
As 7.502620142047697 13.487307804519325 12.897729179172684
As 5.869312449120629 9.09547222786581 9.467314912385243
As 6.521425317849389 11.498743968196111 10.113700066852317
As 12.209865736938543 9.415507211798259 5.2004064584199226
As 5.269881857035204 12.866984521765104 11.854570709929922
As 7.852541849578652 9.28332181545728 7.917302553750911
As 8.300816579729851 16.03766188312319 8.133580985261272
As 8.826756580389839 13.60098813497722 7.968563273643838
As 5.692318307620717 14.199520277140572 9.781359927819182
