46
Energy = -205.5884287 eV
As 9.74348897725638 9.233585284686763 13.799651395500064
As 10.048462765926525 13.577230861579372 10.89894628115686
As 12.831181201364517 16.384029124648343 11.174049575695015
As 12.907051670402442 9.538990448058758 15.864561895011384
As 8.60783645046818 8.381006253487126 10.318429696085339
As 15.504568056037735 13.860050704993466 9.093931770089208
As 6.770537049386794 13.357758999093699 8.971203922453274
As 8.766563395029753 7.893973579739417 6.270480956795971
As 12.405228474694013 10.52207166984376 12.101405612270284
As 6.918638918776917 7.223783380243809 11.778557616092066
As 11.702649647940481 7.824710514433049 14.4748843678382
As 11.363193757286439 9.126886774102177 8.331437951568855
As 11.990112672508902 15.555560021956257 8.993171364000242
As 9.35864347799837 5.05138717583318 12.231582215048023
As 13.671322737921022 14.34244472474355 5.945884187583778
As 15.988735351328774 11.54933361025087 10.20268207608748
As 13.139691450001028 13.23262971467832 9.504632620618118
As 8.41650216010439 11.51121364206119 8.70989235514291
As 8.265496309957694 7.133232812377866 13.896627625862237
As 10.211932365626904 9.975030938710937 6.230295309811894
As 14.133279207183481 10.47231132181661 13.885275657716411
As 10.789530004844691 11.989749259378938 14.357957076613552
As 12.328052523767003 12.67078257599709 7.045767795641733
As 13.83251164874387 16.075433206981405 7.55012656127624
As 14.162780464625339 11.197393646328326 6.340005593272215
As 13.498037116003367 14.103517556505691 11.956355513398986
As 11.084197737133637 11.098370959898158 16.635801522865307
As 9.563282954737877 6.0653468569564355 9.942775368303323
As 8.695273722644082 13.154017605506814 14.606073537883656
As 7.487790280051449 11.297979312659784 15.89975168708644
As 6.504536365116424 10.324379680779936 7.639297222817762
As 7.217979625943365 7.98710369450185 8.241053001494684
As 16.168166959094428 11.943843676201956 7.72846690230163
As 11.93748568249514 8.346633152017157 5.280081433383823
As 6.059563129118425 8.377189361786334 13.831439865535286
As 7.700191146284474 14.359652187032175 11.1257170092054
As 13.559824752552155 8.916929577117495 7.159438024975941
As 13.692365881793606 10.708429719180405 9.962908797444516
As 11.369217054685565 6.035162136166015 11.609386184620016
As 6.3535993141320075 10.762295900310706 13.838587952359267
As 10.91494626216877 6.917326466658862 7.114337319259019
As 8.370207492023715 12.237435108673267 12.253259412225688
As 9.21134662502649 9.473426720379887 16.231587771024323
As 13.390451053552301 8.339548915234875 12.67262862219664
As 11.2780266844666 14.990345775641442 12.568080103555454
As 6.3345772466074 11.129543215579417 9.980589093643436
