45
Energy = -201.40465439 eV
As 11.736787777454916 5.92839928693872 9.793744219599615
As 13.803263181236927 7.123031444170645 9.242379538096719
As 13.225045467775114 14.58272954614625 8.322984629217585
As 14.000885046470625 16.7296872204459 9.152872475377992
As 15.221949162422137 13.174943833151028 8.226238465899606
As 16.384307057175626 16.34916238760774 9.831891721838446
As 16.540967984816852 13.914357577096675 10.225752744890189
As 8.708024811735667 8.110145682383477 9.153651268512437
As 9.549761365606708 14.580149167012925 11.072960559515787
As 11.069958180823251 7.1510971584227 11.99615658335592
As 11.364278873427661 8.182342009892652 8.897416229928627
As 15.650558868949489 9.939691677262704 10.358353623875399
As 8.824008614789745 9.728386053889889 10.907526573520423
As 13.403038406920555 16.230191840394 11.604468772812206
As 8.584831652693595 7.333279513247524 11.497467316346297
As 9.622058208384962 16.924180350832483 12.015071415164998
As 11.81279951206234 18.135231166428323 12.096510305815483
As 10.726099000899636 12.7263398087111 12.284123795577472
As 11.532886167349748 9.461034694621532 11.179370184234822
As 15.532457335028383 17.519216487763444 11.896001631347795
As 14.69137388476267 13.072961255474661 11.689961126729438
As 13.908875879856737 11.612730768055654 9.723424383135765
As 16.457855573646608 11.376357419764405 12.328717341737926
As 14.033395883545305 8.308399163018098 11.333135958661268
As 16.28332693708951 16.72449508854643 14.155029010076577
As 11.805283339771957 14.350685661757625 13.842211892065109
As 8.334099099573638 13.299282641987075 12.805159239802036
As 8.82421357965647 16.93598853239502 14.348752491778994
As 11.892223983149359 10.280976796113508 15.819809835589835
As 10.029951381150997 9.66671717692547 14.312700090989527
As 16.151921908771694 14.191011623330857 14.046505656601022
As 12.421118066198165 18.565598115053724 14.508371109929985
As 13.375507508191466 9.943699375712276 13.832691540412014
As 15.802941141094772 10.178483984260398 14.403087789250133
As 13.824113616286704 16.488218979344204 14.560759694266919
As 13.952703039097276 13.486956672500707 15.155717967122403
As 10.594623509593694 17.646286859190344 15.922363910689505
As 8.333108156702622 14.577679138420434 14.970474896429279
As 15.62076483664001 11.704259692106623 16.379140901444906
As 10.690173044965979 7.363792906724955 14.554177055647958
As 10.499594052063978 13.677163217799611 15.79847593521403
As 13.825158565225063 15.412454340125096 16.80594942301353
As 16.987072118194398 13.635443412219448 16.28874679533878
As 12.956365046226628 8.041284354838465 15.386517007307427
As 11.323129399113489 15.548336144508175 17.18603711843044
