45
Energy = -199.43689606 eV
As 12.804165067061373 12.323900791607384 17.05518585095292
As 13.858690917368996 15.34633508072983 15.890970217088675
As 16.526365896821876 9.540586144629177 11.017849661771288
As 14.531439041152014 8.762047061546179 9.755990803047823
As 10.507634864592099 14.262666679985431 15.235966288173037
As 12.677915021536847 7.580456562891767 11.038824868902664
As 7.8015680539256795 13.982641976029845 10.1721057588691
As 9.067279817102355 11.004439736865214 16.528206932084476
As 17.381124755586622 13.24712349558258 12.22501447452047
As 13.878191421300363 10.009445505940054 16.875211568517678
As 7.029617041660491 11.808010755932072 12.615701396085598
As 14.663215158845027 13.65827077559228 7.290450600536012
As 11.372665323169509 11.754374362891745 6.197359733943487
As 14.244119939312828 17.465068048197033 12.703269768825244
As 10.843676261636416 16.647927763601174 11.105150415033712
As 8.785203305234578 8.515157090345756 11.451178803933287
As 15.59865064097935 15.935861992196758 14.137539090262312
As 15.57771864874106 9.133069989984056 13.298010015231261
As 9.936220790988555 14.260334793699847 11.281165646818604
As 10.783275467270792 7.385150176109031 14.818961193197882
As 13.712009841404223 11.457136360442467 6.530724318361838
As 10.834140836305892 9.046336556322865 10.115980320057234
As 17.247099491316714 11.87750272542264 10.188743354499408
As 14.881953755714951 11.02837243509602 14.854477885609905
As 12.557374862564501 14.986662819502552 7.466267511279445
As 12.822031776081976 16.454303824447223 9.552593843069324
As 9.391041902383632 9.182451458472167 13.738349728519026
As 15.008160074633185 12.883194968558081 9.720323522224952
As 10.368859054561767 13.02753971393546 17.445985504196013
As 12.932939335497485 7.872201393408331 13.559982116826141
As 11.712634359426579 16.535603309917196 15.302477402687506
As 11.477113051648828 9.181491364370874 16.49882024172956
As 14.953564606494187 16.02885926068085 10.752766572872202
As 7.79484449362896 14.166401250968281 12.639980201462905
As 7.352649892294471 10.324477053440502 14.615543054923654
As 12.348530059838579 15.898448269863474 12.952746532512476
As 10.726916085428527 13.343760284925816 7.874036250751089
As 8.274244407347084 11.06356831786572 10.590475675797485
As 12.8400928166542 13.35869168490922 14.740508666583247
As 13.560457179211145 11.002488499503691 9.014505241692142
As 10.658128023245656 11.164651136744055 11.394509884283291
As 10.87482817665768 10.91008149024846 14.838168635287253
As 15.082377066292727 14.088616028403008 12.414466531898158
As 11.904151958308097 12.787823261412878 10.022755274549784
As 13.366221654899048 10.257570183909165 13.03180083665669
