49
Energy = -218.88922374 eV
As 13.818364382956387 12.172138304439839 7.654088948909247
As 15.753227576952069 11.00033486320197 6.707417613077205
As 14.557125078401562 8.81175046657402 9.258170584107582
As 12.329580592958306 12.66964439645819 5.772490102912133
As 11.582693570165334 9.369409880178372 7.494693368326377
As 12.337847783703973 10.909930024398049 9.261367191338762
As 16.759954230356666 9.50443776737998 8.332363185443667
As 10.39348967275662 11.339904017555348 6.419552938647525
As 13.818314319163099 13.568622536589155 11.223454916623995
As 15.235643854227087 13.658688344872921 9.22538158738214
As 14.902301509968535 10.054465947683516 11.464135619018244
As 9.647431229171746 9.382606953907853 9.120650494697559
As 15.007017412616193 7.554572694926986 11.337652548487558
As 10.025052427277942 11.874397254754475 8.87845480085045
As 9.627882967221156 18.964704776753717 11.745451385153304
As 14.444578532908393 15.850529328770516 10.35923595304792
As 16.867634425656036 11.117376869617349 10.339493585189775
As 8.783516798763547 16.666793997594112 11.32116430109766
As 12.546501774242458 6.933101349599567 11.654147220949964
As 11.93966153759996 10.134606820872243 12.781730160963102
As 10.633703190760125 8.562880148091937 11.37760800907756
As 8.01854350497021 11.89348465382485 12.716093085301576
As 9.839952139580118 18.62359168529517 14.190295815395292
As 7.711779764687429 18.078451915117256 13.043006090155487
As 10.480477460413065 15.261378713135393 12.415711912573897
As 11.145091789371325 16.55390586710986 14.435699014760578
As 17.629777241351373 14.23066235497954 10.987396629183548
As 15.884466222085774 13.512677247826481 12.617650895531806
As 18.5232878770347 10.981905794939427 12.284401160958803
As 16.564554801229374 16.460406889924865 11.58879861001824
As 19.455269109448693 13.347174699008605 12.412947176467013
As 7.602625996970114 15.203673266243248 15.286172782521566
As 16.752143557035957 11.595701065598288 13.934720694810924
As 8.666089855004415 8.703090881640653 13.917888992776787
As 12.542630471748517 7.989901590445166 13.945401066272723
As 6.449072679746529 11.53858679406021 14.609690379212365
As 10.067849915470498 10.716100493945417 14.322957171591508
As 9.86073776132338 15.53648321632811 16.327165161480092
As 8.99918232183834 13.81428944547102 13.794144471719054
As 10.421609238810479 7.465367539618942 15.251902007348335
As 18.575706938115516 13.171979758070632 14.776338705579587
As 6.954135109406015 13.110961758100615 16.513078980063753
As 7.221401327515632 9.458138786233592 15.808793589815705
As 15.682116629856672 15.644512540758662 13.879059314720664
As 10.639055380701711 13.131866755331616 15.612275131852241
As 8.958737014707907 10.00698625065732 17.564109278152483
As 11.103587521497817 9.544983007292785 16.4233600772349
As 9.157952238523047 12.499823358562663 17.49757463475211
As 17.425588837608455 15.16796250013949 15.459608228328554
