46
Energy = -205.41641966 eV
As 15.489263561097403 9.531447763157688 11.838495696560706
As 16.03416418227067 10.188121913377229 9.454130476441906
As 12.998639513315934 14.088048299383491 10.23350742622003
As 15.093574565041484 14.766973688597599 9.088742149560712
As 14.936756783621115 13.092089430508565 7.212492115426345
As 12.832732278104043 7.72157538372536 14.03029033176855
As 13.457550419333726 10.931140070840991 11.909166541523417
As 13.624094566570795 5.819579914980891 10.776993948215942
As 15.418572349309722 8.10121487622251 8.21287250395403
As 14.02097828755796 9.434559947910639 6.622392363544974
As 13.283469691294496 15.897838318878344 11.966007071393769
As 12.989180502605555 14.551897240849822 14.033194971223208
As 12.846439860449646 10.440282315482644 14.195137040906118
As 13.932842765909522 11.20161035799846 8.46673205673059
As 8.903833376649906 6.575991954519094 13.683241624603163
As 12.876613868551354 15.747194168398053 8.398665218127613
As 12.736196843034067 14.109485953259881 6.4942751390256985
As 13.237472095595988 8.353631426092262 11.599551807993338
As 10.789708543722012 12.600300919827344 7.110511732820227
As 12.073173852251012 6.014929162272331 8.828065955688611
As 12.297440267229263 5.331399130911913 12.714665690325116
As 11.087536425648127 13.495417952653591 12.817827267416455
As 10.463789307909437 8.299572340595171 14.67785955665994
As 9.314790966572417 14.591756478451178 7.0299110760679495
As 10.025479778188062 13.669246451042023 9.229563844597417
As 9.902164104893709 12.387919851636601 14.743167380753698
As 11.127456527649695 15.951488246974765 13.23147495249839
As 12.988339276791304 8.353687715749206 8.62745123061412
As 10.497443971014565 10.413836650739125 13.2750753965589
As 10.021217303982855 5.4323772511459145 11.752942740664938
As 10.376599169536123 7.3224435689562695 10.141462907355619
As 7.5340494627375705 14.155111767425938 11.908079339799492
As 7.25994067425437 11.13126230859813 12.352259441465076
As 7.743981800100666 8.966065124768175 7.435829595334026
As 8.462131057290984 6.83413246391475 8.583118109967662
As 7.882714912991377 8.091501339461487 11.98655721217957
As 7.510022253219076 12.921535243482875 14.070533394927269
As 6.03568683013175 9.453335847029136 10.28199745974941
As 5.460835025149386 8.18070311828726 7.226294507069827
As 5.749135743827965 9.137715392576764 12.792480932640636
As 7.649166835437532 13.46165792538539 8.502091753358753
As 6.932656009788912 6.292087660642611 10.417749467426702
As 5.546506596761191 12.708804574416463 11.533328528989719
As 6.683696794962024 11.35300791612166 7.579144660381088
As 4.8640346483889045 7.422247801000787 9.514366845765055
As 4.926440616836394 11.500424700832411 9.340987779313846
