48
Energy = -213.97851236 eV
As 11.536745482504138 14.478237177594556 4.954204269494826
As 9.101716651607182 12.042954408758508 6.751544871508518
As 11.583477935396221 12.631882465474039 6.486301946615194
As 10.305042560066575 16.257282261823587 5.835199944171102
As 16.13453490694295 12.55376120302401 9.342189395004471
As 11.72865182235567 9.191096342286697 8.297722121675124
As 9.583138558138366 15.94230111725775 8.016942736686685
As 10.205324490842965 13.644932576914535 8.317987910505806
As 12.863610205621795 11.189426574453817 9.361997124024354
As 15.162022967609005 10.350716910541049 10.047037288457657
As 14.242223702918274 14.191137190950991 9.56507297536356
As 9.349328289056679 9.948082446055473 8.011163511474939
As 17.22089890652538 13.535079629073653 11.390958890395043
As 16.176549950213595 15.597288941788227 10.360063223305861
As 13.518797326193926 13.577910282474754 11.862952710901812
As 10.583406231877401 7.8359273636812405 10.08484586725868
As 12.796271420725986 15.943216608857673 12.278924275001062
As 9.702833966621846 13.00830740960762 10.65253260086441
As 9.403981088184652 10.477794710924586 10.503122881219312
As 11.696749925383493 11.67793539296061 11.519578741763587
As 15.788002783383932 10.475849276545205 12.454169248724803
As 7.421303706457073 10.125328117030241 12.028193858119685
As 15.598849083722627 12.844928682804548 13.097806102269727
As 15.053354753338317 17.10197247867619 11.991306753448457
As 13.538249199930172 9.816295845842744 13.501170305032318
As 12.231813943816064 7.553837501551112 11.718023351627258
As 13.64331963559098 7.977471261932598 15.068565726067932
As 8.217847895159892 7.8061459653544025 12.390941237008537
As 10.580774403147855 8.293000379770998 13.356772997989001
As 16.763703688013994 17.365309328449197 13.80519371301286
As 17.781534075348365 15.392003745018688 14.939770170362664
As 7.627655302450151 7.542830099393296 14.83645327955122
As 11.82805548895705 15.971199293770987 14.613338848382131
As 9.166058482777133 10.875309979068403 13.76546956156714
As 11.315322900758224 13.53929884664936 14.339537413874119
As 14.15008589049491 15.338432826863771 15.305182441942756
As 10.040839881885887 6.974756934705449 15.395508930476721
As 13.828289179231348 10.21076756010817 16.001517729141565
As 14.809299373737058 17.748061812680533 15.232978014926092
As 7.954843527460483 9.895486102077962 15.72078408138531
As 16.766414634252715 14.298266369352813 16.927837357775303
As 11.372419120852502 10.582734958421648 15.635497392930839
As 18.07306326752481 16.438371754108942 17.14885974963854
As 8.883235250465809 13.23892032194253 14.747104065950285
As 10.534045266976877 12.81038157771537 16.58061498202133
As 9.980589502756294 8.966808220204763 16.943692600763523
As 14.711358163620854 15.490574468327107 17.760667554733175
As 15.887949611959437 17.69396967998635 17.49628364844083
