47
Energy = -208.82581158 eV
As 13.771072862447618 13.028494333765591 5.549878703245466
As 12.11957313773656 11.521898082837334 6.791178501564559
As 15.727946070518565 11.882473863009126 5.120819579745107
As 15.557081469761275 10.835622833609973 7.371814907862844
As 11.5390780473395 14.466053153364387 9.155578749780885
As 13.55132830553068 9.502674622229302 6.864442868656823
As 9.25833080485825 13.948001461647504 10.138106850230727
As 9.347788231540278 11.50744315225049 9.459071659929698
As 12.495498095881189 12.132536837861261 9.16890693236237
As 12.640900793770989 14.822101290841912 11.406731454691103
As 16.89851945107874 9.581037282457624 9.152245440668644
As 14.903595878759324 12.730953215539976 8.85285820559734
As 13.09505956853264 8.42307244818799 9.054222348651763
As 7.55827828727283 10.126993292917005 10.6600795598225
As 9.287026790142608 14.42014068275459 12.710504554815822
As 14.226270305710113 16.691277019480903 10.852178577295474
As 13.89910015002025 9.484148411195866 11.11962369459624
As 15.956107494663781 14.963945028582081 11.30612158047193
As 15.743636456480335 11.158624780191248 10.69132822134564
As 15.321702382727885 7.7577927753170295 9.892183609416492
As 9.411320646656598 8.516803147930194 11.329188675638095
As 10.800931359917692 16.334307449136656 12.042598275152043
As 8.569303520958607 15.404770546395827 15.869531126081423
As 14.224890585530948 17.985696525714864 13.005720485665124
As 15.659148639094614 14.268644518828852 13.693161707975312
As 8.848846793874985 8.863798226719434 13.797251246122935
As 10.603602633622058 10.776021837535378 11.475193526994214
As 11.832720073702953 18.013262817277383 13.668391699328696
As 10.740070686065943 12.783672603657289 13.996780357275501
As 13.539319808536408 9.206853442611601 17.03492433542289
As 12.05203429137115 7.564022400180758 15.84352024688492
As 11.206331559958487 9.459052701279782 14.43072698004047
As 8.466887068215275 11.15841491796173 12.7768993682349
As 18.19036517816015 14.33969871397813 13.606676993629184
As 18.231958324241862 15.759074304582233 11.78980853074722
As 15.656872413563072 16.62324246247078 14.5389210522791
As 8.92940221433352 13.004890842127546 15.772444313637646
As 12.343831295025993 14.540679867578287 14.549784172690629
As 12.21438481495003 17.697940324679454 16.140366054441408
As 10.881988924066512 15.617053687767578 16.28513235406224
As 10.695138364866919 7.870978383376515 17.97400666868359
As 10.199514706445694 12.472789494922377 17.865334570294273
As 12.804808320563055 8.11138914081964 19.0992489007874
As 11.175452819058084 10.210049333504484 16.877490264817595
As 14.319844493970306 16.368864570210516 16.646191881663732
As 11.879237761274533 14.269430584558412 18.170953197716468
As 13.742206955062361 13.911621424012838 16.52018585084061
