45
Energy = -202.07623865 eV
As 15.559903522024515 11.455705695775823 8.103299188647041
As 12.946598241419007 15.415977826354354 8.104937178736737
As 15.384792927199467 14.868947541412181 8.066689297243803
As 13.058247979607385 11.173432585125814 7.9346454816841945
As 11.812422188338665 13.298100650188058 7.401521945752435
As 16.383860733845562 16.729502341658854 9.371255382518491
As 15.150274764370486 9.474781352793691 9.571487141855199
As 13.243635785103288 10.877323345589891 10.401865722285049
As 14.671894156570064 16.855600886927974 10.89793841340806
As 9.856668967807035 11.204798824254697 11.28717510092975
As 8.90581068941862 14.074811470072948 11.64539147267972
As 11.082020751708287 14.469655524340164 9.491680219007382
As 18.010612955428716 13.305626766089887 10.128560910212661
As 15.518741356816472 13.187451011333842 9.910665548265607
As 16.74690008910058 9.734541576672289 11.494346625315199
As 11.36665568337411 9.291400995026214 10.618045012803876
As 18.727907563458878 10.966389222478519 10.592703277713909
As 7.8593143178672085 14.865686591236935 13.72633226437508
As 11.279501476720657 13.250675572366271 11.697108777262882
As 15.840897889400344 17.94203683410914 12.841514776472758
As 6.004649888715163 12.897794497355518 12.731431971112626
As 13.739460598896244 17.16582914952087 13.925538948608299
As 15.493396306178626 15.524332272964733 13.259201330622654
As 14.294950236410102 8.979343992135194 14.074779194247693
As 7.6383332508922 12.983660346363608 15.368155297527872
As 16.06525295834986 11.720970845032767 12.866075168417733
As 16.41110205969975 10.136458581092375 14.782424680814112
As 11.790631996918249 14.713170099909407 15.134947682820451
As 18.40626392241868 12.593981583154594 12.477830536488979
As 9.509616290451335 15.722552307710671 15.660439045295075
As 10.791593023063806 9.637565732991828 13.014906170770745
As 5.19089088090332 12.519687173865501 15.017130167013883
As 14.599318502307277 17.121231474062846 16.30648070294588
As 12.714857211798028 10.928536521112326 13.988806759792155
As 12.666131329261269 9.323621697295154 15.891835218018167
As 6.81109200016638 10.995172794495549 13.937588165451167
As 15.903917297588926 11.562439689776078 16.761132176573547
As 12.576894724260168 15.902190811016498 17.209462074934237
As 14.57006638474614 13.442024091798952 15.833625887267011
As 16.23268214884316 15.293679826010422 15.718044545367398
As 10.9440085759117 12.645958140477022 16.281363217734945
As 9.091785780217629 14.006700208414006 17.327773393998942
As 13.921069054623866 10.418430308598392 17.74074607758413
As 14.010025743276861 14.09825321361736 18.13532004773632
As 12.29113166895722 12.299751901855744 18.34358167612146
