40
Energy = -179.08507977 eV
As 14.67187203850856 10.27319085629344 7.103842001457643
As 12.56536845808319 9.069153533821895 7.628316733436862
As 13.421249699784301 12.268998847837011 8.059305613582143
As 10.707963596669666 13.876619753413065 9.865617139178463
As 9.922234081031132 11.644274033969221 8.836109498109463
As 14.445316638165803 14.494918415178168 7.961914129842489
As 13.160594175217161 7.358019443598219 9.28465247047898
As 9.624396525564814 16.231275320176273 10.312921604777578
As 8.47379639641097 10.601348270215814 10.605497826527428
As 16.05953822528499 9.909759961962802 9.16725629966628
As 11.841431365841657 10.319218109071105 9.720940357801247
As 14.925879646628484 8.201685176833232 10.49321615963641
As 10.055060073771246 8.64260418505715 10.338528128454856
As 14.998836725336766 11.95199227859141 10.158324073309466
As 8.8821577649476 15.85163565563119 12.492858214151111
As 11.17206836878601 12.916937382421471 12.109065986215715
As 13.14218023042109 14.619479142545467 10.10421071551964
As 16.4930829254204 13.837015589973527 9.54878268219698
As 17.875202593412023 12.551802424162043 11.855676694897102
As 12.074098868516709 16.859850205631787 10.54541727769773
As 8.788992032487133 12.260215298477283 12.482118121768911
As 16.344753613228086 14.430641919657404 12.02622695756017
As 12.74128404988872 16.213697478297817 12.837922198380294
As 11.74382828984412 10.818536828317344 14.4486896130895
As 10.810073334515238 14.86973317953639 13.620010560780871
As 10.615078133903877 7.477313818747944 12.494601842510649
As 15.68787458688217 12.102818076005414 12.668879199194858
As 12.450851792009967 8.526903754829164 13.742753113172748
As 9.272025280680936 10.599052605784886 14.367726440349447
As 12.319795435549338 10.00382092794669 16.77749765998294
As 12.110729068183364 18.13424515969786 14.320061216510522
As 10.419586260281674 10.790059881491967 18.046239908880164
As 8.6202546524741 8.333023712601612 13.632799952675105
As 14.775532291994763 16.413973869510826 16.125695352338337
As 11.74687945319679 7.6822957444667885 15.999435505395548
As 12.299890404711187 16.67002853339185 16.36494645489226
As 9.245050244596287 7.737209701123676 15.982179430279535
As 8.565529344118074 9.977805432978887 16.908787606888303
As 14.493274787143054 18.63366699096432 15.010261265784422
As 13.894669211403272 18.30345916468278 17.40899465752287
