42
Energy = -188.27825092 eV
As 13.081499032617705 11.6310752036376 7.7739529701912415
As 11.618328652337105 9.598114204973887 7.613125134070972
As 11.565061810129945 13.520972344085527 8.37498138563693
As 9.621628499579595 12.403362108024076 9.449488059443848
As 9.449667712909491 10.127236037403096 8.555735678419284
As 13.55014663888167 10.808050952098654 10.114612414576746
As 12.9993123293895 8.44375985261506 9.446960341322317
As 8.107707896426318 16.806158390677357 9.867904351602382
As 15.89924636653366 10.148943322490604 9.484040948456082
As 9.823203365060063 18.619282907097514 9.94965131206711
As 16.048969500560183 8.259601984218218 11.165169046552172
As 12.23713253894459 14.050577854025901 10.782801880598512
As 13.29075973333158 16.268420945122873 10.879458673120798
As 10.636641614002844 11.525079217286233 11.660709925756313
As 9.952467064391604 15.326325740374315 11.066337436765993
As 9.589479628912652 9.27169313837365 11.38128654245661
As 11.392115154696704 7.580959845440917 11.15555027449535
As 11.098992856536784 17.41091661053987 11.760902192803792
As 8.164743099277697 18.308033886726836 11.691281192166459
As 17.748608809670575 9.695359881310887 12.409954346695416
As 14.331582970385426 9.35902438135449 12.628901120021533
As 17.3314733142371 11.681409349745872 10.944233456751403
As 12.35099973404044 11.244057606563858 14.430634433130038
As 13.994579018788052 16.184751738653055 13.269090714475817
As 16.16245414479887 15.026096507506443 12.778838491097599
As 8.329158835452217 12.177429634274679 12.360068954635327
As 12.771780087606711 14.149823014309494 14.118147592808773
As 8.686394834487347 14.553312006533398 13.090855887931385
As 15.321841940255153 12.829258194288279 11.838824296327646
As 16.1234769225981 9.800331549358528 14.315271297203015
As 9.2852841737927 8.885830341083885 13.90431047901877
As 12.753116235532948 7.545658804065242 13.3158203136789
As 8.202073365164742 11.048964358519008 14.582927768485234
As 10.390892996451674 14.625713345138815 14.921859861312543
As 15.228286730264278 12.110074755372692 14.218666906656475
As 15.671296783322136 14.782420674944017 16.790969836503095
As 11.507834998037751 8.93089331807076 15.03332122917979
As 16.882291393203996 13.85011359644521 14.909295671331904
As 13.293473751186964 14.428806565005328 16.53719530376646
As 10.241238029141192 12.144267141010097 15.492788696099472
As 13.09871215547395 11.810403350336845 16.839080958524633
As 10.836816202591717 11.698206261899331 17.765763544863447
