40
Energy = -179.18655601 eV
As 13.089443304467599 12.639179307017105 6.243772412865503
As 11.802761573895966 10.74602130396738 7.116234829663515
As 9.816446363515729 14.264324082000934 8.10716353978774
As 13.290635734178235 9.833277136971848 8.850954715739038
As 11.690597341393879 14.723866756386414 6.526557405511911
As 10.364387714570075 11.884397309327063 8.807362411144858
As 14.58805453771321 13.377176584790824 8.09422485596704
As 14.235863688683379 11.754202277994583 9.884297280888303
As 11.780223139859347 12.277196247965822 10.808439743553855
As 11.311985839772094 14.838064134429912 9.995854988799332
As 13.17965006335772 15.430665073731088 8.49704852224071
As 11.21208991129686 9.54382037370254 10.912482798827716
As 9.14311097726379 9.792924670131413 9.62597913478599
As 16.160570135774538 16.412458138528493 12.38783918896454
As 9.423314090869443 12.851118821881535 11.79024943445708
As 18.464794118371778 12.571857899203154 15.900984487265681
As 9.08166970430702 10.421028492924409 12.01991800393989
As 14.163853307645864 15.239948264351353 11.632602261958557
As 17.644247319830388 14.06619169456979 13.997361809663378
As 13.63528608238222 13.599169766570817 13.438192223823785
As 15.807068532967588 12.360679013780134 13.464146772883229
As 12.270675566318324 16.79786604646466 12.192019650612433
As 13.778614886626073 9.772019763587087 13.929636933634853
As 11.447886681477753 10.161380848559508 14.556037973350238
As 9.69604703886391 13.58532416200859 14.166230145091351
As 15.448261781466872 17.112297934931796 14.54778093556232
As 10.544775036917883 15.942146962211444 13.849236013969902
As 14.139237436264985 15.118321712538028 15.335012130907382
As 11.511422606302862 12.488064862631948 15.495453218908219
As 16.039373082789393 11.791562468641946 15.871309894914202
As 13.107568752058175 18.02225967210376 14.25026623609305
As 17.46859663936218 14.828969893192088 16.346565835691887
As 14.979447522986753 9.377310699293897 15.931365806923559
As 15.295219104434343 13.840762391134536 17.132940867137698
As 11.12994842920981 9.248283225962426 16.84634155795235
As 10.13764641455696 11.459130478802189 17.408754699424133
As 12.012247727502695 16.35851073732897 15.827034078317617
As 13.381985781346142 9.23585313312498 17.865417547952045
As 11.708800905949543 12.527516487076836 18.938547725956322
As 13.661296407760162 11.349956454490577 19.05348720917998
