40
Energy = -178.14206833 eV
As 10.974248975136971 13.967546732136825 7.658791222046667
As 12.376825385390118 16.99672871716619 9.89791704452489
As 11.972740974500892 12.15055868025466 8.999689324714392
As 14.676331108646325 14.423062671789628 7.4102218173407195
As 12.700630232696616 15.774009252242532 7.693999550735279
As 11.90127201091892 9.52083621719839 8.345706195226805
As 14.475115824291692 13.166883869585478 9.43379809489238
As 9.750455168549943 8.739163831876567 8.74138800599997
As 9.258940391026165 14.376855247182393 9.434122379988748
As 15.130554399025177 9.141856532292403 9.578427009625898
As 16.30411591959758 11.361597397282175 9.745118065528363
As 8.136773562700192 11.147438281983586 10.965992156176853
As 10.32791363395915 12.637658509699275 10.913076253329685
As 12.094081468465243 15.170691688442737 11.555979434206044
As 15.733992515915917 14.98909205262111 10.912123980631181
As 10.123624409726663 16.39259526687042 10.701398777336003
As 9.075247689920602 8.848596750880095 11.103878856152473
As 15.414991903492632 11.780606850471214 12.022299074060102
As 12.979166022079697 9.854936159946353 10.573195344261565
As 15.486517431436125 7.989485856034123 11.830078137982008
As 10.560685732635157 10.108081199240333 12.730834185961513
As 17.156730235935484 13.554051767649268 12.344334384006046
As 8.043631166813586 10.531338947817822 13.394100688067056
As 12.979888971757157 7.699320506381781 11.835209242280133
As 15.982843949921495 9.815566980699415 13.465705362418674
As 13.59951395316856 13.885687934611484 13.978279527874092
As 9.463170792527634 13.805271091734122 13.503255018631931
As 12.417175775684797 16.11960351656469 13.869388982331802
As 10.936230153899054 12.100692256679032 15.129476337254637
As 7.613038562797176 12.650183172243137 14.68397492408485
As 13.688488878141715 10.562330987850753 14.16740745316398
As 12.144535201591035 8.542509677466171 14.069500465253345
As 15.646022360411497 15.202701837252734 13.421241498066735
As 10.266701087662701 15.517350626254167 15.00409078090471
As 8.993545587688038 11.156282630851786 16.26247625771509
As 13.945297876546572 13.590981199511353 16.473271247644487
As 11.46756858943063 13.930336102953556 16.85805105659159
As 14.165108469968082 11.060784403037236 16.60260194947105
As 11.811893580636934 10.247651341605684 16.87801378313586
As 10.617269471212392 11.881952679545144 18.204465556288376
