46
Energy = -206.58886377 eV
As 9.06535062680573 11.539872627605181 3.018135975140179
As 8.771658634315681 7.616453950246359 5.050775278071011
As 11.892080112080563 8.826624840780921 4.058980479526334
As 11.149924278315584 12.486046833137394 3.962262059839783
As 6.198953849799339 10.704989716918192 5.208994128318399
As 10.860940965584774 6.648897212623841 4.759535087099056
As 5.319890238160511 8.851320470466874 6.648094812467577
As 6.559506348672488 5.421527538363357 5.181774460247342
As 10.134396664254089 10.42149263063473 4.961118469969653
As 13.081724460500364 8.59439799793009 6.275546044701743
As 8.169355622474406 3.5001463521933993 5.426184759938827
As 13.092171818106875 10.991083815131482 7.120695701431055
As 4.727745641089008 4.065078753490591 6.4384491956993894
As 7.53991241807559 9.894737999259451 7.106764671946547
As 8.224593581742923 13.729332904065462 6.784153745636754
As 6.387912410329251 12.075074632750349 7.288343987790218
As 11.198961633537174 7.847974938963819 7.760339195470322
As 11.602365194909472 5.40295114453443 7.830671536133585
As 9.002032941571471 13.635123560810737 4.386846008400019
As 9.237134407954512 4.481273342711863 7.514300762664291
As 5.574774068965655 8.056917423051623 10.037091721726737
As 6.5611080553730075 2.5247848510150988 7.11229044885994
As 10.756153218214187 10.999554660998813 7.9406001307339675
As 10.172679991924122 13.402221022695757 8.33079979008784
As 5.4800508003436805 3.3685413118569145 10.580676074412226
As 7.809943129622432 6.490533210969777 7.092198090753711
As 6.0484914466949 4.607440383796657 8.451046570143696
As 12.784285088039619 8.213072387133813 9.629344496162929
As 3.0837016045411274 8.066020733539222 9.70096522202349
As 6.8105733722197375 12.45403113594983 10.498802674037652
As 3.4999834334677136 9.886626216236701 8.048736087824985
As 7.888872672783208 2.7866257451615914 10.891360890842652
As 11.104856658704067 5.125574173774182 10.353368690715689
As 4.233706721108298 10.11576006243495 10.414386946665442
As 8.195558809015957 13.733917583255057 12.090446559866903
As 8.582180519869603 5.120250077438649 10.36029903489563
As 12.650960414325352 10.711437411480345 9.572814237323627
As 9.271099424817503 12.217509983319975 10.40170783614316
As 5.5864138123991784 7.499387122666861 12.473387078900714
As 8.988961083283185 8.521124855981089 10.772655342378659
As 5.766967454827951 4.947890443238186 12.56950970004701
As 11.181625980989331 7.431341282814736 11.380922838922414
As 7.152665536519031 11.579913921081857 12.794325129337343
As 8.206055144531783 4.50799904891931 12.742532665147651
As 8.043622733348643 7.6837041872169545 12.908881964725625
As 9.095008342784809 9.960330868348693 12.815794783821751
