47
Energy = -209.61530861 eV
As 14.587260785005316 9.128698393511222 8.11193742833218
As 10.361606702336255 12.823254583587243 8.369442585639616
As 14.025049324261758 11.341162062238244 9.145937717346966
As 13.058386580226832 8.196315373345353 9.913716001522117
As 8.184000024847592 11.517018922954573 8.773474930165493
As 16.256708579897456 12.36558883292954 9.282187451845678
As 9.93173544747825 15.14084188405433 7.604715287497334
As 8.777701241478415 16.376208466177427 9.449144946676748
As 9.435466362462353 9.76166303608693 9.982645519742057
As 12.170625148082346 15.816649698410354 8.470960352971833
As 16.836625473622803 8.607943374148995 9.00007799499963
As 13.715515429849509 10.184427293309701 11.35888333000539
As 15.664658195145877 13.683698818441682 11.320157394990533
As 17.65512349362668 10.647010066401933 10.41285627156073
As 12.144332398429762 14.435029367482164 12.233258257295288
As 6.9681692574980385 12.759039640559335 10.578115433259397
As 14.236115502057718 6.371650193342527 10.899572253399477
As 16.443300360809786 7.1883681159276325 11.024211687958237
As 13.931044258826118 15.512933528955072 10.908565098367903
As 11.033687796113064 17.43105207570538 9.917865892467045
As 10.7092233482062 12.875033901223194 10.81551844469052
As 8.747197468386206 14.431329993060427 10.99447147922694
As 8.02855042641157 9.380512726384016 11.937764666499579
As 10.911422178311081 16.549586123160353 12.367822219577494
As 8.281719336530918 11.819226541065074 12.541854879827053
As 16.06057941509458 9.602612028284582 11.962516199656548
As 14.53612424767092 12.623297153451158 13.362322952917511
As 14.761062691416944 16.556983658699437 13.12654419314804
As 9.520140556920413 13.92204084530871 14.39272175360543
As 13.143426008341274 13.117102250833547 16.020111480328694
As 18.337303541557418 12.186767613483054 13.089901778914738
As 9.92221920728565 8.148997503293291 13.140228346953029
As 17.603216111097783 14.450147524867887 12.705984998558113
As 12.581609626077109 17.128837713726373 14.21216596812104
As 7.923769458240003 15.338989346058455 13.190809772579005
As 7.126345184583649 13.190792176402915 14.33926701282495
As 11.746176359105267 9.529188477455778 14.11489439121676
As 16.3814815625967 11.108132469418576 14.092550746015295
As 15.7298332762281 14.626225301427144 14.390741617164522
As 12.342221313978746 15.599761077177153 16.236699434251964
As 9.90182562354558 10.93053557977626 14.968777089985734
As 10.05831301553216 14.804708443301717 16.662357383859437
As 14.002566904561146 10.304140810565798 16.884563465334033
As 10.009591768495618 8.521297647685362 15.595050200291245
As 14.34116693845866 12.374212441650789 18.110119577289172
As 10.973761723431611 12.31424518488227 16.942009285714235
As 12.448979652530838 10.82368104643896 18.591444132056196
