40
Energy = -177.34999674 eV
As 12.691615847044606 14.796970032553928 6.609914465933933
As 13.260421388457198 12.68088369848098 7.706347969755595
As 11.844471751380464 10.374753276435305 10.458443935105638
As 11.869941089187659 16.262209432460317 8.663457676832339
As 15.228775961824576 10.449847037944942 10.14033414216898
As 9.751093092876191 13.43350684026475 9.484667466263016
As 14.808338886244007 14.58778868683023 7.795341049160157
As 9.674759281171156 15.989186478148792 9.774583723336288
As 13.30204672376001 10.795483635641439 12.440222542504277
As 13.247663687212924 17.910939593270484 9.862103794067956
As 9.445862248588009 10.250352914858773 11.358349123324935
As 15.242772524865906 8.409292395243387 9.068605197073344
As 10.144549093392891 17.994642827490726 11.462455783844796
As 13.774172709331312 15.528037137544692 10.054650013418872
As 12.088050345406463 12.877293524103377 10.001272484772272
As 12.352187950202719 17.633866468574936 12.504803560171533
As 9.293930838073962 12.662241862878277 11.798123865529655
As 16.459934691667083 8.572136744548663 11.199355873266372
As 12.79917273539622 8.492318995783151 13.258949728079664
As 11.779641484953414 15.223886332564712 12.135170131175995
As 14.833702735153143 7.188742612376101 12.548007906930422
As 11.439366818379876 12.057984632137869 13.743334204017048
As 16.334648133792594 11.721578034711742 13.6117015265863
As 12.904128757657839 8.633456044906948 15.726218739916986
As 9.216352344654908 15.144332360509896 12.994137964636602
As 9.072679417730972 17.489675376412816 13.735784720191175
As 9.893499739542744 9.974211134603959 13.755304345553986
As 13.05355430123939 14.151097120817592 13.900557142273042
As 11.25707942887428 17.640598139348064 14.92607018233112
As 12.326087887099373 15.566137966372544 15.79078170746976
As 16.25338946378936 6.948279623989554 14.539381435047627
As 14.747645913873061 7.12012719451659 16.386041658759922
As 15.514255671833267 12.39069306627995 15.794665134907492
As 17.82904304791616 11.718019414139777 15.593435518558346
As 16.576350277788215 9.569485280120132 14.91422340500941
As 11.081098949162149 11.896357452141258 16.266370386715636
As 8.56821556477582 14.164845091319538 15.168316613951866
As 14.865571172066364 9.838139537488205 16.68302155040753
As 8.736493672725567 11.628775208307744 15.353743704613079
As 10.462870780011867 14.257263202981598 16.817186035440923
