41
Energy = -183.62475379 eV
As 11.093582571111035 12.039132713693895 8.708541524022998
As 15.253906644551094 11.36180176700913 8.929422768942024
As 13.029023191834833 10.484305810634519 8.190416958625763
As 10.967915354627852 15.892560251607643 8.636268036611032
As 11.896579625162314 15.701208400710934 10.88576820876383
As 14.651160960868683 13.676439273165261 9.758612360080015
As 12.692509498590141 8.435637473986207 9.655707358973515
As 8.684235180194774 15.662305196265558 8.800988361081556
As 11.553355763850202 13.162404535788323 10.970702559709409
As 9.765319472552674 10.146555888479627 9.673016383466004
As 15.72402891104229 10.36927665624227 11.177762655348138
As 14.67345710641792 8.107718608004424 11.185345899422325
As 9.983762826241135 16.80957312220323 12.056757375207962
As 16.934083195714276 14.74659069537117 10.046235273375585
As 13.669111674295264 10.978172813628309 12.49306533337942
As 8.014211470607849 11.28790828855226 11.075695925759002
As 11.243795838471113 9.254680285854903 11.397819445467986
As 9.255791603809122 13.294712198408991 11.760647778103635
As 8.116652230893875 15.432978774220848 11.167309158906512
As 15.933542981681837 13.435320029239854 11.869880881267104
As 8.2842684979511 10.146391715670013 13.324125966645287
As 14.259832281058076 8.905549958979242 13.605542310049115
As 19.14262147721951 13.930313528113343 13.072027023452314
As 10.976756643388024 16.32795650882963 14.367078438038742
As 19.23427213669742 13.814812006861194 15.581854818235286
As 15.77583439782626 15.88397959520418 11.9530725589481
As 13.94056537362762 12.544618071394808 14.513192741709448
As 18.249861996175817 11.939467601416789 14.25807970286282
As 8.695611003824483 14.087121192688695 14.42011026211902
As 10.640452000878645 10.708387395197569 14.09390343646713
As 16.950848601761553 14.957014875958762 15.749382544027675
As 11.19027143789475 13.827589249414059 14.152061541634128
As 7.703480307117859 11.86087908528077 15.106967176639104
As 9.582795823244215 15.5457775221465 16.360222444522964
As 12.132482366583929 8.904180623321574 14.989782889994046
As 9.548708589925663 10.638698941319875 16.304555611976465
As 13.270705136399185 10.816005501302453 16.2685121578783
As 17.73443596030882 15.892337975620885 13.575096921544683
As 16.25195522253554 12.583537660991032 15.558641903232315
As 11.730886156731675 14.22434259348389 16.565390799151718
As 11.326106338577306 11.940533465982927 17.499212356602584
