40
Energy = -179.38830094 eV
As 10.853621304313261 12.193597568890903 7.104929544441358
As 14.328091508627798 11.415056141179297 7.38956834927134
As 12.95037869916465 13.433157603752935 6.580524941314062
As 12.867256175548045 14.723913046565944 8.66907364258414
As 10.62486202889502 6.431465102894137 10.615076784489446
As 11.009564461336158 15.8721242167733 7.587940183303049
As 9.56206065209178 14.103114460101208 8.325231310517637
As 14.914247378801694 16.076292569418683 8.329871033667223
As 9.633137884791399 8.573067478670573 9.954315250991035
As 12.22699936542927 10.287557724930027 7.985561843057508
As 15.576518952221528 12.227981259609056 9.377265188083344
As 14.330463211611278 13.583596027065726 11.106593939685087
As 16.65301515017228 14.285893946220956 8.438335038595913
As 8.002808054556152 13.16082151849013 11.4599284512213
As 12.755929354117855 7.241336859494602 10.17958705407998
As 8.66382146568433 7.582575324132045 13.546043334821501
As 15.915890112702426 15.470437210588138 10.523482047606292
As 10.750640418843506 15.893543839007657 11.36491906903372
As 11.932599742788993 9.56115214275636 10.411757679280612
As 10.352976818909955 13.519016924379336 10.664144762801747
As 7.840412412171555 9.016007814965832 11.623759482234266
As 8.900832264465087 11.089107448236007 12.516635134182541
As 15.377791762233658 10.341666780077205 12.356561404447266
As 9.506041542452728 16.165980965851805 13.495251779398114
As 15.878202941829175 12.705091985478731 12.907756523060062
As 11.906348093442015 15.514943177604444 13.577620606811443
As 12.903095113543861 10.191737883858215 12.775996545195987
As 10.363801735521852 9.231598750146064 14.345444622004749
As 13.572254603039353 8.059083998226761 13.940507567556029
As 7.89737921440704 14.303395109172817 13.696341286058756
As 12.074038711361096 12.996170077012298 13.513372585205792
As 15.486461775604413 9.460387062240954 14.693576745349
As 14.256457877664555 13.339373322645349 14.700332575981975
As 8.221279082996599 9.03922180118097 15.535094784010312
As 7.310250957542303 11.079743144335099 14.404290720779137
As 12.043024218017319 8.271603369400427 15.885921707070487
As 11.117867205978154 12.708303981529365 15.789686181730392
As 8.61556504031583 12.841649405219176 15.620656439348089
As 14.530862541732578 11.302876529547147 16.143770421603985
As 12.22365473577512 10.636860999051688 16.79377800982874
