48
Energy = -215.54182856 eV
As 14.79779658142527 14.664599796766721 8.751692069139885
As 12.560611907124802 17.709339462090043 8.990033445082227
As 12.430807305926372 15.079311114802595 8.618405558823135
As 14.898599928674939 18.001657275021092 9.826897587705492
As 14.195992093918091 15.833458262479255 10.774041260983113
As 8.502159273821837 12.167319583441623 11.512279196315088
As 10.426882997031772 12.20393758526413 9.919535959427638
As 19.701079330515128 15.966494317599253 13.17600973856658
As 8.571550513729163 14.270030215797782 12.939406608572641
As 9.814370408072964 15.630893201001498 11.234198022007805
As 11.54734966418524 18.87684730186511 11.00513761879981
As 17.766723826082746 16.8676432605879 11.876299648661712
As 19.68129906134264 13.473532624815105 12.72298192769255
As 12.897191657950064 16.23266132193934 13.711378215721574
As 8.689821511916799 9.814901482180971 12.545069294167263
As 16.22219420570856 15.048165812241784 12.400769063363073
As 17.470350619982277 13.040256745171071 11.693436436752815
As 11.925510265614028 10.364806038602492 10.73018300202537
As 13.864421883265795 19.535049640339338 11.59856062835244
As 10.81657438810937 17.31690585237654 12.820037569805331
As 10.549455913173269 13.96002122595525 14.431207279074028
As 11.75335256308058 14.109733352075235 10.876540346670554
As 18.68719470464109 15.598714236221078 15.439991735369508
As 10.185822161961411 8.710675620974108 11.097438848841705
As 15.06738700904633 8.401490526528319 14.148293503528235
As 16.202820946658136 11.671731857613137 13.339425854480357
As 12.328873584694525 11.59475788092226 12.879294054744799
As 10.485547603797286 10.511262054564515 14.15829513759717
As 9.96298981810439 15.626717261592354 16.234274934222558
As 17.30634299594567 9.4538378420076 13.58753379964379
As 13.758299282035725 10.450445146786304 14.638161979900051
As 16.65123759925543 17.873298819376753 13.963926672574276
As 14.193712567017847 18.39761508819884 13.784220924502005
As 9.478144556003887 12.147434322740393 15.723632625655698
As 13.331819226655288 15.303801132711325 17.52260659015299
As 12.091878206924497 16.935488253286742 16.00754115842419
As 15.687397424048445 8.613137216062224 16.58830668721827
As 16.257525919984122 15.53720572946345 14.868246926046611
As 17.019748380094452 12.450405081163971 15.56647531822155
As 19.37562209721483 13.176127210351726 15.19866822859858
As 11.943330680087206 8.895871910619825 15.497932393727796
As 11.054499088539774 14.499941542608875 18.24138297190077
As 17.692117256212928 10.023253467356952 16.03793726018227
As 11.56137246205586 12.320963560596297 17.080429448301896
As 13.720644823073451 13.214224975158652 16.104638406277022
As 14.325802683439242 10.091614026911888 18.23753587499191
As 14.722512936131615 12.48172993411015 18.179831919094095
As 11.878627643661032 9.906057387594661 17.775243826028674
