46
Energy = -204.8442097 eV
As 13.720174636365973 7.539255320048378 5.999779852416116
As 12.426790667347865 10.06785310769759 3.85989584570727
As 13.363465116034531 10.031010175529005 6.081542642684601
As 13.425459435353007 7.2124493131465055 8.438465896641704
As 11.425299919933416 6.693999822507572 5.317053597305009
As 12.283322542896844 5.235478958649868 7.779292872639628
As 12.439544374065129 5.280278039671014 11.67884486595082
As 13.440517164048435 6.373183898640041 13.766219738606438
As 14.202545848626174 11.29172762150941 12.982018807446467
As 11.126161448831615 6.816126887083989 14.647869738963493
As 13.557526617405868 12.577236156347517 8.645779198155706
As 11.504887741544401 9.418079933387249 7.644716652646241
As 11.672997562102946 13.139380029581915 7.061634472769875
As 10.423947598482677 8.771707815258543 4.072773624833421
As 9.54500307606808 6.266918126048062 6.94847002443627
As 11.149269673182927 7.179316141088986 10.745864862332837
As 11.601561307403237 11.802024201728338 14.574889157499424
As 10.235872924030188 5.394459448559452 9.211362378195954
As 13.517940361912183 13.530625961674598 13.900380563716567
As 11.300228285090318 11.591596031518964 8.966623735361635
As 13.040016567814062 14.682629461235965 9.98169273646489
As 10.133647982714482 5.7376771532320845 12.545916369107239
As 13.434543093428479 10.062740688765556 15.059634655096922
As 12.352355653309926 8.544114767891717 13.40748267036135
As 11.765168446848167 11.109524561696453 12.107931153633153
As 11.317075783575918 15.320135261105715 8.28290657306478
As 6.447373229909357 7.1812133046219495 11.756732175848605
As 9.600216932317528 10.012580516919101 6.013958108611558
As 7.925592690840255 9.415712914036947 8.933697990000063
As 8.691315528075995 11.402080990550537 14.702281135109601
As 11.964017311123662 13.650090645036324 11.961639762768101
As 8.680713190761239 10.577108966937091 12.39374634230603
As 7.995930087873694 8.276450373492112 6.719990719055294
As 8.019910215431821 8.26557280645151 13.354804762368822
As 8.420777265494888 12.731177441960243 9.200426182846586
As 7.669152651302377 13.283830551003495 11.948518020805388
As 5.558246230003844 8.652214134443847 13.573702109307643
As 10.188589717992755 15.147004355342128 12.898313268998464
As 8.41194251616776 13.810910956977192 14.259870071355497
As 8.858249910273901 15.144217598976896 8.756199627482042
As 5.721717602396148 8.787263324096504 9.946854881679569
As 7.033628386478307 11.389128346668976 7.624727691508349
As 6.130618901399471 10.385922362120887 11.815476705798817
As 8.401329021750817 15.591671720950359 11.208005695841615
As 5.924848838378397 13.113218819799677 9.112726614833822
As 5.2546419120236 12.727497145255546 11.497650423602806
