43
Energy = -191.48132647 eV
As 10.011249062615788 10.69127874225666 9.90988995556845
As 12.78638657302488 15.480831509591773 8.777730740109815
As 15.245599833915577 15.095829782147531 8.154678030926766
As 11.12053592422636 14.12141260553833 7.514475541579645
As 11.688968140774247 17.652202978212173 9.717026751858587
As 14.615210782949507 12.845070294666447 9.070000786988283
As 10.50395485398412 13.135024432172612 9.75320816110578
As 15.282344046268749 15.511958766674235 10.64777968497837
As 15.02501544022282 17.366542574748227 12.315037704335438
As 16.46408162015214 12.243915676355368 10.706640070364337
As 12.23416996363971 10.711646236072832 11.026842058369388
As 13.109727642317257 14.02308045934348 10.823810857170491
As 13.146329723573173 8.462425674543617 10.590416287763432
As 9.09258729784262 14.96745016729282 8.654581841825676
As 17.151204813074404 14.434660107653887 11.741948464554
As 12.527984196123297 16.65489596254122 11.899390613634107
As 7.117727772521313 12.659359424060801 12.16146973547349
As 15.103735349024813 9.126413191485447 12.086591368169536
As 14.881484158656818 11.60256425736663 12.535286095347306
As 9.77451348022996 16.437588873298 10.490065809527028
As 7.482974251769623 14.751944738887374 13.47240199484588
As 10.017343413226476 14.857302052164323 13.698158761225587
As 11.053384865144423 17.23140613085739 13.81130792585479
As 12.915934888055416 8.551272107108705 13.090508234192177
As 15.850136002316003 15.453721014365298 13.734465830077543
As 9.120647512505075 11.195424082700505 12.244502042958823
As 13.57342403236789 14.446464753536022 14.191607830550558
As 15.447376374529522 6.895612293161403 16.11075346351371
As 11.065162142583091 12.424049913318497 13.242635166961358
As 7.207326157008171 12.667104416395198 14.61810180552217
As 17.007976448620447 11.476600955891051 13.960135601031176
As 13.510993393305371 6.570509822497426 14.610195981513254
As 13.77573886433049 10.333758276662888 15.399474715312776
As 13.010220925421876 16.665782627457865 15.236788594311513
As 9.888902494806178 14.37124941420217 16.162835392345155
As 17.67891704066905 9.146509223550934 13.501671984497321
As 10.313480888910659 11.968291803057605 15.607140700812645
As 13.356227984728887 8.106389175432279 16.594984352267097
As 12.479983403598135 11.748525550371085 16.99383797866546
As 11.990852144706118 15.331164581039346 17.128528683494338
As 16.045008724427333 10.883944872866612 16.241627407053524
As 13.859264967263952 13.736066835885469 16.63668992268774
As 17.19533196680345 8.692173204805188 15.864194632891177
