44
Energy = -194.17405724 eV
As 22.880458318137176 11.086589911626435 12.66167125730403
As 13.587997009882057 18.387435012266668 20.989515724216055
As 14.498319196633961 15.734060745270208 9.017880128647258
As 12.392358248125516 14.850097144195052 9.267748037707328
As 20.43685824620795 21.04693094618686 17.188827513701945
As 13.839163146787085 15.968260743459545 14.822973181865137
As 15.676611207931177 16.647683201792532 13.259661581449135
As 14.96641527430817 16.27487212588333 21.264170231736987
As 21.64797885653102 13.068945090790704 13.437868061260813
As 15.75312554007323 0.002525129344645994 18.830725933023132
As 17.06720061794325 21.183598858242064 16.459236643656343
As 14.242367207706176 21.776619162687698 20.1825182800602
As 19.226413679833506 11.701016873398244 19.335575538990213
As 14.822545528826604 15.154451506554638 11.415034245047002
As 20.701370233834414 0.7751215935184446 19.54913946682481
As 17.740531871693296 21.727147348853695 18.837361181823788
As 20.838530466144828 19.084742223495912 18.865753609872314
As 14.946899094233835 19.204010935027814 22.907652040009605
As 19.23373312303064 0.20212300705890532 17.729724816034913
As 15.628211492883898 13.70832220845495 18.84046640936653
As 12.067883940326968 14.488237974949483 13.747728631995235
As 23.140696980113997 19.828958509556987 19.363535770947117
As 18.75155801208031 14.374429864165863 16.42421082332959
As 20.465722738976634 10.940939390690298 13.121314216941279
As 22.05697883454909 11.198208159960144 14.976525837065969
As 16.52379501709336 17.525330380304162 22.69928283485955
As 14.533511854628951 19.4173260959251 15.489220299023282
As 19.554211419068928 14.054075831583434 18.748683352161272
As 14.749135759057152 22.086445941688456 16.71510728856258
As 22.521050026970933 19.154781214418996 17.150350733967162
As 11.789722079399011 10.87143006155204 12.826341573874073
As 15.261487859780274 19.595672561817825 19.56998239718038
As 18.036120326945767 12.110510191464558 15.69102607551587
As 18.4321147925457 10.56730835351554 17.53793112372742
As 13.465276325561552 20.45337076237622 18.114566808636663
As 16.348083025467098 13.80424113475779 16.466817615149488
As 16.248550992007136 16.116333130362452 19.129706273642466
As 13.557740007664236 12.521720873320186 13.41643323075519
As 12.414611531878764 10.961898203013078 14.995167117459006
As 12.476745650402988 15.708263343418981 11.612326339653299
As 16.774369811400796 18.884404773250026 15.727974011215222
As 13.696119896049266 18.084008773671922 13.517189763559415
As 21.870359506510862 22.094318023356937 18.86668322215275
As 17.57237601568636 14.345359550152686 20.244417448465054
