45
Energy = -200.39716227 eV
As 11.175018932475556 7.419474276494982 8.602554320547254
As 12.27667001819246 15.229775701848197 8.43821783003643
As 14.239281741996152 9.049461770514002 8.697842848611193
As 8.69232223602075 7.896356856332176 8.586051328163709
As 16.1895244504684 15.805301328059857 8.769459957559281
As 12.053914830893229 9.695084396254865 9.012805092629028
As 15.741545963548598 13.510483401675051 7.941358177043083
As 14.070552444257805 16.87885950322709 8.091313748734683
As 13.347909242783274 13.047791133022242 8.38014231825408
As 10.236040795024165 13.84008896077435 11.353780951934972
As 8.397026337226075 6.318313213466197 10.492161334563638
As 10.673152058332596 7.209099206109619 11.06360857583423
As 7.923583610310543 14.728913643500032 11.30743153638519
As 15.044370223769148 10.567526016286678 10.432862098372
As 13.486108611068289 18.29363735105574 10.100358444726258
As 8.684267201625723 8.712678124684436 10.959634320501152
As 15.58358433547573 13.238377162003339 11.730889264201231
As 13.377483782426108 12.404731800891671 10.81146522007356
As 16.820877699338574 12.244722367458515 9.80837675009696
As 16.192016908638948 15.604448091392106 11.251830839229653
As 12.178102414695426 16.394693003452424 11.08729616078414
As 14.367484932608317 17.080635997385116 12.05937988436327
As 8.341059491652631 12.323989457807157 11.839514366936708
As 10.722779080504656 17.44271874282156 12.920746780351358
As 16.44179752733058 15.041456677080795 15.377047954550248
As 13.93563928467883 9.692880641670236 13.666446404634247
As 17.33986636072713 13.052911864512144 14.614596636287784
As 9.408427337014182 15.27457690774096 13.24212623051954
As 16.23466593022069 9.623710543790446 14.562983567084437
As 16.740524529754907 11.37165991418297 16.33375306031073
As 14.567353971518896 7.940541250198755 15.311308152247635
As 12.133665283869824 16.221636808580136 14.61480079510575
As 11.477408816896007 12.729933227683391 14.979997473405776
As 8.37068279367915 11.502093488191141 14.224189635997087
As 10.581643847987356 10.497512678852294 13.859801640036416
As 10.39765238941726 15.927998395053455 16.331422788758577
As 13.795958564861142 13.928008264248097 15.733617756801056
As 13.32104063510075 9.950543512828 16.069890982271765
As 9.244437062099763 13.245246565860263 15.922273821861959
As 14.774234002485077 12.413028720599335 17.46576617680379
As 12.379731454415213 17.310711939232494 16.83909013747454
As 15.869208091057295 14.667730972106147 17.793196359560046
As 10.843064316511626 11.795504384146168 17.210777095026387
As 13.348706248922095 15.184882071502276 17.792958941278275
As 10.797143099991157 9.507798557294146 16.132401131922286
