41
Energy = -183.13737889 eV
As 11.633913962270197 15.360148600110561 6.808977727774695
As 10.285434892607354 17.48242478882374 9.530472379887454
As 12.449318162488403 16.40568266159491 8.90354371746987
As 13.277905499051883 9.568278303719774 9.872313158171009
As 9.820393757551841 14.076007754332828 7.942579193059865
As 8.683667549018242 15.597389795086617 9.512979259564258
As 15.711535548669604 14.941802472881855 10.066199085680088
As 14.422865529376299 8.06010922703853 8.204975028784217
As 15.665948974074851 9.022734081468766 10.189386138668006
As 12.729113886513602 7.562045692835273 11.267896908766541
As 12.122001501856538 13.94763069585904 8.849091991573387
As 14.080391362436156 6.162233662057731 9.713698568703974
As 10.61668442269352 17.87249102776408 11.96963706400188
As 11.493040886060935 13.914840760978027 11.894760889782178
As 16.769715959889126 11.20344073017028 9.721905847758634
As 14.809635908039034 12.625993051225993 10.285068932993397
As 15.38931655500917 15.854621955989533 12.174210446630829
As 9.841005833811181 8.840643206573434 12.319587351864412
As 10.896382983831458 11.090751075786798 11.909258060359544
As 14.38120769770901 8.116714806904422 13.108003755168168
As 12.406412151663556 16.21416915186758 12.44474862729745
As 10.458063293193147 8.476926137607697 14.734978196596133
As 14.168044315813637 10.625807524304657 13.23321660769012
As 9.058521145853302 14.379048929145187 11.660435473140796
As 14.903610943982756 13.854521566306863 13.598696702222215
As 12.80666246702798 7.6037069218896525 14.980972689466938
As 16.204230833649966 11.794540231313922 12.150428428154813
As 8.477898591283115 11.00243286154993 12.406933125093607
As 11.045434566825062 10.863726887581016 14.67283695057164
As 8.687117277727419 16.540788614154884 12.763365860589136
As 12.12039769876468 13.65518476843202 14.697504790330834
As 12.036435810572268 16.177364751144253 14.90617410264493
As 8.658717355088056 11.609357269061286 14.863371987655073
As 15.461736360038584 10.380285208921396 15.359098500371514
As 15.957454773615453 14.470411345846259 15.56953232030473
As 13.729940898519613 9.222102131037632 16.70933849176034
As 9.767544245079018 13.714043814497726 15.660068911336257
As 9.50739024655677 16.145932649924408 15.085290651171933
As 15.35434728860063 12.397944204771012 16.822669141328422
As 11.868378919825265 10.862493798671604 17.07730251950219
As 12.966704440403634 13.02775137781015 17.083014913150677
