47
Energy = -209.86063068 eV
As 9.867639652333056 14.23452175546237 6.606550481226781
As 11.445642434658298 12.724709385785081 7.754739155758001
As 13.466219152210337 14.144951274750241 7.555491918427002
As 7.7628445031828575 13.532691755962913 7.626289365825411
As 14.61991556827235 10.401367555721393 10.85409568657859
As 14.12630151194138 8.176414610993486 9.962410433047925
As 8.528053742081905 15.949025393764234 7.7693900832532
As 10.209484471813632 9.452608427427862 9.686652532770596
As 10.922031620369411 12.892719848508273 10.160328941842254
As 12.951919625619523 16.156841883770188 8.951899220965036
As 16.025786176586188 11.514535726546724 9.109504633375593
As 14.535770464356418 13.471298362028303 9.710662652812
As 8.122421457865043 15.644114111684088 10.223363421527969
As 8.451417501235513 13.165342868947423 10.062926750924483
As 10.687862809496076 8.773504539444895 12.152747319770647
As 15.369975220118672 15.824140554634008 9.640147847451138
As 11.903353672059435 15.04351206801324 10.98333144175059
As 13.25793917344147 7.699965298767523 12.170578021077068
As 9.564633651389503 6.60264059013677 11.574196389659797
As 17.117810979495395 10.359980562109254 11.061922738009844
As 17.091920680624334 13.813973218335054 11.949453232998014
As 10.035172538723767 16.684875939914516 11.368470123149145
As 8.423303512441853 9.86811841990548 12.892857796295683
As 7.55849092847766 7.61762497682984 13.029001692733845
As 8.118076031760461 10.057054268645306 10.256505470807127
As 10.605979336637887 5.516014387136866 13.580141836754096
As 14.695679583122443 13.765416456719453 12.781616617018765
As 17.859152447218523 11.68346980113164 13.053778477713363
As 14.875114827555695 16.18149564571623 12.108688428897546
As 12.114192044431798 5.671865582049474 11.603195837973542
As 17.093592706057837 15.97240850336963 13.292065985031735
As 8.893564861095095 16.20323746598036 13.550549518569358
As 11.24570323109012 13.081391303284882 13.721017802977808
As 8.809639191015055 13.744861211133953 13.980358982153694
As 8.732298067363569 8.37832059937017 15.08015555018327
As 15.802383618923388 11.433403262442697 14.56711570175667
As 12.356368800695124 15.31545563490014 14.260769777426598
As 15.399955078965753 9.319061656640686 15.954642389793742
As 10.98179591061001 7.697932981864725 14.711379618335046
As 15.892032490783096 14.406524800913104 14.903891169247931
As 16.83573172311853 11.135943283569647 16.800822236284432
As 10.522175720516142 16.400391859085772 15.458247641254232
As 10.873528676864485 12.34558703530778 16.03168879547392
As 9.34987378977879 14.346600699683044 16.374692434911864
As 14.503936119531266 10.96691716198538 17.622985410749642
As 13.374500857372974 12.483029210418698 15.930234979974005
As 13.791582206472 14.916906428982308 16.291211825256266
