41
Energy = -182.7210878 eV
As 12.98619515982095 13.704520179149005 7.1395158794622215
As 14.156728362467224 11.521457488728819 7.807146725441796
As 12.198706171975006 9.827366729264256 8.047685481225841
As 10.098920508052183 11.215650737419029 7.942285050301675
As 16.228714594325492 13.696600906597467 8.786660891891126
As 11.409862702530974 13.060127220711372 8.887707322008573
As 13.335438594988481 15.853284774123555 8.49533949476135
As 15.570902127887097 15.956560739579466 9.668424915378784
As 11.380276844337185 11.337215966680981 11.474547989875795
As 12.832787567476393 9.561681578324142 10.441954117596744
As 17.095685651041936 11.908793643218573 10.303651302475375
As 14.631051730405545 12.309052072606018 10.133381379781436
As 9.173721199638887 11.09175922308256 10.272493444970115
As 9.839338786333524 14.929080379393113 9.04290767177804
As 12.39669080599686 7.246020679694412 11.23499245212974
As 11.602930321990465 16.161888881348325 10.349641194960963
As 8.448498772000477 13.535058263714728 10.64486167946939
As 14.768684711277608 15.149647394948282 11.848730778380572
As 10.29372905760196 7.324126237401362 12.516133407885967
As 9.68168798232777 13.556957911379104 12.790895965088772
As 14.30674249985347 17.17934308344804 13.148508674042425
As 17.745729607348682 12.761136954111706 12.556533549851567
As 16.95272446256438 15.10466193946284 12.980965741723027
As 7.992411216677056 14.291413346433366 14.551741164571487
As 9.548208901087179 14.8346591134167 16.473964427821205
As 11.972258441391052 14.432460085091014 12.148707945366095
As 11.02205489884064 9.55542868135596 13.285315131141543
As 11.30293592183846 7.076541493433872 14.873841989640558
As 10.996773236576056 12.990083066678325 15.547421435943455
As 13.795883641853399 11.954392006079134 13.878592310730006
As 13.185384996023762 8.496658775786697 13.912872498783395
As 12.493695882049227 15.904665020592004 14.145141031416504
As 16.30636235871767 11.851114861685007 14.403350869335982
As 16.253907106208867 14.239393270379784 15.24443900736306
As 8.643476959696585 11.979953626157712 15.368571282869208
As 9.934167247539515 9.151919013585879 15.531666094075836
As 13.76688878545074 10.22812166633877 15.76998952211478
As 8.763977286110734 12.76649603358228 17.778393801082714
As 13.71490962493129 13.98341085103457 15.345637221233762
As 11.24019081875947 12.199275000555765 17.864015268580044
As 11.692942493054408 9.834199142473668 17.123551926498067
