41
Energy = -183.57323605 eV
As 14.860618531931756 11.44329811077013 7.266775066518827
As 13.710362560667086 14.629034333808871 8.31581539956004
As 12.986448116147091 9.873290997935582 6.987735511067563
As 8.901670982766289 13.789754353284662 9.036994532832516
As 11.771037757359899 15.85450509222439 9.358525725184466
As 8.909651252269873 11.290481836853097 8.540582706525006
As 16.51879177520857 10.529018416563742 8.908023584205715
As 12.97414069815011 9.429078194235085 9.406682850660715
As 12.832639320618545 12.173732296184077 8.465384139192667
As 15.282042302305918 8.65348930129516 9.914819944632972
As 14.223211304650473 13.519385333532634 10.495579604728489
As 16.554338467140052 12.61384924388069 10.324617374170325
As 10.880114682046292 13.839590638640793 10.588298993023727
As 7.451561361654152 10.856507417001271 10.563067133828033
As 12.545605288799207 10.266251514239734 12.596632049587091
As 11.777116277613086 7.338119348434856 9.956734921617537
As 9.96329837639274 14.992822452215057 12.605302028489472
As 13.120248511761606 17.067086898457752 11.067975690184838
As 6.985023822101374 13.299532865128885 10.563326120970085
As 9.931911012020285 10.81946970447752 10.748337159851676
As 7.43702066772384 14.130314494161183 12.866770641222232
As 11.708840235875709 7.8770762656345665 12.404881973858869
As 11.6279990543509 16.933216434709642 13.041471939183708
As 13.22342059817455 9.56777086194388 14.974708681978909
As 16.52637985051901 11.500264779856417 12.55648713764063
As 15.11723659691867 15.63159736886104 11.52499673487099
As 8.350085202448359 12.080286026824332 13.67218486567884
As 14.932336386956228 9.51825072834656 12.266038567448843
As 9.702459894325818 8.319011019178294 10.913935874399794
As 11.083952840919899 13.292437971530026 14.104348439192343
As 14.978797982687952 15.02654251152061 13.939548643798554
As 12.631998237380547 15.366654220599964 14.709785039734358
As 14.48561366368059 12.615268155239564 13.489440859627512
As 14.74272050272929 11.497042952764636 15.702564037993186
As 8.019077820652473 12.502431774242588 16.11146129596583
As 14.970748701511924 8.029131460448296 14.141715496404442
As 8.865914275752125 10.198699181469406 16.443717366641113
As 13.564687935191632 13.364200146191875 16.803041637244934
As 9.995492403538112 13.99036896924074 16.254946399487206
As 11.016686403764098 10.251685181275642 17.20716801715996
As 11.429798872890634 12.620551676392532 17.750676343232264
