48
Energy = -213.66153626 eV
As 13.106290476600028 13.22789120562431 7.150500267638738
As 11.995101216110337 11.305836517400442 8.256575146158282
As 8.287083597472268 11.51492550573807 8.572378972948574
As 13.249463732304186 9.473737888552574 6.98816528986593
As 15.50855829043189 12.66336122593131 7.585637982275312
As 15.508299949109098 10.176135776442045 7.744547728624758
As 12.817342835419533 14.278558226667101 9.458054061587898
As 9.735167574738826 10.265697618706538 10.04660758223993
As 13.879938015398466 16.602948938777434 9.908728109405716
As 16.06232655803742 15.397777733613434 10.289589594396704
As 6.796077048355929 11.783092468227201 10.508531636824435
As 13.82428722727489 10.332039076791377 9.774257300734908
As 11.206789067197894 11.968295201312626 11.163865445347067
As 13.1310710658336 8.02478608611543 9.118712330348554
As 9.433264845617154 14.777171459369873 11.532393354631056
As 10.864810223653864 8.003531916634872 10.213989749399033
As 7.933478902938192 9.876202255344452 11.700382910603512
As 15.009267211974214 13.156891478686976 10.028651098936136
As 17.234101836164395 10.91207453576027 12.584444256437934
As 12.318027660452543 16.093627194870848 11.824482054394437
As 7.1735237420628355 13.79389802153788 12.154504271730946
As 17.041787306496843 14.530063726417616 12.47506726091352
As 9.976804233960292 17.339665356389023 11.615105103415203
As 16.432551567899512 8.844326740682348 13.709343779909071
As 12.93145790655119 10.69838589190878 12.241996830170622
As 7.462050561362284 12.438415224433747 14.22294547536388
As 18.282005151595285 11.687806238819377 14.728424134646803
As 10.663399323631902 14.24899646632508 13.563994638845053
As 17.080344655575868 9.8266707992209 15.929570133221896
As 9.403313590275387 11.151921838512633 13.247688916369356
As 16.50914031317271 15.652319095441657 14.631292941449656
As 15.470720630163282 12.69963176946635 13.205816471398023
As 11.936508756960496 8.426460226497186 12.428735511897246
As 8.783744497597954 14.261524732024293 15.25996677262213
As 9.578143594092657 18.201136954992606 13.781567127527229
As 16.41997686101527 13.247171070235689 15.49481198176434
As 14.774562196185503 10.26477688622893 15.04626264565702
As 13.166656434457337 17.228967365439356 13.88087274370652
As 10.12360563493234 8.905241874501897 14.175225931342075
As 14.085841811079742 15.01923017875491 14.607778351818409
As 11.930672779760407 12.164232773467774 15.397025768418903
As 10.99386661444252 16.471311308446747 14.745938531150685
As 11.201534359886047 9.930004112316928 16.223418628435393
As 10.346614775749055 13.329425946492396 16.97261812284059
As 13.937806688138023 12.107790167552398 16.8998636290079
As 13.507031199853682 9.309284757065374 16.945438785165706
As 13.765633132745457 15.018650943547852 17.05630743708576
As 11.36902025204318 15.61717312948537 17.15698910809876
