46
Energy = -206.81581346 eV
As 4.382945566922148 12.657881030255986 5.573955084110732
As 6.609848202621981 6.231988905461524 12.000390758583206
As 8.862929716872967 3.7205415842224077 9.076497142155489
As 8.9183722773793 7.635438110776358 3.6274449131855886
As 6.409422579228455 11.969414421613587 11.45670724624366
As 8.647970812248337 6.495032342193057 13.404178369625479
As 10.880011099082758 7.654156989926663 5.24512948249991
As 4.793446406881892 8.344665494969036 5.391802627821076
As 12.279107259120371 6.344921164649143 12.801834334370625
As 4.124197930611182 10.999027744495413 7.46074025614474
As 9.230420489732083 10.692971175469523 9.79911727495085
As 10.990190494568147 3.1982372295851564 10.643631403721773
As 6.714185833714674 12.970672935230768 4.898322563194007
As 9.181083029130814 13.036535527489624 8.979870362944142
As 10.196215784061957 6.721250749794966 11.547221261548565
As 5.139387478012773 11.884049435940444 3.352983380807074
As 7.71155415505456 9.192092769396519 12.845113287301057
As 9.862348790228701 5.456782456265676 6.030489500706484
As 9.865188611583216 9.122598700343723 6.9465531121699025
As 12.082617464188434 4.743458280319448 9.088855649389341
As 5.764552872999904 9.43366107634789 3.2771727545987934
As 3.7540970951574333 5.663710390211085 7.776703143119434
As 6.428260402670421 4.805695609032968 4.908196484284184
As 8.126026445907769 9.98500157774679 3.638780304239426
As 6.239658126392745 5.617766925298822 8.357336724205334
As 9.889656658840389 5.9457764762822904 8.493981225169962
As 11.80494116803893 8.777154553309725 9.33480700017262
As 5.748357704585868 9.053963269203742 7.594249650923721
As 4.1801734003714275 5.899026201289103 5.343430233075338
As 8.736646053681604 11.419620812163105 12.169952799889735
As 7.783319128903867 6.761176009182765 5.67382414803223
As 5.497070130496216 9.600401210899845 11.753902499829543
As 11.488027792664656 10.826895207366563 6.283740876694815
As 7.234154846384472 8.259050418663875 10.576744615494022
As 6.73193430647614 3.6204487677917294 7.040508397870403
As 2.6746463012748567 9.276763678009678 6.358938099881071
As 13.62620487397278 8.26316255711303 7.779424456149829
As 13.608766872177542 5.79171443256252 10.753101479641778
As 7.921263173992049 10.847775419645961 6.059264650389643
As 3.513794052891013 8.070518329593625 8.399738734586265
As 7.069490961739791 11.705276572144282 9.010095074421033
As 10.607038483016487 4.5128271951682795 12.720264241284994
As 6.793174796241245 4.284275614693069 10.40723625787763
As 9.710097630570262 12.595614710598674 6.548575921290204
As 14.09911965567759 8.228984887822484 10.230966834735925
As 13.050955083376515 10.644893049206349 8.301097380413992
