47
Energy = -209.45431744 eV
As 12.811315354771384 11.53921994661252 5.8639019482333685
As 11.374575346791882 13.572220145125709 5.424409579115989
As 11.359732533430162 11.016637235996267 7.90633164188262
As 10.122843963901275 13.138390549519292 7.626696382483938
As 14.473793001644815 13.036281818681404 6.874986322757999
As 13.186167115714829 14.917577920984645 6.385360127403216
As 12.822183305567608 12.089004736205917 9.66314116983619
As 11.624730351434605 14.30096948514529 9.301627191151738
As 9.651239290135983 14.888511163175655 10.702596969881105
As 12.979589575185146 16.98117765914468 11.091109334217748
As 15.300563866310124 13.762598373575932 11.040128019796734
As 10.511479699935995 17.052122051029812 11.741699937475422
As 17.19183264384331 15.268680519185843 11.69455726871658
As 13.960487149118732 9.893154113867691 12.312663665065799
As 13.296915251051743 14.755863381418584 12.13180234565885
As 9.380380381347436 13.088110467797152 12.455717472768784
As 15.14686845949711 12.05500920591967 12.998347755539056
As 14.159847624319758 18.440583533455882 12.727048879973808
As 16.011757878681497 16.843468604628097 13.390657373373557
As 17.60000244090859 11.690962025230188 12.849771526435525
As 11.650569013669156 12.455029602304737 13.346277904081187
As 17.48718766748033 13.951306364710275 13.823073362309797
As 11.763821838655538 10.754791398679437 11.490532673672547
As 14.282902373867062 10.496441942368428 16.5557335913823
As 13.498111114017176 17.513138373227157 15.001874997286174
As 10.795340870681809 15.859209422520902 13.901890926908097
As 15.741771445172205 18.22953628688029 15.930944468027283
As 19.3810753124538 13.190105998089841 15.483537973898107
As 15.806814806236384 12.39414348393163 15.86210603870769
As 8.674095247822462 14.633528780624001 14.292837618629054
As 14.389562338427815 15.224956535611934 14.356525126377422
As 17.938743224713026 11.150113135028596 15.323317892891344
As 10.70728209163726 17.323417664588398 15.902737003478068
As 10.818856579600958 10.422786555246837 14.61616497900418
As 13.070276039231462 9.290656437125085 14.611748979396495
As 12.824094925362267 12.414061614041895 17.11034099732774
As 16.313075106023508 16.641360847265645 17.63802229610019
As 10.527772879493108 13.704393162767404 15.739843549066522
As 18.688980666071625 14.284296257380992 17.535467584264754
As 14.918810998554413 10.062252368637761 19.25140641263194
As 10.536831422669671 11.431973460412923 16.91845979922711
As 10.585027315258763 15.539622546806035 17.4234202562354
As 17.165058440473565 10.631156545462883 19.171670135857752
As 14.29363976930628 15.410269006790797 17.673266230855535
As 16.859006560082747 12.817235928983688 18.136743981544708
As 13.494851223224245 12.164328881886425 19.524501806178932
As 15.153249618153048 14.012458583859802 19.52811262482532
