46
Energy = -207.24456471 eV
As 11.710095329361138 13.296291085099465 16.47870367827673
As 12.690470325658648 5.574637909885125 10.827005388692381
As 9.503426961446285 16.662136660038428 10.832199160439142
As 13.103269024048473 11.182472920445308 16.557254015840314
As 11.029163688160207 12.989432657201965 6.038708379373353
As 14.769624048685909 12.938722587346035 11.90748964891794
As 13.021239320974008 7.917317211531758 11.759149496656418
As 16.267923606873833 11.321464901969165 8.672572719155234
As 10.789568115009885 16.375548734797952 14.076491259391275
As 17.003840003203262 12.335327138461665 10.866522461276281
As 10.463296136606388 11.644398942224358 9.178754757791344
As 10.281711348283421 8.831202188005658 14.538906171572156
As 9.634450124386928 7.040823310332349 10.145706731648886
As 12.502252761527117 8.323673852809188 8.371237412512361
As 13.416687033209127 10.195510791392275 14.34374821707015
As 9.28877578291278 12.13261275227339 14.237562679817355
As 7.167953737298429 13.095606660345354 10.308697237860564
As 11.795811864875136 9.454061257453214 6.257191002435411
As 7.234515529558877 10.659274511645057 13.671506893135026
As 8.264957596799887 9.625504280009096 11.65495577319702
As 14.100339912087675 12.566459844757127 8.534677531456799
As 11.709921103714867 17.285013432288096 11.894614230777181
As 12.461786001211607 14.527377240087533 14.360699774098494
As 9.357481378129085 14.875621076956573 12.607173504992303
As 11.442427989695265 6.052283958186751 8.671471696543863
As 11.492729906498928 13.605700005662499 12.20941201252282
As 5.993469777714604 9.863508799492008 10.592133627775272
As 11.071689880878598 9.706323606758968 16.806842773303742
As 10.464683474779918 5.566022585539554 12.018735761610353
As 12.707197268357048 15.213595929433644 10.771452225539342
As 9.664160172328614 11.785913121003883 16.65065893318587
As 9.717078403955398 13.731408694363973 8.063308138168788
As 10.952941328736724 15.704199979783663 9.03850904645226
As 5.713149488702277 11.91135295412542 12.04563081528427
As 9.119138801700073 11.941780604739861 11.198636875270124
As 11.751578427682954 6.946669778947925 13.674968075511915
As 13.117229315594747 11.604225201278386 6.4367211967647835
As 8.761780680421351 10.228306226027515 8.08252594585958
As 16.752220030242583 10.077947432289998 11.970886112567687
As 15.51423798806913 11.401015473144186 13.709155549681748
As 11.169531133320904 10.680990527874428 13.171519092031419
As 6.535150027376852 11.339670068418869 8.641160444297824
As 11.174739603947303 8.96924939551783 10.440395799462134
As 9.683289696044255 10.83697532011742 5.839692137933934
As 15.121561202305184 9.558829158019769 10.129582529944964
As 13.404578090066899 11.31699050958959 10.608729299443576
