47
Energy = -209.97270861 eV
As 11.885869946662739 12.793405992456986 7.141570892763846
As 14.128480695139885 11.65409054994482 7.224754398859948
As 15.933330356106199 13.250708240944402 7.901950669786926
As 11.055522178742493 10.54528910115835 7.951676905479867
As 12.83978669830176 15.989404936107375 8.89052942566227
As 11.750708603951644 13.826577012672198 9.462296396526922
As 14.542239020394476 8.89776938608254 10.083734401353226
As 12.223141135693691 8.783677591347516 11.211966628216539
As 15.127276115644337 15.10442624717775 9.435841233741897
As 8.203156059934757 14.640075841818774 10.95517319236696
As 13.168725959892628 10.879256831598106 9.36661575455032
As 16.39022164529955 10.096046752195711 11.282062507485904
As 16.68039467328011 12.392579945693694 10.239964203978875
As 9.298535770184037 13.664307520755612 8.96210829099821
As 9.831936710402138 11.446694644797985 9.984836770130135
As 12.303560973882693 16.816132311660592 11.212229107943081
As 11.19780986063661 7.192327858932471 12.910685400474792
As 11.967192438127467 14.870610290436487 12.787050801885382
As 16.50652674631929 16.68138054387398 13.619421820173338
As 7.456545041558954 10.733858556606945 9.752982921568856
As 6.605964749201301 12.68589021325063 11.131988943994692
As 9.599863573807205 9.214769699229072 12.582808231234843
As 14.411155079749314 13.148638037908649 10.819695676239732
As 7.158188211424625 9.455111521900283 11.93719614527734
As 14.168780887073394 17.600597083964068 12.751819217976129
As 17.137825760020355 14.41780194722845 12.746105423739186
As 12.646099075692478 10.46211478419338 12.957085186621107
As 9.86125450798078 12.06258946254472 13.281697215467467
As 12.37752111522004 16.895252184373778 14.28968260181393
As 9.440044938124785 14.52997992835087 13.13517108707314
As 14.826025963116173 13.677205255049204 13.193985346108487
As 15.65634299899185 11.284353905566379 13.555764599201572
As 12.008500014507293 8.751211068996525 14.696084306703366
As 7.314070362123002 11.58509656144317 13.263560384910281
As 9.531701511038607 9.082901373764876 15.086050645688612
As 16.130223285271796 16.235596551658265 15.976675789981748
As 9.243872745319825 11.500572781213993 15.680746900708792
As 17.63328935936884 12.721683698075466 14.53218598538296
As 13.761531222322466 16.830018971353002 16.3873823670533
As 14.934770173012092 9.942266148886524 15.823404599033337
As 12.96736486139108 12.02101764983901 15.6019214848102
As 16.6456882355999 13.829833713085433 16.546191543559196
As 11.491742197804282 14.109074255706272 16.30631047052517
As 13.029358396210949 15.00240511081651 17.94038599703556
As 11.147244216790007 11.86919303946191 17.2963236124709
As 16.098677575892534 10.800720193684937 17.57301562590155
As 14.52282666304202 12.866373012443942 17.370197197792223
