48
Energy = -213.19509915 eV
As 12.59031028120439 13.703727137997875 7.853799929809037
As 12.908636760284546 7.88154528612215 8.546066904719202
As 12.98665981860809 11.472014679505298 9.062055422697135
As 15.260156402473077 10.926605056873072 9.983424946569322
As 10.519304131261814 14.36070869221281 9.632616519852183
As 13.939723193466433 15.603920893236957 8.092084592976896
As 11.316002103954261 6.429897328573444 9.784317056676658
As 10.574975888279916 8.470663070112668 9.010670461376332
As 12.146354807901231 16.799090890919228 9.714596389374908
As 8.638659094940225 15.889946590524726 10.62146996691146
As 9.772426916983617 11.950709489059689 10.083477697487645
As 14.41956821048506 8.599212414538234 10.47870842861329
As 10.195376017266932 17.613847964620525 11.360856348465422
As 11.9911517343306 11.959515229188131 11.263652983846383
As 15.184786443243542 15.896026949370706 10.426720092016328
As 11.913851899893183 7.0922003260410005 12.698801892439755
As 12.255399901447387 14.732141320521485 11.32451266271932
As 8.135316988972216 12.312812104426309 11.949220462323101
As 16.242655616514533 18.412048914546407 12.508946481140484
As 15.081797952232046 11.766199560102303 12.364388535679922
As 14.079890495376816 18.08153811959346 10.838329049831488
As 17.437251794364318 16.471507100539228 11.535524641583716
As 17.291684118889673 12.814094043413125 12.063193759540251
As 8.370175728917992 14.677309789060732 12.758885393062778
As 9.502659189760008 7.369170343909143 13.208908880568275
As 16.109812658282863 14.7369343165894 12.729673697763394
As 15.161331770076643 9.471758025120524 13.438736371457852
As 13.247942101154617 17.23586415381399 13.093053180912982
As 12.886760273871058 9.371723615392394 12.306057447211922
As 11.129506459168496 6.644439190171331 15.018497960477921
As 15.043946005425777 17.870829299359528 14.529739277557324
As 9.845976959305705 11.42017728056293 13.558151805910146
As 10.70887930429198 14.708977856688296 13.536715787877577
As 8.878739929926395 9.348952117234564 14.661356191509444
As 13.255173566444295 13.787438799243324 16.605556072926852
As 14.579981620374074 10.096771215018071 15.858996684181625
As 12.278471410351818 10.541422914722004 15.118721794913002
As 10.74492001198277 17.199216471759364 13.758089822547909
As 16.81829041350366 15.650767415594595 15.76727325751072
As 10.801807620676676 8.840061497916533 16.211492874812098
As 9.613172899887912 13.088196630956743 15.401308215419586
As 17.56617738767231 17.24784009274936 17.474142528681224
As 11.428582607870757 12.104584090241142 16.847142839883794
As 15.27520034995844 12.515024980911196 15.907658831709862
As 15.179835845125673 16.450942157603297 17.47292716736849
As 14.667382252969166 12.683864850190618 18.318889496706927
As 17.991576725550438 14.809201764686911 17.8887009102044
As 15.874080288285247 14.730881921674724 19.17421223538305
