40
Energy = -178.67790589 eV
As 11.702797943571019 10.022154894061767 7.586872240170812
As 9.85511846117402 9.998360761873498 9.295025110384953
As 12.161270706723641 12.21384388888479 8.640066849651397
As 9.95617902123516 11.76010592650896 7.540427067194985
As 14.036309558634217 13.098994733727158 7.198078332047911
As 15.84713117882803 15.884396606549355 9.591257985237663
As 13.875931197591195 15.51935022686568 8.16800265827811
As 15.71000796074194 11.744503538094316 8.344362945356707
As 11.305428813618793 10.82678723582963 11.230153931037037
As 16.571328740400364 12.176221865816975 11.288638840659779
As 7.266425897767093 10.44907343600599 11.595745185995296
As 15.387071045996253 14.325980424610844 11.455208115051773
As 7.2356703787913474 12.790965627658839 11.881778764379952
As 9.376938179149061 10.691559407547565 12.811383295546024
As 14.979178739391816 17.870867167427452 10.847505037626282
As 14.44157027230142 11.29565555863354 10.407784245752161
As 12.458186005176639 17.61418394866861 10.846762988705045
As 12.902014199159833 14.082780121594814 11.795257214584739
As 12.192941526680611 8.470451054428807 11.446483342805301
As 14.650320425568436 9.03718640837171 11.554109313624881
As 11.911735814310314 12.085877731220739 14.819700786112312
As 12.068964981570113 15.406462818807519 9.820312461813879
As 14.82989440274144 17.240635607191734 13.308994023274753
As 9.154612673085545 13.085610705342653 13.256711730747776
As 16.44194312409476 15.383084417234071 13.387525441846604
As 12.543136135476614 16.249132456499765 13.047074117684328
As 9.796196386477835 8.907631307078464 14.544660015618456
As 16.427926338530998 11.598391554931375 13.880920140939022
As 11.922687541838194 7.814703799311716 13.881797686486092
As 14.20553661350145 10.596499147632825 13.442306315945453
As 13.248351735573562 14.142910889335568 15.328117769398297
As 15.721311117217905 13.674954334549463 15.108481263581456
As 10.3731917377052 9.868275331462034 16.80143358751852
As 10.691571762466372 15.363760140825043 18.628570960203678
As 10.027553156120444 12.371562108626433 16.50208406432064
As 13.8429886623726 8.815759565520754 15.145260268296298
As 11.367510301577582 12.981535213562674 18.536059773545094
As 12.736515413480433 10.530559846695144 16.577048895210503
As 12.880081292479689 16.03341102925322 18.430454666304833
As 13.642638027359832 13.721986632239766 17.773750037542296
