44
Energy = -196.82520485 eV
As 13.637723397562445 8.651201639521597 8.145722839378172
As 15.769689800700172 10.826938170491138 12.556311759383911
As 11.71253523719032 7.108791658817569 8.484917781816568
As 8.967942159009059 9.540137758098336 11.999787118860409
As 9.189063654352916 10.160503128162901 6.200534264344491
As 13.363704401428361 14.322054625023917 8.838510101655102
As 12.847415880398412 8.727919619719426 5.767320871466776
As 14.305885969932955 12.12252290876899 8.208850625959023
As 13.559214325633484 13.846930328865245 6.52713849791431
As 6.486187639271879 6.937264793951959 10.376992219809043
As 14.317845346420478 8.792133763106252 15.531041319699874
As 13.881285141155155 9.504060892658979 11.622511170794313
As 6.996041376276413 12.07989409642043 13.070866243650551
As 15.417558136485455 8.494652181441221 13.320636691654085
As 8.936515183432942 15.65386897594425 12.33958005930938
As 12.679876629495762 15.66927822753813 12.102414205785779
As 7.1965678110021685 8.069645588003269 14.163265582251988
As 10.777758193321064 13.23841551566669 14.306353359552745
As 8.07410726529891 13.49636694838781 8.1586787999528
As 10.450487192750565 7.770598661528446 10.592136629908852
As 10.890339679600775 13.660415877342196 6.658990224881836
As 8.343877140223913 10.320274763833416 14.31179881644894
As 12.290937591488108 10.713901296221882 8.748956631466443
As 8.734871149046885 6.212940609593892 9.69642388322962
As 8.553566355246248 11.947532132824087 11.12006051322675
As 8.645921552151538 12.727669919420435 5.939801495146384
As 6.564698792958161 8.90482260520312 11.891645289536724
As 11.915583374688625 10.124511805134299 12.999171956536234
As 10.812766065084535 8.054115301957394 15.022383469902575
As 7.060289744779457 11.466618526206487 9.152160698590096
As 14.739064505717574 12.300589813210868 14.264330812098724
As 8.77120600504253 9.753476152521161 8.609986906764956
As 11.518115809074583 12.404905295946335 12.047434732529522
As 10.608665361849065 13.307082517596347 9.161543511195392
As 10.941792510353448 15.71724704879851 13.930370516948877
As 9.36922323590453 6.977888176008889 13.374101723697619
As 11.537159910925261 11.030251676607351 6.378530332468139
As 7.374155258533138 7.702174883152982 8.17657622530229
As 8.38478106347342 13.913529041642043 14.060357025130713
As 12.84534081274024 6.983101805918417 14.614696634520504
As 12.94147329415793 10.827805423603898 15.13688501961014
As 13.767384433121808 13.381729936954924 12.153971233438583
As 10.69295756403345 15.459413148552345 10.531254054165542
As 10.729622362032872 7.707477560883785 6.302806559717894
