47
Energy = -211.70073316 eV
As 13.947301684887037 6.857052816757271 9.306832539017671
As 13.420366125095933 11.263531202936633 6.9486621409005105
As 10.738363775966604 8.6104988823566 7.736504165561921
As 10.855419592336903 7.901723352219192 11.401971799424238
As 8.951270728050345 9.38272201033396 9.314758346220975
As 10.037576183818747 12.025857749607926 7.0623197577516885
As 7.9066339355662345 10.820662494646948 7.562313515585859
As 11.44637147048441 6.739500464827997 9.283153233535183
As 7.368187797510423 7.474143847891379 9.594981254777842
As 7.05172149026633 11.577628237468858 11.70479383447642
As 7.418161694904985 14.029905301040676 11.904628578833705
As 8.367037007726902 13.05145164701625 8.601906629278863
As 8.62433474453364 8.750514680413042 15.053847534765522
As 8.764938680026836 6.432086107164857 11.423461347434051
As 10.30203348002884 10.414647974419935 15.734090881282242
As 7.085410979123624 8.094098390469785 11.961978430716261
As 9.20864429155919 12.540084724666357 10.929849280569622
As 11.60684985567764 10.807096953150717 8.641443186221512
As 12.947296520704697 15.119628423750706 9.185009588182874
As 9.8363955029828 16.459049980915218 11.761301901655735
As 11.821523632482354 18.097116615404268 9.336465534498343
As 10.575141096233544 15.85640999434987 9.415918570196267
As 7.455417690930732 12.588272160598324 13.948884816736212
As 13.549068231633068 13.012657959090216 10.45830994426476
As 11.73241592255115 15.204538713921764 12.776575561063442
As 13.160907412799169 17.26550896018047 12.60869993871919
As 13.989709414855373 17.094773082594948 10.22829621369664
As 11.294471040914814 15.865824383545355 15.148130068176803
As 10.084359132107409 13.90141994797046 16.079571496665967
As 11.193800993897028 18.606000781574426 11.749948070150845
As 9.936642358005924 12.340353156159942 14.13945790307053
As 13.181039125294511 12.7744571311161 14.210789189814296
As 12.028485962023385 9.656513296510923 14.116469773911948
As 14.936434372669718 12.633743015367818 8.371667946719386
As 14.117250181879156 9.261200049552833 9.916326445333526
As 12.246128323829662 7.315312675737094 14.919942615319101
As 15.358766335072016 14.009106860221756 13.942899245247126
As 14.129311570659883 10.617757033599641 15.125385157476643
As 15.585970531047487 14.103061311995745 11.44110334437728
As 15.410318050604507 10.202700233851067 8.030170790065311
As 12.574388446287925 14.041962511627121 16.289609085047683
As 14.673761364464308 10.65831770120602 12.683610478290147
As 16.63325878654635 12.243893156407387 12.766060360819962
As 14.48146933891219 6.467421793397061 11.743683938377078
As 15.79014025812785 8.644883103300591 11.660441732892572
As 9.818665670305224 6.793478467668047 14.912908886103509
As 12.160821587286986 6.195413160995642 12.66884757409995
