44
Energy = -196.68148022 eV
As 8.613933733749509 10.524856910363846 3.4231706960383517
As 6.311526375463995 6.650682629330022 3.211594160255031
As 3.3415960666414004 8.453893308917358 5.0098234782612
As 10.899621069652111 10.51591666341648 3.7588855611925482
As 5.166329311691979 10.084412895393447 4.6877990473488875
As 8.01670918451423 14.524459145470585 7.306937959092313
As 9.767651069663172 8.359068619301775 3.2717163854052465
As 11.61687898058308 6.505657805598722 5.816482885387541
As 12.933035286858713 11.49563628789719 7.788257231700963
As 5.054016776225159 4.717693019680987 4.150907912528473
As 7.620045337551276 12.186048273659825 6.650026676623161
As 5.870569261582244 13.878016016653307 6.286117739166053
As 8.293236055480229 5.497549712038847 4.244833980042104
As 13.701272744298764 9.414711426624722 6.667821469494731
As 5.693521253560692 7.745050438308111 5.391392159973667
As 3.8147347921558374 10.133384099126943 6.786626418765499
As 9.268355301643988 7.398396510227966 5.5735869908600595
As 11.315658858951767 10.065805236604318 6.518859205655451
As 9.814828845769778 3.0436612821699454 9.649672980111054
As 3.9250558677306016 7.000735857411492 9.246101348265295
As 11.255899442940956 4.361485757485058 7.104476354093618
As 6.746941188052811 4.174044318910986 5.647876952171923
As 12.005486006005986 7.982301626172914 7.796630079785312
As 5.718262503515785 5.275440575239996 8.72989303103111
As 5.360425899367384 8.858278069179931 8.321910048695042
As 9.04007737402131 4.836165847566316 8.121850183964563
As 6.405321149365549 13.155858783948128 8.576229954006195
As 7.260771247871269 6.82158473912136 10.01995308673301
As 12.325700475031024 11.42335437867684 10.224923304829161
As 10.025731340018652 11.83116239031329 9.348980930083098
As 10.644265903309899 9.60709553967036 10.352196969824666
As 6.301202106737558 4.8661887095627145 11.161022742525732
As 11.06725804781502 5.214148318386261 9.4531229534042
As 7.445521007433403 10.119788935446973 10.873542759848997
As 4.956913476237978 10.10999194237573 10.481661589625586
As 5.209240860928344 7.7444320545409875 11.308984088616578
As 8.23158201218622 3.334155363502577 11.586318235705836
As 10.364508458241897 6.87610088946844 12.592542191504148
As 8.640941916989359 12.298585586991736 11.420568994235031
As 7.94606328639627 7.227799609891462 13.036803499389318
As 10.081633516122574 10.653537537492024 12.650186005064327
As 10.001873993350952 4.468866539634662 12.991195811090853
As 7.843440298911667 9.743446401036083 13.316097590760787
As 9.396168347325093 6.134355979135139 14.756224388789125
