48
Energy = -215.22049945 eV
As 12.826078086863344 13.217871824030764 8.44697910935954
As 12.829830498661423 15.583069731863556 7.674642469540655
As 15.0816008933057 12.291283443322962 7.9515527385418014
As 9.953342504602238 12.171289266553515 8.310533503220453
As 16.47740012925984 14.22823537186475 8.536792665115438
As 7.590173205937808 11.681693382960862 8.929546169081712
As 14.670589394237501 9.562439881097902 11.178805834192383
As 14.752412917994642 15.875340935706495 9.375456332383628
As 11.361801705113034 15.91017276294474 9.709174261698076
As 11.458816176339985 10.331023559539968 9.309530290133056
As 13.18853255467014 14.429894817291164 10.679949379155275
As 9.653354006343205 8.864955043898686 10.282087549127246
As 9.487409848885664 14.086558106615435 9.840807035204477
As 8.516620622105643 10.925768080222957 10.97914507616267
As 14.92539578458695 11.927927227130498 10.436274802453726
As 17.217365662824204 12.815948195446097 10.789473801277175
As 15.566426484771448 10.644181131775927 13.223705800445178
As 11.779350908165057 17.219356578783163 12.970351260263064
As 14.183534868054759 17.233355608996508 12.764952395979991
As 11.05978506972042 8.625448132667783 12.33156921518391
As 12.382377454068147 10.689592209644111 11.689093378718432
As 17.87177621643323 10.791767934733592 12.608890934664938
As 10.178544983405956 12.889615005595248 11.963112623745078
As 16.195785460815973 14.651379707541851 12.125688621810474
As 12.45142593717642 8.652676637113812 17.357674561599666
As 18.41444598720301 11.815463873994222 14.797869171488095
As 14.878470385578442 13.472967375222675 13.917624689583928
As 11.20505107559496 14.829956473761028 13.487457382690886
As 18.15549313700136 15.749686834651914 13.18257276452548
As 7.419763152554073 10.582511803006033 13.181784953272247
As 11.409454728573484 17.45525984144875 15.46471753764609
As 14.714910089176845 15.915363881446629 14.717728862699218
As 13.082658956228313 9.271869058284489 15.08620304831963
As 8.03758884854571 12.99290240266106 13.425042956265784
As 9.526081928446551 15.859504354245457 14.987072929504524
As 9.370824026358703 9.215459174748926 14.11742439957693
As 19.434349681962505 14.100005386364128 14.596390348402092
As 10.82489761195576 10.975681906368422 15.102276034601696
As 17.052177639691983 16.60667593725099 15.279482468901856
As 16.287223864984885 12.705427931387208 15.808379346909476
As 14.232898578086628 10.381689935766778 16.93971930651107
As 12.174892974800123 13.714388304485434 15.996292871891862
As 9.88860662714169 14.224567456703051 16.849202225545206
As 13.074870718633342 15.984363741159987 16.62377895337502
As 12.634757499614414 12.103388799369739 17.933178076943392
As 17.859246070443195 14.574516302180559 16.52072650610916
As 8.687582195509021 12.355104781514683 15.710609997430657
As 10.715563135941926 10.553940155003955 17.550215647115945
