47
Energy = -211.01099808 eV
As 13.659466145136491 14.784413777045877 7.563240774645894
As 12.090469412340612 12.935916938478218 7.481027599308178
As 10.092198418500358 14.25428515550731 8.162694377439767
As 10.77686415700851 16.16777891644832 9.616416800840364
As 10.0318327506961 10.499728223668452 9.090770543257573
As 12.17830785677082 11.639922205743316 9.659202390460615
As 13.616876021527947 9.614082331469692 9.514738420059142
As 13.265375579175254 16.05447537104351 9.60198111608113
As 15.542470502380848 13.041955124414923 9.887044254669776
As 9.22762361283222 12.779184296071254 9.986448366152706
As 19.254653683285333 13.342604727221529 11.270784079818476
As 14.969833416533 10.959210721027329 11.153758767618658
As 10.038056377206441 15.662707315779011 11.98088293523395
As 9.963054226828444 9.029956903702091 10.996339733273686
As 10.523320044632259 13.246620447382519 12.070334661076245
As 12.335037733451083 8.536417036209347 11.416050807466588
As 15.983208988247444 15.743155325745139 11.941362564817831
As 12.491537411139126 10.346477636033168 13.195809333736698
As 17.198524516650046 9.794085462095651 11.33604852988726
As 6.90842624657092 13.672737199041322 10.344903451087662
As 13.946804169364963 14.364281426668198 11.326101320588926
As 16.90024447221866 13.433992907917155 11.97143631255577
As 19.193785949051797 11.029026300238947 10.424400268768345
As 19.91494326511435 11.526682717299037 12.80205413222879
As 13.272494489386297 16.431231561805426 14.026637182510006
As 7.562740912096247 15.698725051998284 11.61201658293658
As 6.739482730187505 13.702971213994703 12.812072713676715
As 15.766101922235517 16.125573661255522 14.424421225718852
As 17.841246611054867 10.384286348884176 13.68632670988275
As 13.184864149968536 14.123071516217022 14.7929191224749
As 13.136869175436665 8.905372926184768 15.145054649610083
As 10.731980488354402 9.213622450010304 14.58524968510094
As 8.671370814371683 12.196559863899315 13.32610024771568
As 15.982822446801464 11.947634593045272 14.352516792676877
As 16.992839664174525 14.036939976059266 15.299435116158723
As 10.290193663911582 16.625225946004743 15.957416582930811
As 12.516903392620794 17.641962927984338 16.061327139080777
As 13.982103148474593 16.790918781246695 17.79404977670923
As 13.267472742701539 11.191088595292344 16.08663299273823
As 8.964978655875443 12.825788807099201 15.733257548328327
As 16.0741719547582 13.402727012601842 17.564302322038976
As 9.811217623116747 10.621433017100456 16.47509342204066
As 15.678096857509399 11.072559225962037 16.77101632405816
As 10.945470703956746 14.341829113069437 16.029227450697828
As 13.87055106290754 14.504210817283012 17.18696766015828
As 11.736597215788855 11.074392520087278 18.037826388780235
As 11.74063910767802 13.546300096694429 18.310425312931986
