43
Energy = -192.2371037 eV
As 13.635236526455321 12.246270906632992 8.187259957464306
As 15.708604065153034 11.12772561302353 9.043667364915258
As 14.077651425648353 14.690339743935322 8.522895632351014
As 9.668478949719931 11.702848620840978 9.690382311613888
As 12.136688658220939 11.823383206721665 10.23631767813906
As 13.994574395399923 8.294426367672463 10.776141066458017
As 10.835105364853156 17.00840309836913 10.162354027733139
As 8.613894132370808 15.846759860978294 9.973791840205134
As 17.36352091329641 12.905552886314789 9.669969689055252
As 12.024786562446495 14.664823409816071 10.124832820215607
As 14.947504294544947 13.591151393791725 12.022628507000102
As 9.433186371741687 9.37987388082079 10.717202420915177
As 11.78882583152823 9.211519522695978 11.49909537745944
As 15.89711618507532 14.870907751537798 10.152430107921864
As 7.885157159238127 16.564548085161316 12.295794457364423
As 14.712756182745075 7.408603418171916 12.919099779411088
As 14.779786129598788 10.672625850973256 11.305244063497993
As 9.534420642278295 13.806484869278417 11.17552641694771
As 18.30710373433402 11.979198310544016 11.879222799310215
As 10.015915768874935 17.877520006277738 12.360043556425772
As 13.522210914877734 16.89421458799775 13.194733578728712
As 12.21836596284197 11.030103761955345 13.236301948619138
As 11.486784851437122 17.660113266268922 14.427507809776145
As 12.780717269590788 14.618228432119118 12.48505200249769
As 10.947825141453695 7.323672447480372 12.880107500238292
As 16.90335673394502 9.877953591067701 12.303989583798034
As 7.940120790201295 14.148383618863946 13.085614257573281
As 16.46564332392909 14.911664117218693 13.474108791788659
As 17.809690355597063 12.9400319189972 14.202905325046414
As 9.769413259091618 11.267653302894601 13.576123236513057
As 13.3749279979212 12.80987818709071 15.27150960496837
As 8.987666311541593 8.905819336404464 13.18876844294644
As 12.815297701404164 7.330421590072006 14.523105439728818
As 15.074905743008411 16.27122451602631 15.072509853160419
As 12.555512199779738 9.671625330047709 15.322597111565287
As 14.691628962207817 10.789297168749666 16.01769818332341
As 16.816339275263577 10.653482052499728 14.686460496407962
As 10.094166836905337 14.034770653784108 14.347034739892488
As 10.2435510798864 16.011189616804177 15.847048864724018
As 14.22687866096725 14.634568446619548 16.73850110366182
As 11.706041589713623 12.457262708507356 17.116082943746225
As 9.506087236564923 12.230094961257711 15.939891165802313
As 11.852954423301947 15.005779498670336 17.498848056045066
