43
Energy = -190.98167716 eV
As 9.91931753570001 9.307512931506032 7.584643778550221
As 11.08373254720637 11.836117351167655 7.939721369626596
As 14.523080634555662 14.193659596793736 8.198332033688677
As 8.349233753571665 9.673875077917028 9.275202107863947
As 12.213634628923899 9.664299848285271 8.47619335891163
As 12.38258304906208 13.93516580812845 7.3528829577728745
As 14.904516080023685 11.96522191149038 9.14317116792689
As 8.611456388589707 13.927262984550019 9.742175109173544
As 14.23747427637116 15.530898848274562 10.74444613194613
As 11.678363724845822 9.005367442533625 10.827222545801265
As 9.64109590057891 10.350902370510513 11.23789427141999
As 16.631577308083543 16.105875724174922 11.194292074461062
As 16.25443881296931 12.067496306711336 11.254028565443575
As 11.189277673976793 15.671765774917278 11.239339391141613
As 8.773566733009751 15.917467143889292 11.264122938417248
As 17.64640112103023 13.966170676111268 11.986448104803776
As 10.630564805461944 12.484384956438166 10.2972678026629
As 11.747708101014512 17.35719882502402 12.921538952264507
As 13.93818493110614 12.947107101706298 11.236688697535122
As 13.139340802610883 10.455205188391991 12.31002929810892
As 13.682696144713962 15.779114403949315 13.201525868522964
As 14.357763249453171 13.113031681256812 14.231464737634662
As 6.834747920596358 12.422004067823405 10.513759133163813
As 15.99111086006873 16.65166778343957 13.587680382314025
As 10.91314873197637 13.202282609353654 13.462135812224151
As 8.215190240283844 15.653663886738824 13.716496465465468
As 10.304974748462888 16.55240293741826 14.842664814817779
As 16.624963804220705 14.274408014707927 14.286402198694232
As 11.369692184244185 10.760281926817704 14.010078807015425
As 14.400261038677172 9.106581542612883 14.091704771254186
As 19.111398058211634 10.785856568312036 16.200304435792848
As 6.846813885244723 12.112483193129675 12.788226811287887
As 8.508190734141653 13.249725018665597 14.241886225979574
As 15.260593518788003 11.026710537783062 15.391044907919776
As 11.138221481369754 14.331904476112866 15.666281080803437
As 13.586992216723681 14.6289995973043 16.112635684355276
As 13.000984150298565 10.137818147668401 15.877763745052889
As 20.612877736547585 11.993409234176944 17.734603743718495
As 18.357526277406752 12.868337073003794 17.262800408814524
As 13.3227751638043 13.020544667003076 18.041896359213723
As 18.63593874090796 10.824183188963138 18.61051914248872
As 13.407003747108229 14.806140698446566 19.774812475438484
As 15.305073740695757 13.619980059429606 19.412158513145755
