43
Energy = -188.78390016 eV
As 9.944290532745619 14.473694121734896 22.305135630040063
As 18.860452231495586 21.262441028355294 21.272959391244378
As 10.442852289474356 14.628923180858909 12.609284716553683
As 12.046057770525186 15.614692035250217 21.502113660900072
As 0.3850169146532429 17.05778508431143 14.93192374523708
As 11.793467952954362 12.24477438900509 20.019278628514048
As 21.995115928030135 17.99143693605616 13.583355350386777
As 10.458174877813462 17.541950480559535 21.24521230536377
As 8.569566894623174 16.220267284546306 21.255926815100317
As 20.81400964974546 15.341926037614424 15.848759470308913
As 1.4636398756358424 19.362526809042983 15.228936638881219
As 23.050533795324572 20.82114967169849 15.740480117999374
As 15.177350337908772 17.918367139292624 11.979680031486724
As 16.07673398566212 16.514863349069522 15.5922982592203
As -0.04121306213665343 20.13076705390081 13.386069176270468
As 17.034121134346478 15.87136425919835 20.212858643175554
As 11.999044836450075 16.241892163054693 11.455255863197168
As 17.61619161754416 18.317034716849328 19.84016508437798
As 10.916077764264097 14.767805599240647 15.036110617643732
As 15.877256300571977 18.640302377656003 14.284713970445143
As 15.123982967768978 18.039479591389718 17.390985750318727
As 9.701718181534655 16.62435910951636 13.912617499363575
As 11.931898373979426 17.783445744550516 13.412944015061129
As 18.12682981666575 17.611209045858807 14.728617229796715
As 13.603991870619902 15.038846050566168 18.090621632342184
As 15.569084932463365 15.444779668237947 9.766575644396228
As 19.095711803388724 19.08483685234559 21.72492810702864
As -2.16150181157475 12.156985599320105 15.500617882788227
As 21.943532280871857 13.918632586573318 14.166508004073993
As 11.477783376943012 14.5986784612462 19.33847655793135
As 21.33639145312548 18.881258173219468 15.818586068902539
As 19.442960276550707 17.43377471073273 18.388925490650482
As 22.40129647472318 16.96170453207227 16.96106228578043
As 12.739417586899007 17.165107694190006 17.084969179464704
As 13.04161744979824 16.07862058953527 14.87093244815984
As 18.155951684727775 15.263485517766672 18.03786402641043
As 18.918004033150023 19.08843347159917 16.59431796046766
As 10.015016422036089 12.165807138724052 21.46380437666399
As 21.41508695114772 13.639538518729838 17.526704939635838
As 19.74915730742617 13.882478615537185 19.2286013145667
As 14.3771732359783 15.558588847694365 11.921264248906581
As 14.799326404963027 16.72123254836496 19.513847092362575
As 16.99240582425709 17.085875723004055 10.559843994811695
