47
Energy = -210.27640991 eV
As 14.316045723007003 10.311829353847221 8.286021230635477
As 13.610950478472658 13.405539786790834 18.119912040955032
As 16.53983081783278 11.281988781825994 10.680200219985057
As 11.760720818494889 18.872169756577723 13.892903497953153
As 13.31471936009184 14.967834933377842 16.18739599211524
As 16.35700152693661 12.87588162665087 16.152360510726748
As 9.676368633728256 14.121090289435973 11.134064589375866
As 14.294956696081071 7.943685645989992 10.825071823617078
As 17.117424759782377 13.664823947926863 11.004427333191952
As 12.340809750669253 13.11787769262408 9.411730320644617
As 13.077123662597549 10.16949755721707 15.800879972926076
As 15.500605662036374 11.026702698350134 12.966435652964636
As 14.249979393892001 12.798281408209819 7.893996488124514
As 7.280636019664757 14.67247334643932 11.33693337425247
As 11.027289421497784 10.670647084085084 17.84532127981796
As 11.908960588598802 12.525405596580285 7.016303621665212
As 12.044608225144774 11.759976071169856 14.12965045987472
As 11.138056951775711 13.079339091289626 17.796516561425012
As 17.44023861552847 11.426303940548342 14.435382648770878
As 14.73278061339419 11.334665020400285 17.24019881221871
As 11.322887469541547 9.1792005317423 9.226699957145708
As 15.148127545497124 14.399637952134634 14.64565713911248
As 9.879587812958082 16.09400929782462 9.346875112779054
As 13.503399852137578 17.326103087071726 13.855798223358747
As 7.930419589619568 11.199236745016064 13.485041388118052
As 9.370853065128188 10.17610016596301 16.209453702848286
As 6.301861790858524 12.457304378375119 12.069472410094633
As 7.547392727945528 11.241460744845254 10.273164321352832
As 13.084723223468249 10.13939156861162 10.757670301265842
As 18.921583001489882 11.969847800691657 11.002183563170979
As 12.180127695159465 15.504556973235339 8.664568769485774
As 10.35590380906516 7.462696187687431 10.900023793670684
As 11.2874608056839 8.958601082232374 12.561835893663668
As 10.187257877461738 17.317834754407702 12.826471616663497
As 18.45792348177922 13.238548438545065 13.08309722311851
As 12.328385484907017 10.034450476881835 6.939614456168568
As 12.38526902810248 6.927449403736858 9.523370377838956
As 8.117296965592839 13.537277291236297 9.275608157037992
As 12.079745924595668 15.612352773539111 12.728364798250091
As 14.835870854113693 8.994882547417168 14.274141736897466
As 9.601539621505344 11.402289250511577 11.676927614263338
As 13.126441644187565 16.722166862361036 10.694651648349387
As 13.302013332120202 7.497417306974078 13.043151038444028
As 11.12579929571637 13.724850324022947 15.324932834692179
As 10.964598824273079 18.016994698754743 10.534597471579357
As 8.646305285421231 12.334374712706312 15.560844133329935
As 13.889773070820658 12.979175193815303 12.992608603549455
