47
Energy = -209.61397336 eV
As 13.249228896957739 12.518155777404642 6.761103252215993
As 11.48963127004503 11.16874137887179 7.679957454472503
As 15.226572297784204 12.331385891284652 8.151815385952853
As 14.894348014857918 10.349867220694287 9.575018708952223
As 12.548424783917921 9.528284133282122 9.230807315783245
As 13.192976313166204 15.73835866708326 8.823725032715474
As 10.764908190075221 12.376271194796848 9.833359860561831
As 14.623504200673983 17.522741195532916 9.84064026704727
As 16.423349456619697 15.754262741218389 9.51623655658384
As 9.456046619616679 14.538343288940721 9.924398889871387
As 11.194073093473436 9.504804160665062 11.425004791134295
As 9.208185728869848 10.484692522099843 10.276802637773983
As 11.932996854779372 11.64589330677048 12.49547035100483
As 11.767402664027758 15.101876873784475 10.774898681667398
As 14.714343617077088 14.039570586128047 9.950971453414184
As 15.867840635586983 11.391080831917986 11.604258657243037
As 18.149313559716553 15.322333521957589 11.351910727407363
As 13.882795389187413 17.796799168394113 12.231437966856827
As 11.484879903059202 17.099941868587468 12.246694952002004
As 17.378956168754993 13.424898284066844 12.782647824768796
As 14.313984043140861 10.56022942852283 13.366536546859525
As 9.343339980000449 13.658744095932306 12.257084305286249
As 7.788183459907527 11.758059143033947 11.979325540244101
As 15.07161248717549 15.73752515041068 13.087493008324888
As 5.859482723763814 13.23520893423684 13.89767494709698
As 16.236394815707584 9.25395478113165 14.664184448980912
As 10.831633375460452 11.20531480314632 14.704981013650992
As 7.473864294507438 15.017746097708915 13.51408625707375
As 17.29055902342015 16.92711026575251 13.080939045419099
As 10.665490489048727 13.71152698426334 15.18036080376457
As 12.242579360591925 15.283212277850454 13.862837405828442
As 15.39328024221286 6.9723714164106445 14.744532408696854
As 18.082504387117588 15.064380020385132 14.570567036863658
As 8.482900229735531 10.666159532655138 14.10024754977896
As 12.923637060507902 7.489808250813034 14.047210959580578
As 7.221439343197281 12.172814875856341 15.6948908429455
As 14.403965625458731 12.774613820702262 14.525920438934982
As 15.213200747290406 8.457507336868154 16.7078055102793
As 8.33820022268348 14.408766211655287 15.760333502875124
As 15.029446709665768 16.64362488495818 15.436260123259425
As 12.702020546035927 8.961918410694011 16.07042996376573
As 12.04701163147327 14.198219865736183 17.238368742684067
As 11.769138501402038 6.765110223635106 15.999583205752504
As 16.562300156611236 15.081235929104968 16.57393279386185
As 12.614957457826524 16.35090704791957 16.087135355656557
As 15.972449139973453 12.642394696874142 16.43271547870591
As 13.536968390474057 12.223555002898403 16.79772409903907
