46
Energy = -206.32112949 eV
As 11.19619377208908 11.021128131803666 4.2327605873273555
As 10.427431677644442 8.187819265707086 5.511090466473818
As 8.32068193486943 13.05303968239035 6.034194074707075
As 8.513300551654005 9.516548924577686 6.3414085356950975
As 12.725706715780833 8.37537357640009 6.469575011894115
As 13.351096211268214 10.550367598860506 5.342050177506042
As 10.802116968999771 12.85321789386456 5.7689051867623204
As 8.02908402156536 8.655477955036186 8.657838147513441
As 10.406367660672801 5.808410517063688 6.138401994915146
As 8.312703887136548 15.108792502043325 7.449765457201104
As 6.202743187235685 12.13932990717298 8.805586157881452
As 14.679219527345559 10.313968935477394 8.735726231791192
As 12.467847818649972 9.102344189505107 8.831573849172413
As 13.813115383066869 7.152632719144158 9.68944794173053
As 5.730443462690349 9.655178028886104 8.67550868409352
As 8.519497412404109 4.9444389290572435 7.100916742145549
As 9.588045525255623 11.484101971791707 7.489638017030304
As 13.902918109304874 12.148040170716095 7.2122633539402
As 12.250997735849197 5.2745919162437485 9.264783559755019
As 10.557158876978008 16.166365468743027 7.844699406295118
As 6.841190052614242 6.587919588798544 7.881419367457109
As 10.468608278533562 6.762651492822526 10.14258704874014
As 8.22269773863429 12.10171440717877 10.220594079522892
As 5.336056026233683 9.744590614897435 11.163849960213705
As 10.192731404301735 15.79824854402712 10.335220506934391
As 14.129052115692046 12.061817082857717 10.484172703205
As 12.20038088289501 14.934781675823361 9.19438914063665
As 6.819535643475184 5.146319304656312 9.914784088075427
As 8.014183722497393 14.57958429394542 9.86904261060455
As 5.957354362084257 12.183548939465389 11.303394328495756
As 7.40095006828421 8.630391379386896 12.0039747563856
As 12.143355890304301 12.459236911372875 8.996349537695071
As 9.171695468711654 4.67140721651409 10.641903250798023
As 9.97665182205977 10.144478416777599 13.737554943380209
As 6.183513119992349 6.440353842861452 11.979097631509402
As 8.333986227365854 9.868205599775127 15.59405450269138
As 12.448950091121791 6.1877367440812066 11.549016388057812
As 10.282085298383203 12.459795589735077 14.539066617644941
As 12.626064979255469 10.729608817817219 11.981154426101405
As 12.212138198206786 12.980183121679268 12.951702912439528
As 6.419089479781003 8.921975901373099 14.286457263604644
As 8.13235391744471 5.100847611750277 12.914461232518388
As 11.648668078833346 10.63026112070553 15.522706249561837
As 9.594619335010227 6.8397608494674005 13.765873635943175
As 7.995507404656516 7.403603209116613 15.540645835527874
As 13.680020544302678 11.347920029764385 14.11850398955939
