45
Energy = -201.03058747 eV
As 13.926678069806492 11.084972843698054 9.807304239155785
As 8.713658898346651 15.863546023677939 9.19080195977554
As 14.221695348725248 8.729664220789344 10.678530107566166
As 14.203716436277075 16.17785617987292 9.070460721634687
As 16.27470390002463 11.304183133641788 9.027642819275716
As 11.416509952272188 15.74037033608782 8.5994544116259
As 12.383615074722357 17.484335986029883 10.103168111331158
As 9.00564233565985 13.54150803802608 9.95877356232062
As 12.158013229599762 8.859377047548538 12.099293334374046
As 9.23576864535914 17.114713029603 11.220813161063987
As 16.694701680209988 13.707486233540395 9.678646572598092
As 15.681555235529478 9.593251329109114 12.525736550113471
As 14.483480903039775 11.807318187426475 12.154032272976591
As 14.62412309462127 14.574761048701072 10.830718915337458
As 17.409175450741472 9.824136681058345 10.742532073821524
As 10.324485026165938 7.805295092837428 11.06507713543121
As 11.451254630332464 13.887341954849642 10.297497915650426
As 8.884458109258157 13.731386187859433 12.462471747350632
As 11.386944979642523 16.010632445296842 11.907851976100392
As 17.712162011110145 13.28863857444727 11.86943827847265
As 19.2237332353911 11.395912131973885 11.456090440585406
As 7.699150471257934 15.901141938494554 12.726034464058667
As 12.111729830968505 11.321702159217335 12.975515167654004
As 11.128910718583056 17.36458700201895 14.211700528993774
As 19.679503089532755 10.718560180675933 13.79300029696153
As 9.304977281639049 10.443140767750586 13.520174763948347
As 8.966695815649002 16.37554804912763 14.848631362250078
As 15.846968657303417 15.633264000859164 12.94532750566654
As 8.868654162935153 8.021351623286359 12.993239224822942
As 12.567930316378218 7.922588038687077 14.410652065088671
As 16.144970256528655 13.35441193675862 13.879753214330858
As 7.332239276727097 12.070250539632587 13.508158509468721
As 12.56936084488138 13.839599599862526 14.521101533731384
As 18.36766779877025 15.552801784690786 12.724758193266306
As 12.531365131505066 16.03001675082985 15.812905548823739
As 10.220926534465042 7.63328696037829 15.088566929208106
As 13.162608089407383 10.279389405825938 15.055788903454285
As 18.204283272995365 14.48156924153047 14.986065559126365
As 19.56499253527874 12.423192017785857 15.314078271230482
As 9.312465208374155 9.986374899929524 15.933262920024648
As 9.933065371057543 14.113468543976628 15.20028306561878
As 12.600087227853006 12.961217752082343 16.87917848064347
As 8.060568071911106 12.675011701100512 15.773073644922968
As 10.935308270973092 14.800411558362669 17.36180670648854
As 11.548350078480475 10.649281401351711 16.86946139394561
