43
Energy = -190.29088002 eV
As 11.448205530672064 10.073298926309278 7.159189140829942
As 16.506576414781588 11.422001502175394 8.209680871008631
As 13.131951969172126 11.826216582230515 6.679112348951813
As 11.656822166932491 14.267891613122838 8.660625647258193
As 13.39884976388427 8.628461347091607 7.756685211609705
As 11.29430284576094 10.846504930337941 9.895145062688501
As 15.081603144110414 10.184007565786962 6.730971875965025
As 9.7191318218588 12.926245009253215 9.455294858309811
As 11.965867745014195 16.487948842344185 9.842437068143056
As 13.162537426010308 12.30283501095664 9.137871587973008
As 15.42817459235618 11.878557185127102 10.287343837091237
As 12.88026329117725 8.748845310287923 10.131017705368413
As 14.254753620271073 17.30905676737401 9.76790221768372
As 8.694583756056645 13.402111566341606 11.672869077216937
As 13.423302722732494 16.162775708742583 11.773857928993278
As 14.815861283092696 9.644597991305256 11.305661099733122
As 18.880216114511043 15.54986133651822 15.744730070537388
As 10.069359847699298 15.419010546416013 12.22320206457839
As 17.22777049356787 16.00163557781224 13.92271584772453
As 12.053764005391804 12.10319556286467 12.164549293483649
As 9.86344462413703 11.6530480376403 13.244457709472819
As 11.91944328337757 8.476679523492862 13.34967859478954
As 13.475012581401074 10.454182830734267 13.312472236049306
As 18.076771176844556 13.70034471992911 14.34727809182856
As 13.592740504104599 7.151364277054111 14.59326056577345
As 10.05888258759301 9.194539894726178 14.83515664481567
As 17.48729042922527 13.775166370928519 16.782940348372765
As 11.700988463520634 14.429051964177852 13.983706487279283
As 8.617497892939623 16.832726930148326 13.559377819221522
As 12.625311167753477 18.197560951979145 13.10891475485673
As 9.658420616779258 13.488735034603714 15.002291274891837
As 14.948101255237212 15.376527243912214 14.685718450453846
As 13.00622738545222 12.0778062526816 16.109251808056936
As 14.317823268111315 8.132766110245178 16.51967724070935
As 15.496798005010968 15.228395795325737 17.082430067370126
As 10.377856333485852 18.135750335693285 14.385700850040365
As 11.717644206355807 16.24706687752873 15.712975303338895
As 10.604330525508809 9.599840997974436 17.060418928459974
As 13.79931735698984 17.542335346023016 15.239713579527276
As 10.78531929863174 12.63213742679399 17.08677723550957
As 12.999346799436198 9.957141406397184 17.522237286610675
As 13.88495766228576 13.539843158448491 17.964544848216725
As 11.79013622425433 14.889489834652753 17.887717262695446
