49
Energy = -219.12793427 eV
As 13.271273516646946 11.829516747831107 7.922311317240781
As 12.996896610799867 15.01354742127216 6.160145044073438
As 14.655751717523893 13.944615969892027 7.664313948239725
As 10.780569841423434 14.511706884258924 7.287874632716199
As 16.86349234556407 12.987558843036787 9.751034738891843
As 11.050352073496542 12.399213335900317 8.58527274747214
As 14.355504602000757 16.46685858775979 7.720573250092382
As 13.886299141901935 10.455305815753393 9.969399360196936
As 13.147466328607859 13.901107890545386 10.714449133336101
As 16.70065631936144 15.474443268762261 10.171636669442396
As 18.829003913394324 12.102463752583587 11.11227533377628
As 15.249757567226204 12.02941120119224 11.401719491866714
As 11.492594713299608 15.36526244342078 9.454314598079996
As 10.913474099955073 8.876503427537761 12.20884151167488
As 9.62966154310535 11.822962743156559 11.478912092695449
As 12.61625845003967 17.543780460459583 9.07288068032061
As 12.12485199282361 11.029682381647142 11.724264659468004
As 18.60134718064181 15.72466148960677 11.739227537686409
As 14.785656532381708 15.500357399861798 11.78217093555901
As 19.099562568924714 13.69225346326462 13.015506105884759
As 9.193091950955782 10.296238210895925 13.420555805456774
As 9.71082838617384 15.964092744736872 11.034990936267178
As 9.705285563882015 14.02389356403572 12.667821771338247
As 17.169400753818795 10.641103593020269 12.368062143216754
As 13.515814946889474 17.62039817510092 11.405128572362454
As 12.167525790707652 14.299460130490159 13.024043130132444
As 17.841251221568918 17.266309476949264 13.577308500569274
As 11.476696250835596 16.70532017597423 12.678179562793087
As 17.596948938226305 12.130416830911123 14.32722740250639
As 15.721078390423157 16.3893430609438 14.530684732086542
As 15.261835938107149 12.762968357915707 14.93965344077859
As 10.494671304041605 11.364287442432623 15.302509511072778
As 13.134120276173059 9.095146260535856 13.293067231441588
As 8.732750804188722 13.125409022508554 15.597872120911457
As 17.698262597980303 15.67203013539182 15.484744880728
As 12.900799818854775 9.504282059296672 15.577701866486636
As 15.25337928266651 10.309941682651028 15.667159952154979
As 12.507075712452423 13.28062217796005 16.619504778442412
As 10.390626338689472 14.471369637855133 17.251766854995697
As 8.725728356032201 11.107903774797371 17.069366117118495
As 14.064077396649282 14.91488782780171 17.611227467867156
As 15.994246129285052 13.38298760043639 17.272324354770827
As 12.728111714735999 11.40611581262777 18.22808959021224
As 15.16846400887158 11.094929317006326 18.05946706188393
As 9.231048702930211 12.925378307058907 18.754636173719767
As 11.190533497648783 15.321674830861758 19.886071218288055
As 13.607524624017254 14.751935364358841 20.034904774491917
As 13.042146124104141 12.346597899957926 20.469539979471637
As 10.671668572775754 13.099167450549958 20.854690732524883
