41
Energy = -182.96699288 eV
As 7.837716249052514 11.538126248383673 14.423050556607576
As 9.412767823246073 14.836895434930108 16.263123055481103
As 7.825663593918828 13.463158140376965 12.868946172755985
As 8.79204407856337 12.50072137923732 16.522137373786247
As 9.476527390564973 14.946296567500099 13.890011966747988
As 9.63679484188925 8.97161426314135 15.519003035655123
As 8.891125322442512 16.842464745859395 12.293847844476678
As 12.98840755899732 8.628124607138272 17.865081715905333
As 11.960522099066786 7.999750620936064 15.754514673601795
As 9.564339647135613 8.052637789276368 13.157009898182146
As 9.527593708075402 13.057065840410209 11.094126231943948
As 12.928735222300762 16.064959412807706 14.402297747734533
As 10.283705814720967 11.279193214442717 14.893905342179721
As 9.053083575099961 15.438213663617434 10.229467155301647
As 11.736876836845225 14.63980847702958 12.754170036010018
As 9.761986578255566 10.114084708058767 11.733075514189427
As 13.240547180522512 10.10905144279745 15.934256288074305
As 14.9172526145057 14.611680569432759 14.909868524050932
As 11.099401162735914 16.51416959057167 11.173009784128196
As 7.975393433967354 11.280005324830956 10.186467967944298
As 15.038601788998017 8.779448517462047 11.001921565257575
As 16.324769204155693 12.533253217213094 10.326892686229346
As 14.24023727710486 9.486122031565 8.746713662358259
As 16.81826473971597 10.453753372156235 11.540953002640514
As 15.522967958181036 11.578834381019783 8.171967012944823
As 13.304764021228326 9.720869005388456 12.550115469863318
As 13.045975327196151 13.262926868980617 5.613605752418854
As 16.25158739256966 11.213269767581425 13.865601975055782
As 14.933127380167981 9.11725458307297 14.356383947558692
As 11.897913177597244 7.649195525039173 12.281221575663029
As 11.15281050400315 10.847342143543958 7.430863964227182
As 15.350071508854173 15.674166227735773 11.218501192323814
As 12.246837079696483 10.605577924680153 9.667094137441154
As 11.503489358120701 13.326803392197117 7.5163095485710425
As 14.170850424880749 13.485802014908632 11.240749190702196
As 10.83018610258714 8.565924320415904 10.116893228135835
As 14.214430776250106 12.657221017479442 13.576152720436838
As 16.33737672356638 16.04635199283123 13.4294226886948
As 13.970462447344875 13.573941734545734 7.827670266031052
As 8.827045828798108 10.365879936141175 8.120527910885757
As 14.264944518175836 17.325238256364667 12.690265888902685
