45
Energy = -199.8941368 eV
As 10.385145600511203 13.593974557640928 8.603397430897333
As 11.504469226378994 11.585296903531603 9.460894097731636
As 12.703864918109236 16.8141840813087 8.619611516698967
As 17.35599668332194 12.170909186662415 10.680450805353628
As 17.937639029017255 9.799841141092486 10.311227438228956
As 13.628901762886755 18.475504388512597 9.880384947850049
As 14.145550818170433 14.844088599666666 8.759316733428154
As 10.376839696824753 10.094351691163594 11.125326309924276
As 8.503868563043982 14.235958020902043 10.180672333884578
As 11.659591269054719 8.104552916012448 10.679001951874772
As 12.131679153710198 13.849958874376293 10.417916473933891
As 15.624115772360021 10.604041031433221 10.12497032021663
As 7.783947996081515 10.36323304666146 11.548073912078381
As 16.066719492313638 15.401970859747232 9.947179677973056
As 15.709300284454061 17.635943346349237 10.846724987167207
As 13.353856085471401 10.321624709646137 13.089301043726033
As 8.940853228010825 12.525566053549069 11.906865040798392
As 12.610549117199746 18.29581311285984 13.15169898710681
As 10.29976960708867 15.475925535402013 11.421442500242318
As 16.524428182043092 9.70175099606308 12.402102922695667
As 14.43091009403996 16.680320617868617 12.814318953864937
As 11.295159054010133 7.323969605210465 13.008842600253306
As 15.566972458211415 19.473840245016973 15.491966962157303
As 13.767055217423037 7.747911598307685 12.867494226709727
As 17.362812482374267 11.820227509771202 13.470928980772749
As 16.046345363043876 17.25957030330232 14.564688438909263
As 11.529157062811326 13.077692200031338 13.997752987026248
As 14.98176711488906 12.62167829600841 14.074301625761112
As 16.773969215689714 8.163238093073916 14.635018941965196
As 8.190584231234089 9.875219527502281 13.949169533375763
As 10.855736930255961 9.700808340164897 13.785385857908146
As 7.717626254459814 13.733751221641597 13.651174880473823
As 13.306014353251621 20.13149230215146 14.621990849869418
As 9.90750839456662 14.996176431303944 13.88516558854591
As 12.280227283545305 18.044386701060066 15.57183590554307
As 14.447899659923525 7.499320922323285 15.28683477281148
As 17.334180757478038 10.287033494344085 15.571857386667988
As 13.31727628200696 14.468906380071457 15.09442443084825
As 8.039279535706314 11.874209250176591 15.271437879705006
As 14.571207920344934 17.392223136122364 16.50633814410411
As 13.612599678596714 9.823128242695637 15.568544580367117
As 15.18069362122375 11.740555195351922 16.33344019398747
As 10.859477051287374 12.29894773010384 16.295651422407698
As 11.22158293341394 9.790321777558939 16.29802197273535
As 13.089388946191752 13.213100208288612 17.159371833450933
