41
Energy = -182.23560321 eV
As 13.036154997767312 12.787611510971052 7.093154749624602
As 13.946303006278738 10.995126412462326 8.582235472347845
As 8.943294127788683 12.47259150148293 8.920982685180613
As 13.628486687813934 15.039896110745481 7.894738366233552
As 8.348963999991796 14.381492827806225 10.16927242359325
As 10.131974437328683 15.594775404561899 8.841765048087346
As 15.47557384444567 15.372625609944507 9.472188263465382
As 8.168327351394888 10.496613117516155 10.24960921381388
As 16.376076310881796 11.457916596671776 8.902474136476803
As 11.77064106890598 13.68460408960903 9.08467136770398
As 12.944511132586992 9.062836671941614 11.29160273279151
As 16.780387324516784 13.553937933419949 10.150543469707484
As 13.639328633283029 11.49478628370609 11.05850417603115
As 11.28436773634814 17.28342788717666 10.32649187224244
As 13.357841757184524 16.080840122920993 11.18747207941711
As 7.15726254761843 11.264049640428327 12.445112491140552
As 9.055006539867582 12.921995820915976 12.399213124328169
As 16.07610302765497 10.828648580497331 11.317723021598262
As 10.259171338824736 10.777575857090143 11.598996355779219
As 15.35342191036451 8.364828659908147 11.263933359246543
As 17.48498352307519 12.807221221142333 14.759612856349273
As 11.769947902373998 14.299110518447975 12.009881075557018
As 16.284288841625806 14.754275813561975 14.385248517000129
As 10.737259471575737 16.55032701153093 12.682022038237756
As 14.080777561171308 8.327091329694568 13.389980942225067
As 13.362965781344624 13.699188241903713 13.824794185846605
As 12.987027351037764 17.406804859992302 13.383893285888549
As 8.821086032894101 9.531971948027614 13.267476346809946
As 14.602610952880791 10.544335842215594 14.456121801297714
As 9.386359902863322 13.630213200110203 14.786343572717865
As 11.452805794908809 12.249412467547026 14.844435520848176
As 16.820062437035922 12.049906407020467 17.03646657925644
As 15.109278640192647 15.388114104919788 16.478432032614442
As 12.887346427196816 15.677785667703619 15.23877607983422
As 16.132038366912123 9.730364133839947 16.2476104130405
As 14.589650725348388 12.932660605448765 16.476531365140463
As 10.068438520918775 9.967690258540339 15.364365987038928
As 11.271973364861282 12.90873460949473 17.205935048596107
As 9.022410744242077 11.8111322294673 16.60778091117961
As 13.669819986831756 9.691329418355513 16.65583480532223
As 13.252428655656113 11.652908237054557 18.174530992183943
