44
Energy = -196.96012409 eV
As 16.55212166810174 14.299212898218698 12.486481474386093
As 13.084097467271834 15.331990018125252 11.747180350365864
As 15.058292275161504 16.315266159427836 12.87141474740508
As 14.233461236724008 15.491161466156985 9.002772290806087
As 13.406005018054872 13.358124879700272 8.581745346752312
As 10.74650462665135 14.811811963404164 9.935014246933557
As 12.280561859217713 16.783135288188838 9.806842569103942
As 11.249310975539043 11.133163222937435 9.523965352226522
As 8.046414809284958 12.324202885363539 7.485213658336188
As 8.533533177522362 9.899527161664835 7.366073813734849
As 15.641527405805997 12.489917604680885 9.246181487136946
As 10.405026806207667 11.571828241607312 7.15917664985017
As 13.710070015549062 9.213346312574023 11.85579506380693
As 9.607372949253403 9.21321482834614 9.504823408856128
As 11.08670364629671 6.985214930628955 11.855654501861807
As 12.907215475111588 7.692380981413549 10.13208337800834
As 16.0331102238806 8.947238730077952 11.056173056370485
As 12.915503086748076 7.410983273532796 13.485611969004367
As 15.109324160291202 12.413508851166684 11.698748619272688
As 17.555255991368863 11.013916747427645 14.372202159277427
As 12.848565679928097 9.492012608089565 8.416379732157278
As 17.179295936155214 11.066400246854345 11.883140221350903
As 15.312431491663931 10.023124008669301 8.834443155258436
As 9.271963174945947 15.77115355524884 11.709790125244737
As 8.343365041885525 15.232534105425383 9.461549716246322
As 5.992225881196156 12.65927416868719 10.86634939367368
As 10.103518407827407 10.366013353942417 13.98318942986327
As 15.159408621621361 10.207546793768513 14.954895443949564
As 12.36588074118435 9.57945765862674 14.582654760883658
As 6.890215725297435 13.062928339868957 13.177101534412813
As 6.3901521712027565 10.749831891869153 12.396526124822074
As 9.276269567452664 8.189528136324814 13.079739564107022
As 7.831910109619611 9.038387777495977 11.216231845733002
As 8.287639555432015 12.762731364363603 9.893757739554502
As 11.522231872296018 12.9170118456856 15.0583118497947
As 11.839032677011216 11.720632396777653 17.221734687828633
As 10.691216309333429 9.603768979218502 16.373468907107497
As 11.716145595855725 15.283992388689695 15.67616049029943
As 9.335869891993443 13.525078628277452 12.81198882752239
As 14.458936291191582 12.576634606359312 14.7640934021966
As 14.421141019762148 11.536543150613118 17.007131005131022
As 16.834729921867112 13.382361169478848 14.800968641202044
As 9.431344345998431 14.308097775309516 15.2231165928319
As 12.735565095236046 16.646276733038153 13.834590538006465
