41
Energy = -182.56092146 eV
As 9.647736167134306 10.949016797417412 7.359123245610892
As 11.619913925363734 9.474360117695323 7.621892005727886
As 11.811659310195624 14.260261967090386 7.936089720388848
As 13.91097635813561 12.946499127488726 7.424234393559959
As 10.39843491516029 12.529958192050756 9.120374369714606
As 7.908514354740952 9.962011017493767 8.905025251687144
As 15.47735392428641 13.737713057135103 9.246382107438487
As 14.528646046637267 8.944416866351675 9.072074549393214
As 13.143018481022667 11.085250545566776 8.901114277883657
As 12.063637554101033 14.676630917235295 10.396103121799934
As 8.230029147062464 13.765201483107278 9.078398700705616
As 11.948160382879687 11.681650515719488 12.360127229456111
As 14.386636249775057 15.575018292370798 10.531667190271342
As 11.071374242313595 8.080910032794986 9.728797799061237
As 7.164255062762146 11.926842246284265 10.429195943532957
As 16.334880663631434 8.767086768289484 10.818531134441264
As 9.162357574591116 9.134700725698297 10.823974562529822
As 17.080972859436393 11.083471953967088 11.33105733816382
As 9.192585287084931 11.555319631381 11.984296762473257
As 14.822452344252705 12.190117045185612 11.168873005972346
As 8.480956250268534 15.663464334986607 10.675648772232751
As 12.975396348552977 9.146733565759178 11.012825350426825
As 10.602369359671652 16.63407161287874 10.640797219794512
As 14.654323542117414 8.067639414524121 12.620726997587267
As 11.540332570615426 10.024967021870737 14.0654067368467
As 14.927533181622914 14.210709535244813 12.660553489587071
As 6.174672691318207 13.171051836840327 13.07035986113099
As 8.56717020997619 10.116708164371666 14.025322161704189
As 12.528366667810847 13.889523527002975 13.488232571787899
As 8.36392467907798 14.051276464281724 12.933520650394888
As 17.19067271784595 10.398490161636797 13.733122290277983
As 9.882603148509913 13.304764284403072 14.773931181923407
As 14.703461758517946 10.291667983638115 13.736629290287866
As 12.105511488632587 11.04587501666279 16.26154493016684
As 17.175789921500208 12.561489521462061 14.908930400020129
As 8.48713350716628 11.660085503645195 15.982903141620756
As 6.3863093256424275 11.427736886203963 14.703880445466439
As 10.906195420850976 14.865327128690325 16.30634665255545
As 12.905713624014489 13.392544810760912 15.91797245164954
As 14.47681943715916 10.070764798220164 16.201341284574283
As 15.625557516030826 12.243079344062194 16.607079627621175
