42
Energy = -188.82928739 eV
As 11.681495630716373 14.199763784804762 7.978498581871163
As 10.535679488809972 10.074943633454927 8.251078851543065
As 15.160611208728788 15.11153339997554 9.114223229914431
As 12.197633129243423 8.91800107699162 9.715919830397821
As 16.625867433544215 11.351098889655768 5.975350966943754
As 14.081478574733177 13.605263993969452 7.471140134438132
As 11.605943851633642 15.607468350503936 10.07590174714647
As 8.743154773102576 8.415110885277635 11.24470158667365
As 10.758630173007527 7.094642266888936 10.547448067170647
As 8.442155320711779 10.203575244320435 9.542735803056672
As 17.37841172723495 13.994329841351005 9.200994929605448
As 11.098783659183697 12.258847683442639 9.396654369298737
As 9.22274276316246 15.145049560564575 10.752074726127473
As 14.682500011246528 10.188580771071804 6.449445179303906
As 12.220696373237232 14.236551953346607 12.151430862739867
As 15.655418796207924 13.470915345393513 10.91680100878112
As 10.379491509815482 15.711599878038008 12.932790566224876
As 16.869086411154637 11.663939186390667 8.397577580485557
As 14.374192570666628 11.397258303273064 8.636085655240514
As 12.151525910373936 10.39529873754362 11.721670591573941
As 11.346942409379299 7.265283874278714 13.040753721260623
As 16.15213505837159 15.349725600697882 12.445286968407226
As 13.478081531033915 8.60142224874244 12.85780571245485
As 13.897424328801224 15.562737115532599 13.526424777250401
As 6.825980394515943 13.254024224682045 13.271215386389615
As 10.150562420364622 9.48350801875137 12.971895280791156
As 9.189523376559398 12.381196820750317 13.71643953798557
As 8.765281853556566 12.840646834890215 9.708354108571625
As 17.545576445246407 14.250643412094105 14.193775666779377
As 14.577323551242788 11.801483969442783 13.673412375093196
As 16.817083612037838 11.96421683656382 14.836303405986339
As 9.716094959214962 14.455676408934998 14.989430860706822
As 13.76697861948496 9.84272702947164 15.047847585956287
As 13.820287474753977 13.696890409168182 15.138733719830292
As 7.277878033359745 15.00283181795248 14.99133010372435
As 8.132334533651164 11.101761757608537 15.569137562737062
As 11.577812364654283 12.243716611237291 17.44880833126548
As 16.103480685294056 13.971422999395642 16.170449000276264
As 11.409442971303125 10.63279214081264 15.542449139824116
As 9.227692335363681 11.557507449863902 17.805589693950644
As 6.309941245341461 12.82156454198041 15.683606320212649
As 11.041305716148521 9.869110327083472 17.893089708203462
