49
Energy = -220.41736742 eV
As 14.92625300260741 13.512669267620371 8.585564581881629
As 16.205872089109995 11.05112909341006 11.24466612559066
As 11.043782880056934 13.862000471544533 8.952120735536825
As 13.024251756639112 12.678784394367584 9.908818625128905
As 8.713950985916657 11.549613569723292 9.984165347170837
As 15.989588702111046 13.513305752608192 10.89745173219741
As 7.277382992392739 9.529673151712313 10.24789075439856
As 14.452750354636652 15.94032976874583 8.700548918647433
As 20.157130813854288 18.414932698858046 12.947030456497966
As 14.367477613670568 10.092779711944127 12.634826679094058
As 11.995695701582639 16.094489511410043 8.247735543064595
As 10.81332758206964 14.643142911429205 11.320124019338959
As 9.290150378323188 8.411511236899631 11.335624147499594
As 17.58025087858336 11.542158504213045 13.341083197455545
As 13.732990789594004 13.96474695018768 11.94536119120104
As 10.354021483209497 10.659099434252768 11.624872767482438
As 7.201452753771629 13.102544930698537 11.227645044172712
As 6.177048327276307 9.790516621745919 12.518713216436991
As 18.09501883014347 19.376341533943606 12.919106727639699
As 11.637484242048714 16.912769511884964 10.620945347034871
As 18.6170679292472 15.332143160158223 12.990130827095001
As 20.101745053602993 16.538576391478244 14.563382468894236
As 14.056864094289766 16.312186636175657 11.15418692270751
As 8.460664092756149 15.206024387558136 11.899067585374928
As 6.962244731604521 11.9536082848977 13.376960473907474
As 13.92006663059156 11.371085638457014 14.792338617748557
As 7.916536718534623 8.14767941189103 13.442493921062331
As 19.23633377266692 13.330392784046243 14.343829995985006
As 9.97433840848812 16.58838803482892 15.390228375120214
As 8.78314426024198 14.675390044727672 14.342527114123225
As 9.306265602239847 11.17199947009853 13.834076592866683
As 15.728615580208238 8.356117700344715 13.882797606698132
As 18.014876899366893 9.27948030656069 14.337790638056736
As 16.364462300180467 16.013309473528714 13.823988101337928
As 16.78361093199984 18.34601588585154 14.720929989851694
As 12.482573296026374 16.42106834910452 15.332542802164436
As 10.758462655238837 13.152036872978073 14.380585162100793
As 15.895345925461148 12.853227256087758 14.531376079236624
As 9.210174598351252 9.201717337148066 15.153199534634679
As 18.49141464968036 17.388959032925086 16.25606617416996
As 14.40429374455746 9.108435665627795 15.850207076894353
As 17.67667011848871 13.27829701627562 16.270865401323647
As 9.87563654970258 15.367734718475024 17.535839665989663
As 12.240848174860993 16.29478609037013 17.821171416575464
As 18.08363335011254 10.00762014610064 16.642846640240677
As 16.710110068534096 15.639690441984676 16.263812994375726
As 13.11576395364217 14.333297317826288 16.530160171984708
As 10.937081539675676 13.176376192908883 16.86517958935461
As 15.991537596171693 9.648082308504094 17.603388286775644
