44
Energy = -195.36402016 eV
As 15.566745024334983 10.98785112371555 9.979077787542023
As 16.473815334354427 7.99512023645056 8.764779094409578
As 15.472142582923345 11.113473725344335 7.474516623723206
As 14.87933677614927 7.464573757777307 10.570475726215056
As 13.927313856191512 13.015882918492272 9.812183859595116
As 12.949842848650997 10.475484528904248 12.508218277113068
As 13.426163025215887 12.536679074203086 7.416259688334929
As 15.527450538840483 8.718605398373546 6.641644107174338
As 13.594972802677843 9.549634312208248 10.278005833035985
As 10.776342018459715 11.633276245424423 5.366333877325131
As 13.189319408468915 5.665121196072688 6.757363650162639
As 11.810063291152913 12.050791551152626 10.852673921881502
As 12.730436168033746 6.078838035334736 10.687321232302162
As 11.34150233342938 11.067167047074044 7.704997423026257
As 10.196341633272267 13.259423655847911 7.220004726703219
As 11.097622281554887 8.840034474295058 12.939265026384748
As 11.612793224510218 14.277016711616303 12.00244751895103
As 11.748343188256236 7.281260661094734 5.515511598885686
As 13.254834805251708 8.04615326302077 7.3787702445297185
As 8.48029409773545 10.62925750898526 5.502503446097623
As 10.96484850393763 7.841427271696798 10.621966083649681
As 11.96062317243823 4.739464056912909 8.728953466212033
As 8.49278108688701 10.412524737845661 7.96134381614793
As 8.945675778266478 6.549923156856433 10.510624424143758
As 10.59117414699677 14.066294036383976 14.289555613941944
As 9.529256052620603 10.77817015835591 12.44071071849779
As 8.220111397566209 12.809499460483428 10.362344680871917
As 9.405468863869208 14.931642006888321 10.872322665673897
As 8.055861970192392 8.371479229215401 6.381514629622911
As 10.22421613523428 7.748408139046702 7.446120733850414
As 6.343401391664699 8.794341555199097 11.271814617906802
As 9.590241526144828 5.5124254801060655 8.396041180888496
As 7.780833746006486 12.8522323753028 7.887269629103793
As 7.803489956620498 11.28490834364309 14.197338535944212
As 8.568033315063657 15.08873169946088 13.235342006755708
As 7.103706124537965 9.374863532808014 15.692648896337928
As 4.992259085699371 8.77269055178658 14.538459238430443
As 5.030581539556474 9.721597158182743 9.422451122081224
As 10.202838098815112 11.639559072654048 14.672218776975612
As 5.986474634156798 13.493323190728846 11.112646420756258
As 4.08216410492212 7.92425753065689 10.829315461637165
As 4.336313239155411 10.209034903240823 11.743203725942157
As 4.880363026137946 10.267733289187504 16.2665934616608
As 6.5141248047138784 13.728996310893294 13.363099541789492
