44
Energy = -196.36477479 eV
As 13.98261579013419 8.794881636525849 10.125271188823659
As 10.972495764090766 5.5511167277959235 11.34787786037143
As 10.91059977276973 7.318598368022348 8.21756002137754
As 8.567958893458174 7.9090348380770275 7.620678099520023
As 13.365081260838178 8.469545337272088 13.395813605101344
As 14.291316725768253 9.429448764095385 7.756913440827225
As 9.224160321310062 5.5913799650221945 13.106996024997033
As 15.956637375188194 9.85109265259772 10.714879645942892
As 12.469445014882442 8.237554249644448 6.500172723606267
As 8.0411999891784 9.87910816464952 6.185392307976468
As 10.161781755982513 7.700154485579699 14.138101891186952
As 11.593922696727809 5.67306376855088 13.755062006802602
As 15.456752583367871 9.842920423893936 13.158984809844002
As 10.249309364285013 7.827862264166021 10.647172387824218
As 11.158580086255101 9.300588828122955 12.45975551103011
As 12.203400212365016 10.59309920833106 5.710259291806042
As 15.238692869250645 12.736700056050521 10.238494588696687
As 8.356130398418191 10.15888586317428 8.647387824695022
As 12.958535589791172 9.380792981347126 15.699136535050839
As 9.86175229673149 11.20817950641505 5.097119240370732
As 12.47191823864401 11.138956853746489 8.175730498362523
As 13.183834842900907 12.163896090664753 11.620391712731134
As 10.009353390661207 12.735580011482167 7.069439601684605
As 5.983267108987626 10.13512699336036 9.453177945989308
As 13.828179666279855 11.752466092376135 15.670996987838006
As 6.327263218337052 8.347601633139488 11.06324753895264
As 14.175187863353395 12.969308198475005 8.001507983159145
As 8.632306264930447 13.1635553044912 10.881557977381508
As 10.671128914724392 10.473348966157076 15.741030363066306
As 12.443437138300968 14.574257315889662 11.427684443660233
As 11.013619972241063 14.883926068588103 6.254241643859956
As 14.841036834087578 12.243547917456892 13.465557409386902
As 7.528965790686916 9.648139352110006 13.062824820574946
As 11.525263232913453 12.645948660881926 15.531444733701925
As 6.338824580126855 11.379501687608053 11.737626522215972
As 5.05142762711927 9.546372105358687 12.86854972973632
As 10.262558972629284 15.6922103588276 8.483219859453795
As 8.004646291418826 11.859966670045518 14.599525688161396
As 9.775329860388705 12.906337649865495 13.143226489901732
As 10.817266073251453 13.619059138832213 9.809911928257918
As 8.218405159897213 14.819751689172813 12.64319811638246
As 6.390633693751381 13.370625970076187 13.592177150008787
As 8.621440097677713 14.789194690418103 6.825982034414961
As 14.090121232457959 14.913097318202087 9.58050464182851
