48
Energy = -216.61668882 eV
As 9.844841673603975 14.536353727068333 6.7629029269135925
As 12.072139642497701 11.612799149310607 6.655061888973858
As 7.425651564499039 15.217021770432318 6.700920210716995
As 10.120168831688808 12.360356858580227 8.04060891102
As 10.432195647583486 16.359864489396337 8.371647405396226
As 12.37905852371514 9.26861696971172 7.472917493979899
As 6.245310612393127 14.868282996485028 8.906592981370872
As 12.429167525749818 13.005809015536377 8.688086022652715
As 8.263164729253985 17.43385127781171 7.62809049916565
As 10.423147942411 8.872468712372289 8.911812496547796
As 7.9542654407683475 13.651084903662985 10.16179958070216
As 6.739328890421877 17.230302178240358 9.624501751921983
As 14.690992375703312 16.412503323494647 12.911923813131859
As 9.809585916137992 15.28619144459409 10.484509661691597
As 16.122626897931788 15.85427740335746 11.223706212898842
As 14.12713125677323 9.843403166396964 9.110203430853687
As 10.579042051100584 10.507140304685521 10.8104269840745
As 12.893359943533566 11.404039466563061 10.567706226455426
As 16.735405718019482 10.616547024748522 12.093695618516724
As 13.926784322190151 9.176454648314207 12.699432297541287
As 13.959999299818605 7.8177662681817806 10.559962099414719
As 18.2741529600477 12.544535693428088 11.501561791231678
As 11.515783221155575 7.117368284556718 10.325882351737777
As 7.106335419903987 14.7667067034097 12.261249246823864
As 16.010192808449244 13.379905722836881 10.813041291792693
As 17.681971471359876 9.182534313753688 13.967524514239127
As 8.535316557192337 13.0072161979822 13.357596714310066
As 8.292861317740874 16.90946982995335 11.549711566147884
As 15.625289178253118 7.76614408908031 13.901577201675178
As 12.281230696117431 7.585500150425821 13.609343051405148
As 10.390106990038156 8.354773523826866 12.204823089056534
As 10.890074722221314 13.366882876474847 12.75324087025774
As 13.847365417352837 14.363591875438974 14.105736247273242
As 16.456450261108795 12.801983913811409 13.169558755880617
As 11.448689865745306 15.195403575145807 14.35105980597188
As 15.316920469946636 11.621047818587511 15.793775783203383
As 11.501350163398728 11.28666281885871 14.00990716179111
As 17.611878372105117 10.557022903529573 16.046192998380942
As 14.72109640118359 7.856787381174307 16.239716270879274
As 8.683680034209813 12.981073255630797 15.859055928442919
As 12.183808100551325 8.106882191868758 16.063034328769753
As 9.434880820608308 10.651884818915136 15.283787710683756
As 14.87031005403404 15.332872459034071 16.156305853686636
As 10.842507341109538 14.064008283548088 16.484803233006026
As 12.454282281394205 12.214669544185064 16.083260565640728
As 15.887653286525167 13.554432839307285 17.204632427208725
As 15.718371524762107 9.80652951764369 17.438111626439923
As 11.208946200471201 10.25384906142996 17.043875842904512
