42
Energy = -186.64172339 eV
As 12.429874434068116 10.767875885546404 7.172374763726976
As 14.235128959774443 12.409379644784323 6.870248912879928
As 13.85604945669014 15.643705039210976 8.437996334261603
As 10.38984867820607 12.035875593680837 7.800385946883889
As 11.534934194782352 16.192152568681824 9.166979039011895
As 10.176026831195264 14.528264785916356 7.836251040967174
As 16.44194639394591 14.06030269163983 9.629052342486702
As 15.364293465065353 16.206452136575795 10.401660078272725
As 13.582459047517212 10.270292063295118 9.377347228651333
As 7.991876448322264 10.476536547258647 10.975202297020909
As 14.08509781574078 13.267011624900139 9.1688216884021
As 9.849985357389333 8.800836792177721 10.85039782297595
As 12.845166188246631 8.036631991377972 10.318003392196132
As 8.345164211937103 14.145737069983344 9.581392111261506
As 9.737670806718606 12.16371153766902 10.322758479906401
As 8.644100454708607 11.976188825298783 12.852606278741897
As 16.989967359972145 12.881811361613696 11.797532767294749
As 11.301670487200614 15.026898149001193 11.337897266502214
As 11.915422141087166 10.186233089779327 11.214286526209984
As 14.857926416323775 11.534009500861968 12.250210114503776
As 14.156866840316273 14.909059676118678 12.181635459650051
As 14.219599676996204 7.485768633048596 12.307930905298054
As 8.905526712532703 15.49551469055162 11.518570976871606
As 15.052873367418048 12.590921602907684 14.520884612160417
As 12.496184981518129 16.76343292268952 12.737284593304082
As 10.01635328539158 8.213748557403799 13.299411669766256
As 16.272753579946805 14.567751827161818 13.51826763800501
As 15.819478923013772 9.299648157881657 12.848907761376632
As 12.340598117637127 7.510395374581857 14.056354467471204
As 12.190825774113996 13.588220155045606 14.287238633193322
As 9.918750635101446 10.52112147182119 14.374858184696134
As 12.320955475647267 11.09381567570532 14.061945041679742
As 15.439864839964507 9.102579309828027 15.301380380696006
As 9.84737696564355 14.462037038269997 14.616108227929416
As 11.364240030549759 16.458862907444296 15.007544651319435
As 16.397217281148805 11.251299101997237 15.975723948086722
As 13.033441710947645 14.957455016541921 16.151951642248537
As 12.953465965530595 9.328480463768154 15.687764254847272
As 9.336559270402367 14.050435322344864 17.02039021724908
As 9.630842192813452 11.569671777196259 17.169844188685442
As 11.90390176835789 11.76455421043104 17.754048706703724
As 11.615979839197282 14.213585591087016 18.048815789684088
