49
Energy = -220.66058544 eV
As 11.642015876787758 11.72088669076962 8.37597392649403
As 15.402189292431984 15.524962861325346 10.856349326415277
As 13.754421568427714 9.184612181191655 7.647272515937338
As 11.388085978777157 9.25107988963693 8.266590237042653
As 12.934395638766436 15.871782382092977 10.589691625967559
As 15.544382660557178 12.998117865217724 10.9013541613472
As 11.255133797066323 8.360393714541232 10.566170380915045
As 12.771900696602769 18.199611761541416 11.535824768628267
As 9.862549034682772 12.86925921293044 9.70733073975839
As 12.115976346092936 12.265048078241833 10.725512030866275
As 8.760692793343724 10.995894252772139 10.989231673290377
As 15.599863013255387 15.667312006073152 13.352990179805838
As 17.730961168574147 13.36612253290959 9.836797889451125
As 15.012169574145208 8.32151764094143 9.33646692758403
As 13.572272919540438 7.705538021166026 11.220830434293983
As 15.071717682216413 19.21472517650146 11.988964960190224
As 9.224189948200452 14.876028703793173 12.102458244257505
As 10.990817389636318 10.369970521475397 11.960153210386212
As 12.395990128455582 16.26120014966832 13.031636713296507
As 9.99744931040277 17.009056576086554 13.10898147069653
As 16.433988335165957 17.952161674946794 13.797554229638802
As 16.167547880354643 12.526629852643234 13.301796440914854
As 19.128691461690345 14.32857949351901 11.64450034711781
As 10.45509026105706 13.29361847214384 13.606294442087272
As 8.421094134194226 11.846163401541325 13.325297855268316
As 14.770403402933008 21.418804894826174 12.92535485795084
As 17.709627043295285 14.38012316062732 13.712353585662566
As 19.272277916601556 11.902392418483814 11.069818251813563
As 14.31719401336229 9.709271094189758 12.540038719224293
As 7.324326222392742 14.144257004044997 13.557323804392
As 12.597340355770381 10.372919714853582 16.08621492105117
As 16.714620152271085 8.90828088553888 12.78449924850396
As 13.500977842046545 19.752426026877625 13.984736236771981
As 18.058632748898066 11.006721039877199 13.078040880185085
As 13.661012778101506 16.237876685626627 15.828472583504166
As 14.9584953090184 18.411484487905206 15.733941360829151
As 8.978744274193428 14.091333662288053 15.495952482329605
As 9.487482275133871 16.531540151162755 15.540830858492718
As 14.096743290430547 8.764435989733638 14.853600595886236
As 11.545375798967777 17.05163400373176 16.934275177178367
As 13.108731010174154 12.786282173281469 15.819288569589917
As 13.415364576202066 9.924475085569025 18.39210722371573
As 16.433396126374284 9.390475745614902 15.187506619391518
As 15.119920427941905 13.23961583798356 17.175242281285527
As 11.367995196742564 13.076483645635514 17.540507635573288
As 11.939919697074533 15.220002719387171 18.627264931017994
As 14.409327291931442 15.443530250316336 18.115359040699524
As 14.739347509990154 11.866220223602697 19.175132673699324
As 12.280939472857147 11.830921608302102 19.507894352730663
