43
Energy = -192.59631445 eV
As 14.378937632452697 11.008027406625954 7.211327247371015
As 16.15991060749628 12.470004593025122 8.281826240793269
As 17.277178107140873 11.329107806200234 10.10056237903842
As 11.943256543512211 11.164470954396993 7.725498321126568
As 12.849891875322596 14.499367716711241 8.291233847763408
As 13.326679499192565 9.241450325185196 8.57141228414113
As 11.976132429622083 16.519868760072875 9.47529231999351
As 14.905593524660796 14.143661601639224 9.656084693897968
As 12.029830314969027 12.622452873044125 9.808899651622118
As 15.557653717298404 10.850990084452581 11.785166715863486
As 9.771090626620333 13.703874178423163 10.497578318132703
As 14.059363002398976 17.745564814816795 10.245092329401713
As 16.10003422585612 16.33376821087829 9.711660703654227
As 13.31015573391982 10.149945644978189 10.908459923219903
As 11.531279027100172 15.117837801675883 11.515782284717798
As 9.367648382013492 12.687554153929957 12.796587149872916
As 17.314489657459088 13.557425565474096 11.950276913601279
As 13.300610118043512 8.707596287410423 14.460367977558326
As 14.894370556968699 13.264421311417362 12.033200884495058
As 15.893898978736374 17.522412669673233 13.529515049254767
As 12.468955494174354 8.052071796018128 12.000462756063055
As 10.143331456226374 16.609726959097124 12.907605086041709
As 10.534967370373852 9.30992087680971 12.706383285865433
As 13.875204767446878 16.697953373292385 12.468497435887645
As 12.148933146755688 18.083839110462968 13.571421778013912
As 9.335494555363713 14.678762935687766 14.380751176860155
As 12.870110857348438 14.59093422042623 14.734600381620304
As 11.633225402414606 11.565664269493665 12.98448608060467
As 17.34136619606231 16.082322161234526 11.880046016483755
As 15.183826975182635 16.872874148415953 15.87546873506302
As 14.32964298883746 8.657299807463989 16.889232428893976
As 12.667703513627243 16.897856284383654 15.686158088193174
As 14.798101415210086 14.377417152141291 16.286885340329484
As 15.318161533390937 10.019010509307627 15.07815854074975
As 11.403667425660021 10.255381035399614 15.096308027261946
As 10.977402829096528 13.552282328845813 15.944580853572628
As 12.324279456657496 12.841325571902512 19.02698041663909
As 13.602238479801196 10.92733263054951 16.61139325105207
As 11.104769443055911 14.826501314404343 18.11391985868442
As 13.569310701939665 14.869564088744779 18.47296398727452
As 14.910751464525413 12.751694347370124 21.6178171629038
As 12.591100510858821 13.455685078941718 21.508829356381316
As 14.524089542559253 14.989417326928098 21.205864807394818
