49
Energy = -217.9725806 eV
As 12.859176779770008 15.582377971854243 6.224365834827759
As 10.778594567613146 13.347386563976235 8.21290221062038
As 14.007493723940582 13.52721394169374 6.288774253973625
As 12.22760064609105 15.458488693465242 8.552935351775412
As 12.915568166288486 12.085747674494634 8.016530008757757
As 10.93453560895585 9.285795042268488 9.13902978617464
As 9.190650389269027 8.0119636699571 10.370924345163477
As 12.614385397614885 7.444679842144247 9.693625919264338
As 10.979035298605726 17.26627971001431 9.76350266946494
As 13.82612774671735 12.796641249054282 10.267697974909959
As 14.490104280190831 15.12133379193776 9.566240538610911
As 16.05665554234372 11.631970296421647 9.918532938611857
As 9.406637564214888 11.943512370234483 9.783795726968618
As 14.030404957578849 16.700291994415853 11.477189703766665
As 8.89283211634405 15.874289997387795 9.760588165962421
As 17.770937506271604 13.272050379378324 10.855954966051184
As 10.774210708405402 6.296119746013344 10.91665336055017
As 13.561614673525186 15.281126938669578 13.470928826204403
As 9.940227944685422 9.363326828265986 12.757674738213352
As 7.52139457319076 12.943848274045694 11.258883815322864
As 11.189017913430007 10.8619503720018 11.116091853043253
As 13.53527736321469 9.016630638677588 11.485385306199149
As 10.60846095325209 15.496744216756628 11.474488501792166
As 16.063347441544156 10.90583166860534 12.315642602322995
As 18.484147560978737 11.543858612683538 12.548886512788386
As 11.984344444894747 7.711086603761142 12.938930390052617
As 15.805051655464629 16.363974301731886 13.185249284952699
As 15.692574878769904 8.427955235129456 12.662064647463968
As 16.206718162141733 13.929590735159936 12.745536820983865
As 13.426619662495758 11.535321461994142 13.595081786117115
As 7.519225176116315 11.096983576396678 12.844010673219557
As 17.95785544360408 13.212553632148818 14.371449596452816
As 8.598829596133887 16.792239108924278 12.069495679890853
As 10.981651691022554 11.08308385195523 14.460721421594393
As 7.379375262074926 14.760425647616783 12.920832799304518
As 11.845459099527638 16.487340452893758 14.920066619384892
As 14.487231160381825 9.447770235610985 14.614719449119836
As 13.932347998854455 12.998817626491048 15.574490453564925
As 13.000798885634708 16.912417719005994 17.02412811179113
As 12.70750895140308 7.9938295201242475 15.451242893105755
As 16.334725992257475 12.498122612367549 16.2173946467145
As 11.576532694282037 9.886961976750497 16.57887493866072
As 8.383962764823096 11.811560449462005 14.961586111648675
As 12.405456835764573 15.246233179399113 18.500014772659487
As 11.01703280451318 14.137344916615005 15.138704288603146
As 8.467371288931053 14.244727264571488 15.08904450445866
As 15.708112043153598 10.14555216326075 16.678397434688627
As 13.503967199258554 11.351274365168814 17.39117142105127
As 11.101556544334409 13.548122538917067 17.512315003049668
