46
Energy = -203.21735756 eV
As 14.437251007728582 11.559224765811845 13.564459950116706
As 16.281059730271586 13.512860220573666 13.046051015749391
As 15.961029776114438 8.126223687422849 10.94895511871961
As 12.888778415756155 6.856363565771166 12.076247458121433
As 16.437698803741824 9.751460261593444 12.536114617254132
As 14.138931720334185 9.251406301389647 9.712648047337554
As 17.48530363865877 11.892392887619888 11.706683448805535
As 13.381705690640167 7.518242855050682 8.041043839799189
As 14.610552911713746 9.52225527932992 7.296911455710503
As 16.412523635263483 13.859571253957684 10.606789621628115
As 12.982183790283429 15.575900499347746 12.114693640863218
As 14.159898048422944 13.080126088402109 9.860813170595991
As 14.699917713716044 12.77981369594761 7.468644375297886
As 11.351377252817882 16.191732754683095 10.330421088991411
As 11.319477272518109 14.112203261643272 8.89485017739958
As 9.645874616143344 11.287384431544497 6.709342063817126
As 8.916854860361157 7.65019351507898 8.187366382689486
As 11.263179291974804 11.263163670804541 8.62527504799258
As 11.206876948062765 8.414122334618412 8.894940935464597
As 12.880483095132165 11.238921965895807 6.709369116701878
As 11.174958641615389 6.334644329326909 10.330465595350141
As 13.60946707129261 14.876117245730063 8.187413507069396
As 11.19826411301614 6.069127870280279 13.780416020690627
As 8.366419519862571 9.446214343312379 9.860803571185382
As 11.286669380250816 8.44459831577121 13.176327721962732
As 9.544098871053965 6.950406770766178 12.114755600695927
As 7.826455705686369 9.74654244389394 7.468603359633793
As 6.245245620581981 9.013432214087453 13.046086795371131
As 6.113738954578592 8.666724671397914 10.606721553079273
As 7.915791709456356 13.004051990784 7.296909710363105
As 11.263115586794376 11.26315407139393 16.3029995320961
As 9.637547006592412 15.670006536849408 12.0762230232577
As 9.465674782511572 12.675666822920403 15.13934097677707
As 14.972010663848904 11.238815238874624 15.955525535552761
As 13.177517992736522 12.842054579578422 15.43493116818028
As 7.554338320689771 11.287588025346514 15.955472302457041
As 13.060691655500928 9.850661391362296 15.139344467471867
As 8.089121538999892 10.967067668849117 13.564478276264467
As 9.14465114796172 15.008049579610116 8.040987116008353
As 8.387385847951013 13.274934130325 9.712685572306532
As 9.348743724431936 9.68430679630516 15.434950367001658
As 6.565287792170754 14.400022495532145 10.948950755351195
As 5.041020911016178 10.633917000515215 11.706679958110739
As 6.088671124965632 12.77486271664706 12.536139924791483
As 11.328029020405483 16.45722652421355 13.780423002080218
As 11.23969182171965 14.081810184492282 13.176311141162211
