44
Energy = -196.37087354 eV
As 6.3236958787963315 10.78293390716593 5.128986795528627
As 5.767663225494128 11.667735630429414 10.966921790772927
As 8.250449254232443 9.256003038855429 5.499495502865573
As 7.410270039143008 8.503710951922537 9.599037472019038
As 6.734534030010722 13.33144785306796 12.59142070485093
As 8.583048599243437 11.479079618113035 4.526804949985077
As 7.037312411444606 11.621427385910664 7.421405658012174
As 7.552253377816475 11.11403681091622 13.470411781500065
As 8.925758605985552 6.765256448834124 9.22860849293117
As 8.741502510626697 9.835880123989085 8.0036603395428
As 5.681500305372729 13.11218768835496 8.947912722717373
As 9.058999797089268 8.022612664044493 12.436149653514546
As 12.030152628263755 9.901941482333347 6.878039710599723
As 9.99422880097089 14.052007885686091 14.272362491185037
As 9.491426930551428 11.732167083574932 14.929146799464142
As 11.671184311303413 11.904198941231414 5.488761991516272
As 8.583711468951117 13.394627740720702 6.658382828528572
As 9.254911550990592 5.72844530759837 11.507131476906116
As 8.191594292183341 11.079867577246581 10.99439984319157
As 8.764220867057213 13.594642766889525 11.091120307840939
As 11.126531173287352 7.324498816810369 11.189105179268495
As 9.79302578416775 8.195491319996643 14.826221961530559
As 7.682276334201562 14.512593022383356 9.095559980513247
As 10.993336266869514 13.413649271708477 7.377885922855971
As 11.17730411963399 10.108609324320247 14.045554761396124
As 12.771369597014756 6.488251126645784 12.894798738906278
As 11.602203159183627 6.547358574705933 15.06214407273287
As 11.911145304245293 13.903036548177589 15.899379666493227
As 11.443735336047128 11.66831561793355 9.140087693323595
As 11.819236935809833 14.774153066310282 12.725397068189773
As 14.482617615396736 8.296305271643885 12.849822747133834
As 12.640687350282112 10.25896675107401 16.063296333233293
As 12.128461448932388 14.063045077949747 10.38465389426199
As 13.94354733463896 11.150038811750742 6.146856459114875
As 14.585429624467858 11.983085143820604 12.47165826667
As 13.917911774312158 11.895165337394811 8.653314099030844
As 13.317152463348767 10.069889984587022 11.506113582970642
As 13.108356402246711 7.840998361936232 16.575082281038654
As 13.598839538647175 14.159231022397822 14.309712865786079
As 14.689776469448121 9.137000584950764 15.180404713914998
As 16.99948749763252 10.360414528092292 10.008935088040037
As 14.53239181814548 13.59406741631964 10.535940532635188
As 16.95246421332037 11.671313464292147 11.875396125881737
As 14.693103857894153 9.663120952616039 9.501326956306801
