55
Energy = -245.47433043 eV
As 14.586655914326743 13.057862503228094 8.210929429249118
As 16.32571302831264 16.407041623991507 8.73065937481853
As 14.542458111875805 14.99777807062369 9.776521776644056
As 18.83104266016242 12.12127438499001 7.8169793539070636
As 10.853774750549588 14.44788182699375 8.623270223399405
As 12.242953170400943 12.336162314938715 8.609112407209679
As 12.512175967975972 16.257202168531 9.041655202982293
As 15.410754133661579 11.298813080757608 9.944276135452572
As 16.580287217914893 18.01245213764077 10.66899362087445
As 18.015665370773615 10.51491913754695 9.28705516839945
As 17.85396020590967 14.911557494759634 10.103930509377259
As 12.452044916539018 17.25925403990206 11.357025733844939
As 19.924196914960966 13.887349774129992 9.097421766710792
As 13.93348320159287 9.346871527711603 10.34750058460808
As 11.712688994188985 10.07753217161341 11.197436489955628
As 13.74803907546574 15.56537010615266 12.697189089793358
As 15.428197376875204 17.469839557138695 12.856298321858453
As 9.914058096521932 13.333419054034904 10.685283929641754
As 15.852707424284173 12.748291502057311 11.934934784911595
As 18.88135178301376 17.068216520834806 10.873852028014081
As 8.781288908980883 8.2113995442828 13.316123553944754
As 12.231223566782642 12.52459225470852 11.092752826933246
As 19.211894269358506 10.892157674295843 11.420873979472525
As 9.386264749189415 10.754147926756955 13.43683248839284
As 7.2724891836660355 10.988185858880525 14.798204423821618
As 20.27900588381629 13.075038178028027 11.381405275488143
As 9.16036182179427 14.943472716195101 12.403377301301422
As 14.079112085023693 12.458601712056904 13.686223713318904
As 10.0842399274671 17.23278707162432 12.171313750833818
As 13.01079783349395 8.785574363224038 12.862483403210955
As 7.987117429873072 8.687225819065487 15.682189863863657
As 10.930102526925506 7.371382823270178 14.279741107773162
As 17.244889619192016 10.98628571906177 13.037932093071163
As 18.113879931007833 14.435816372957696 13.013676571602556
As 17.109893919916523 16.364957844638013 14.294579076098954
As 19.349317175975422 16.653913785059206 13.314136558185686
As 10.305488939658787 9.436424825092653 15.40862674919512
As 8.169860962601788 13.019229440458929 15.998423848445844
As 15.694265125000259 13.61003022490157 15.209760548029212
As 14.476132712153433 10.143175420480231 14.484983294863243
As 10.611020379802028 12.815628072384701 15.529211721532395
As 10.266445051252164 16.094663294242608 14.373487144888202
As 18.010557569157125 12.606459553688055 14.807201057953202
As 12.697771130884137 16.431440804371164 14.81996044392617
As 11.134716074468967 11.042892671171472 17.191486366761506
As 8.140268347608075 12.864836498337649 18.518583599873434
As 14.496710475208296 12.855993440542118 17.26506995663443
As 13.56164970029422 10.577244058076003 16.798463212020625
As 9.527541147662921 16.647974320927467 17.808529177404306
As 10.96738491270209 14.541079689449237 17.348231075338152
As 10.491646776145318 13.119506519171308 19.327190790089013
As 13.342887445931941 15.122580858640827 16.9478528103051
As 7.782030851565688 15.311526449775457 19.00161281278586
As 10.640634648590655 16.92443770003129 19.91718747429385
As 9.482242360688701 14.983589255720089 20.825307755838352
