54
Energy = -241.19349165 eV
As 14.390321113497091 15.417000594345158 10.437066959096533
As 7.330760270234034 10.967663893411046 4.398370288749762
As 17.070718665703268 11.986172485130146 10.194354181795408
As 9.614071724466484 11.260702241343457 4.630938694500461
As 15.205468069368361 11.903791304741796 8.901840183847867
As 5.732809795719318 9.372291067819162 9.701375427887532
As 9.289992450298355 13.226575492853588 6.122677383496976
As 6.831620976666161 12.872084229095094 5.9125895255061485
As 8.140859639679828 11.669724022638464 7.664701556454414
As 8.037779768129159 13.35109997116872 9.53535776390504
As 15.264137209727743 15.076957782323108 16.13193345709945
As 15.23028735925682 16.558193109644368 14.041632982161087
As 12.756258242066504 15.331144553533065 16.195097010037532
As 9.765065773150841 14.028807588254969 13.608829192835731
As 17.049156783792068 18.06438239716466 11.176420963549033
As 11.039651423656204 17.184586580117895 13.463434100957837
As 12.197809986115754 14.955707960271587 13.744806906502433
As 11.9544679079198 18.607156826829975 11.589508569254892
As 9.340417038580684 15.944693410920891 12.088545901301526
As 10.52555628230367 13.14583957591811 9.705062529119202
As 7.81314866271383 11.831639411458982 11.558415074737526
As 11.30744738045847 15.271449601529769 10.73496425045268
As 11.547266815256194 17.417064621248674 9.450389113391001
As 13.947465553515547 17.84906846261319 10.332558640794316
As 17.542411286918753 16.481191722189276 12.904953384829529
As 16.987135006711714 15.733933830002602 10.578565368899449
As 15.30923171787504 11.111182426617308 16.741117452579406
As 11.998238727419954 7.493754828081851 15.961441892999783
As 13.432137667067638 11.828990765195735 15.31021490995303
As 11.170409128634715 6.678849966659646 12.318253546695225
As 12.578691862400877 13.101626787209126 17.28770392464845
As 9.829151501298638 5.212063167425473 13.757756542853286
As 8.862561309416906 6.067668381694201 11.613125609997258
As 10.468729550250021 7.7966906017435225 7.205802229532056
As 9.724783007048119 10.819874465853232 15.532506178759492
As 5.598842421270392 7.373930535529825 10.872936514707995
As 8.060726374314907 9.612127581276306 10.425734950380818
As 7.479425605821991 8.047462560577594 12.304452552922243
As 9.519824215128024 10.481379050282671 17.97595039685222
As 10.056546236453292 12.73887807207944 17.06089598601986
As 10.264828187560392 12.153194926692933 12.023282802458352
As 11.654285728247835 9.8936410594486 16.78810121007709
As 10.08233315936612 7.613029815275226 14.348398788268037
As 14.629405734784175 14.628155697671016 12.701584994842051
As 12.597846201697973 7.268720561059686 8.319123011369008
As 14.634201345481268 9.750023313244458 11.676917379513519
As 12.544923606790624 8.881724145911852 6.461218232131315
As 16.553669263448615 9.111228938862771 13.150623873627763
As 13.511017578047262 8.741317546671826 14.34994457347687
As 14.806121945143628 7.430793998791341 12.571292714308166
As 15.67290689685376 12.869805071023096 14.96523329926314
As 15.684376329025081 8.920735540269312 15.512850363624562
As 11.553857925249375 9.477527496347989 8.631314365076497
As 16.15893133334504 9.736789579958415 9.677922291899657
