53
Energy = -237.35543834 eV
As 9.879002645914143 10.576396967384532 5.322235971325039
As 11.962330852058827 11.603132188881007 6.017909773119376
As 6.228460975826225 11.203592071150075 6.088295545282332
As 12.318147218942254 7.9734908188485205 4.563618253424413
As 7.103432911447339 7.827757080875828 4.880760006839996
As 8.95170121657318 6.181492638754375 5.213043293828905
As 10.446848733803927 14.394110555062055 6.675956848941247
As 8.553151345492024 12.615490077009767 5.722679683073082
As 13.672856707342465 9.856665921273136 5.4557440925174925
As 5.479457496210158 7.5983622050502015 6.73611027977991
As 11.929127505986285 8.636318027917639 9.088817238118512
As 12.579281284053247 6.190453416449155 6.267837427258213
As 7.404735605049087 9.182882498830047 6.950866108171392
As 8.17894173000628 4.7250167495517355 7.116845222158023
As 13.235990577261015 10.388835485259687 7.842111577690376
As 5.582217493966473 12.282390846035131 8.203871325978717
As 10.587400362463665 7.721483187210727 6.339669726267668
As 10.263101018900574 15.955440411317001 9.63700621250427
As 11.405802113714497 3.676826659175791 7.681629806094947
As 8.058004897313536 13.022216534752516 8.184628943028882
As 13.435315822568006 4.508308118112722 8.94655097374895
As 13.22845635091008 13.362177787681743 9.878062714552799
As 8.45015138554076 15.412304323802902 7.794137837835332
As 6.230871813004059 5.784094526570766 8.268543239913557
As 13.692477819312309 6.988559714975696 8.363702905333149
As 7.339234878750238 7.296780382588869 9.917876252570952
As 10.790756740347978 13.603601665551045 8.978769359074603
As 9.961736667459869 5.360197907065301 8.740463482848266
As 10.116934623109884 3.1321205849550644 9.819094178898622
As 6.351962189104429 10.49445247029746 9.723483377479647
As 7.376244678103715 14.120480015283498 11.15908810187834
As 7.282346051498742 5.717414060779993 11.855095431029623
As 13.453307451251057 9.475306141552943 10.948038445585022
As 5.34844871308851 7.205687172636139 11.41095260544189
As 10.629067189969723 7.010652982025486 11.783343916650898
As 12.295647786163343 3.5099740119401557 10.943203896244363
As 9.09052067051629 15.773231355387274 11.867124426157595
As 6.94348755165563 12.461589564237226 12.98898258040992
As 12.888770418808216 11.777802741864178 11.774810096783602
As 12.57153025870788 15.32965418219125 11.123686487643036
As 10.431956982413892 12.143576455718405 12.031993377775272
As 4.983049695815873 10.99435464297715 11.538107810787213
As 8.14357560458284 9.409028874159164 12.658082768630766
As 13.868359058955539 6.4000605321157975 12.504267108130252
As 8.713893252205201 7.090737443893174 13.39613706808079
As 5.708861808380859 9.084293430136434 13.01356529619764
As 5.7483925303478705 14.592426758801293 12.928995182335493
As 12.432108989886398 8.347328727891574 12.934176794245696
As 11.829014634741654 5.078687206325317 12.808119584806665
As 10.999778802053278 14.43959098755581 12.856665906102863
As 8.265787384505558 12.453547940983507 15.197447980374795
As 10.520938689957157 11.71425765341512 14.533593109307372
As 8.769971390359967 10.028315872140224 15.037150944145402
