55
Energy = -245.55602794 eV
As 10.617165779614933 10.267248614924533 8.63102561827051
As 16.041505342872647 11.86128992083089 8.509046989184034
As 10.836496275940886 12.664925810345206 8.652355473015856
As 17.717988393317864 15.083888773026203 8.73627019170265
As 15.441978259248268 14.1401373967146 9.224003626688036
As 13.03683042325793 9.037663090823324 8.6674716679491
As 10.746398378540015 10.27727965575578 11.109886355455197
As 12.203351318224364 12.211746319920987 10.570545733374491
As 14.26052756753716 10.765699538962409 9.862863618176094
As 11.433644413465872 20.995224841914865 12.66518689020857
As 17.991128460628598 11.2636792200969 9.94735032791372
As 13.960592433018967 15.566297038297146 11.795103442957213
As 19.135889167809758 13.549190124622859 10.034302797768333
As 12.100768381858503 8.156647489516951 10.777352006219948
As 12.626456296355437 19.08795258573942 11.642670100554776
As 10.735159784819485 14.415923911672664 13.663054316082102
As 10.216517405012398 16.246429801467634 12.147813587028837
As 17.970734179203465 15.36230894829784 11.240511879313878
As 15.916079247353888 13.974829215667695 11.68448312438126
As 14.764611414707398 20.107279432424274 12.497568575552327
As 13.44591109510604 22.187499168838574 12.777965299480135
As 14.965080289408796 10.469757387032905 12.256313449903894
As 18.703061068627033 12.771747677685372 13.736103571478507
As 17.35411997584965 10.112122198676968 12.020734856952787
As 20.105082072449687 13.779859727241622 15.6209384095233
As 12.926344616548903 13.441702250602356 12.647183605976789
As 8.263530364423854 13.569175198237666 13.527526218488914
As 8.199525713380257 16.081053875127022 13.669250558607096
As 12.754658144353755 10.656190988809822 14.589659856776564
As 14.579741942620013 19.83016358221054 14.972078956149025
As 11.82104228108897 17.8047977419794 13.582956598585657
As 12.111857909953908 8.290497883192911 14.057373548106966
As 13.994370670899231 8.051244431385022 12.379180460885596
As 17.71461289894825 11.166238836456955 15.333660315029025
As 11.270769370155373 10.920574710811978 16.554183366906415
As 13.525746822840754 16.042459052710328 14.262496084702153
As 12.147029247908925 19.706066933341006 15.45840992351468
As 18.04658277966732 14.946209619193658 14.814883099868094
As 18.73946443330636 12.486135961437444 17.28421295842882
As 15.370595853404005 17.446886296690714 15.162519071017751
As 15.568041062608259 12.421411917685987 15.695277122409049
As 9.309984150387395 15.709803117733562 15.871454373688952
As 16.911936908603924 14.155025731789907 16.913585769812244
As 8.1299573294957 13.651149297218572 15.96773490474698
As 12.073644772330969 15.204788348715224 19.364296768418196
As 14.697187673214405 9.381102971872341 15.513657453066267
As 13.224287163497607 7.561214076328072 16.241400954431608
As 11.722412663519464 8.822308829881335 17.790963317293293
As 12.252496998665526 17.48843903642165 16.77049397652942
As 14.491402735955662 15.819204509514496 19.019707508539675
As 11.193990505998853 17.52149758548359 19.012667704216472
As 12.89211610718363 10.939251470355115 18.4202900893484
As 15.202425715062788 10.687794118899795 17.517545189422346
As 14.539431889205739 17.823919878495015 17.527197503586425
As 13.03737789833262 17.056707904713647 20.64687488010286
