5
Energy = -21.37443401 eV
As 8.663687733599682 9.18378604717469 6.848048087755208
As 9.222271820276978 9.40322359660287 9.284859065346057
As 6.853406090384507 9.223804443301859 8.471935593666815
As 9.337329436298623 6.944333374633971 9.505975376810902
As 7.70351530913572 7.008295431290479 7.651995744731594
