52
Energy = -233.0009981 eV
As 10.535555472985614 9.516436754977132 9.667871218427946
As 12.033966510884026 13.884955901574333 16.14957762744433
As 10.172873885369345 12.57149890961871 17.230175786567138
As 16.321867001055097 9.573243085937259 11.043425487257643
As 12.185088071453826 6.045188420078686 13.797111429725266
As 13.940585565923422 9.792453926186903 10.227494184525797
As 15.042041443369936 13.695378856693779 14.630321157155464
As 12.413764940422253 13.436155952148614 9.829922159628394
As 13.399941248325336 10.962773375345082 4.649702354433801
As 17.537259715873333 7.497237031751958 11.936232412223406
As 16.406149646007872 13.02365533116973 9.773931507853428
As 13.250873553829122 13.619131637615409 7.4775002063933265
As 8.300130873811227 14.136424454100535 16.700475947402683
As 16.92823767240695 12.302757964071285 13.855370755154079
As 5.920048679595586 10.987456253605126 14.089667055643181
As 12.36129457538976 7.851537679991066 10.223218830735807
As 15.61174093841723 10.243563181642624 13.319758521131153
As 11.621288437959715 11.343031307379464 11.056225908183475
As 7.894582924566406 10.390644607720738 12.749861509352945
As 9.452370019240766 11.198720779384994 15.10506996656463
As 12.799197376700652 8.40231000458938 14.209883770507275
As 13.68136025248743 12.097860334117888 15.586779607715497
As 6.278029950298683 8.799426317530505 15.35501607776063
As 11.001906481761797 13.847288628601076 6.27601274900196
As 15.784748858231541 15.069363307054395 11.007519361718956
As 13.876625619611499 9.555131493262367 7.764452753508942
As 7.476119519582633 13.493359427347627 12.470381470561668
As 9.36530049881821 12.646376871442035 10.94545940419956
As 17.385102619641366 8.641277221682866 14.157826161137027
As 12.477027698660997 15.890678304938822 13.220331264978318
As 11.24654935275119 9.90918869454225 5.430955270591659
As 14.643989819812067 11.694549503372832 6.7220917055535185
As 7.6137974131943 11.024197973246713 10.281486781854472
As 11.189481972036756 18.046999363151116 12.910453856444585
As 11.601543528012568 10.734962297597109 7.76637734297419
As 9.279305588599556 17.165935502896385 11.580184038168087
As 7.730026378180468 7.978247679201989 13.496941987286435
As 10.953621253842416 14.03321974022395 13.911153797275524
As 11.618856548634872 16.533495554361725 10.982916815372144
As 17.649044947955336 13.641148763166747 11.842224511568698
As 8.763829292735762 14.115424313259302 9.0096820224612
As 9.283804223006562 12.43428632180737 7.324295987527538
As 9.39375375693258 15.615018133105613 14.984333696851163
As 8.761234556059621 8.753510474969547 15.637388478893644
As 11.118619845297536 7.862388801757217 12.468333196342252
As 7.320218760729354 11.869921659731048 16.014246642817792
As 16.289603318054493 6.4523425006844946 13.80664102159414
As 14.155348321914524 7.049272369800493 12.640111943643104
As 6.544650061131795 13.339081863878572 10.159889266543617
As 11.26706102688661 12.204487416410448 4.421016635349448
As 7.781019142171567 15.861152513531348 13.123335312384219
As 14.428007072860588 13.003236564317579 11.270873068265686
