55
Energy = -245.95813997 eV
As 13.097527596079617 14.155781237117473 8.093332742339769
As 16.048592677524834 15.762942248651374 9.922847577902694
As 11.533807856021447 16.00280484434634 8.883351849460135
As 15.16814777402502 13.50032623273233 9.338455466724344
As 9.77029379403228 14.234455822051364 8.52145163025196
As 14.118088727191632 17.305186067942888 10.425804486027847
As 11.544749406853901 12.489806056404845 9.045704140489901
As 14.6957940150807 11.330420882532662 10.680086608818145
As 17.187793301188815 15.856566252278075 12.144940177548953
As 12.653178338125864 10.055796555291685 11.522456615840694
As 20.161704750063638 13.110937970981446 11.761702833020516
As 16.219505684845693 16.97931804321309 15.436766801418239
As 15.036891731006214 18.487945437400988 12.445795663101793
As 19.56824834766238 15.5331966366164 11.475740280204343
As 11.81663749465252 13.424378794927732 11.383550946502355
As 17.82183693942616 12.21456557896652 11.832775713622283
As 10.539858173116809 11.351639824524712 11.845084958801563
As 10.153077929232321 15.187243922494577 10.78361597976499
As 13.555772619183582 16.535889731462866 12.707336147378793
As 14.195372795970016 11.21597890625743 13.113407352447489
As 10.101378802300331 11.110157623284518 14.301351949459773
As 16.373295241080267 13.757705947938344 13.121362542690965
As 13.396249811507964 18.233223813314336 15.49949221104387
As 12.67148746973648 18.824478384137393 13.103743824100713
As 17.945223524350066 9.955260187630351 12.896570992920006
As 20.5258961572038 16.156905914771148 13.728061302053042
As 15.593126222131158 9.156634023625022 13.314807227269808
As 6.9091567310402136 16.246890430386344 16.358809108587383
As 15.596846519373402 19.3811987998818 15.829806284560773
As 15.416747644127229 16.412444542169762 17.730602571661755
As 10.90484759718682 14.893405756706393 14.34446024910277
As 21.285568813572986 13.789353543050591 13.92008227118311
As 12.103364641510707 11.460506486244435 15.713322653313332
As 9.010707686494449 13.304919619199286 14.46871390406936
As 17.500588492811058 13.819008910144742 15.328394253684758
As 15.956961326118808 8.843980274777076 15.78507646512084
As 12.958584470833642 13.748592292819653 15.245476499369744
As 18.623821781169067 16.002228857662548 15.470760792928061
As 18.226135224887198 9.926371254704467 15.384139657553172
As 5.501527887070546 14.227127218352788 16.29813799031786
As 15.082607393434818 19.032602047387062 18.230293090422656
As 5.135610617508287 15.691944731706641 17.990416887305507
As 10.77647735527543 16.059268762136146 16.574544539768908
As 19.606249592834157 12.509035027647926 15.226179931473446
As 8.757918803612318 15.24752700980003 17.732530234699613
As 10.875840704822332 12.293614326205734 17.74771351533761
As 12.879418871978213 19.641683489822263 17.473075726846677
As 16.32801086122166 11.279016347430474 16.235111445475493
As 17.3881400985882 15.588063446932408 19.0949437147641
As 12.30147954554128 14.393748569864648 17.6323454664331
As 19.525964444211226 15.443612330675798 17.738042541735748
As 8.624667160729226 12.94927283956322 16.870652964262998
As 16.09204631222826 13.599085173962134 18.66759645225086
As 19.88137868198348 12.963278849897582 17.645908247748753
As 17.682191780421356 11.749070340150968 18.35966273899654
