52
Energy = -233.27022619 eV
As 17.576246730973505 10.981124070688288 14.768705203280556
As 16.38218971262084 10.896981686022977 12.556676622702698
As 18.439356106300544 9.570955383983499 12.895989520061665
As 16.042115074143005 9.699263208684537 16.23144054705298
As 16.356839597327728 13.526496755515257 10.115870113345728
As 14.607164122706731 10.287858407017152 8.448975633671061
As 16.13510264882418 7.635921528679286 14.882005859961016
As 15.044710365386223 12.781885824157186 8.174154910005289
As 14.103060452610677 6.170076494079715 14.79609943585101
As 14.184529419051431 10.975966732516149 15.15592922293517
As 16.02609477919365 15.930003545637854 9.328871523872401
As 15.183579267618468 15.805523656826416 6.987355981873783
As 12.33012814442439 6.37300417406501 13.074925457602378
As 16.270859846761144 8.416134563300385 12.547426236032463
As 14.967384267878964 13.321585096653692 15.65635468613709
As 11.432536234194393 9.12817922180631 15.04493446156866
As 12.461178092505127 10.681570956878643 7.258803828942917
As 13.829850522546083 13.358708879402759 10.271116036354119
As 13.894621267777746 15.8443490847245 10.595545188512991
As 13.692821043587937 13.398222371633702 17.794123383252828
As 13.173587810315539 14.46825623118881 6.275297862911264
As 13.774102810831604 17.857460711566777 7.080286076199037
As 12.550062248329137 11.248346501057659 17.019945612636715
As 10.885150507309707 15.27267705503696 6.711895746769952
As 12.88227657943578 14.113830646425574 14.432050039769761
As 11.802288648199982 6.683162075604101 15.514081252244823
As 10.75306383390393 13.87242637085535 11.143540482615998
As 12.333859041909795 16.6730738974056 5.319802401402103
As 11.15105580101017 12.586630183964056 15.439316952257878
As 11.852576723513513 14.69090103059759 16.624981756475155
As 11.599377791639878 8.79481385873409 12.56215609382859
As 9.045837318905528 9.040643469030469 15.732233058059789
As 9.606746560348702 16.87024459999539 12.13850938883757
As 9.349570462396352 11.707498027213541 8.649580969644507
As 11.692175681377678 8.569071575529415 8.344667283017339
As 12.668500094211058 17.58179016153521 9.298936328282222
As 12.45655409440285 10.512135430044282 9.723398030215401
As 9.719968320501675 11.586811245476008 11.124449200139093
As 8.204784323531513 10.769080377263158 14.160421235738182
As 9.474664018001176 7.548872007128308 12.090355182933706
As 9.196005448424629 15.547286651706596 10.128944775111352
As 9.283416560801035 9.284051940241987 8.115458872200133
As 10.442241569899132 16.941642683117802 8.466826419917806
As 10.16645488225294 14.908912796518244 13.28579290545094
As 7.760670868363497 8.389571566076949 13.712406832172714
As 7.288541487926161 12.120796545679502 11.395746475857713
As 8.138509278132668 8.216745539925697 10.049188520370683
As 6.863617502015349 11.821563449652842 8.921587360925642
As 4.927566879459661 8.75711771307237 14.422442550382767
As 5.893704328334347 10.888627485031135 15.259943228564273
As 6.398495640814249 9.964233455522137 10.524164224521352
As 4.492744645692249 10.695931372217073 13.257725053122202
