5
Energy = -17.88046482 eV
As 11.881228472831525 11.770248314175813 12.564975812419343
As 10.072282898506153 10.622705803897835 11.271796219010913
As 8.456975844195918 9.682406829828137 10.206434272395251
As 13.669713728122945 12.742682270001579 14.001733641340387
As 15.182589939150006 13.623102784199395 15.255877023836089
