50
Energy = -223.81997373 eV
As 7.717920919829053 9.809611298084723 4.47371798445003
As 8.548943332814078 4.873061076943322 12.46575192235898
As 7.112717046099746 13.159595017225 7.6192370306078026
As 14.287639804270501 12.43844678520811 6.670040188476416
As 9.16968167807399 14.504904684784556 7.176967685523095
As 14.26916403388954 8.870825532165314 12.065963883503153
As 8.410921803452093 11.24256762158704 6.4929874561958645
As 13.216449611526354 6.329532512838789 9.64940849336088
As 5.619781568064321 11.650861418337099 12.844474510888716
As 9.765906243161789 5.35002898292845 8.044329898170693
As 12.679477026432071 14.352668781951252 11.96224676647666
As 12.333716645052865 9.766636539848674 14.5764157571259
As 10.083942360783475 13.188527147864649 14.776625312171463
As 10.775179456833447 6.508534561814581 12.74874288409265
As 5.402372667176406 8.108832311350527 6.382026001193218
As 11.2297139445078 9.983872418822612 6.241871078085004
As 13.034051868087069 9.983520607547531 8.729523722438673
As 7.110509042299395 6.397340543274599 5.624201815494267
As 10.426193192346071 6.663260696427607 15.240697207820336
As 4.046268894881371 10.564783413880294 11.235727809545194
As 13.240368491688923 6.584071692129931 12.153514476815143
As 14.11539219656344 12.220144934451863 9.161597941769113
As 6.088497763935272 4.8340952780553845 7.356956410071272
As 6.071631581422876 9.36051268697756 12.040082133382535
As 10.822921052154811 12.512943184122191 7.486819690530647
As 13.562104764137876 12.264023327431959 12.886844292653812
As 12.359196787481514 14.050470033544565 9.417413178573922
As 12.379510869202097 12.242052707710291 15.087130466648476
As 4.491431122871657 6.569650193642886 8.176089487899661
As 12.25027530241916 13.651029661546362 6.0075538548045095
As 6.0436234395045805 10.342868943457297 9.772133715841719
As 10.997441029185156 7.369515169685111 9.088453413581005
As 13.720287759013692 9.993574929844915 6.294839409377091
As 10.329676645182012 14.53205620920545 12.719489811444276
As 11.328962492568813 7.483189154272303 6.572015916922973
As 8.322365223239645 12.38112792450928 9.722033215580254
As 9.98926142250464 9.13312513547053 15.08582204243444
As 8.794930243146306 12.020617946135907 4.175358105048359
As 9.086105255535772 8.4210427043408 12.834177774634615
As 10.16261720020157 9.97401610200543 3.9236710687254823
As 8.818936427523756 7.4223720582945605 7.1388405814358205
As 7.741580132547699 4.409515342249754 9.225726162368925
As 7.218879414992262 13.279869072703743 11.814437724661426
As 9.762459228425083 14.480248755513147 9.562613485288914
As 8.081485130664442 6.598810292120848 14.253816323716832
As 7.204274390998034 6.069349379293699 10.9525468757893
As 6.383241775283184 8.081215685885136 8.67727265802746
As 9.400183468519513 12.221492362954507 12.559843117408413
As 14.71370425709478 8.385484791245183 9.62335825435257
As 12.195794149066609 10.281792544971793 12.126281158887954
