5
Energy = -18.69006332 eV
As 8.514248540630568 7.534439221177571 9.835626670343457
As 9.634052534689193 6.200039403120131 11.077256318660066
As 8.310975538447968 8.290093552442315 6.369330176329374
As 7.44555860041518 9.10211253379017 8.49015142790921
As 7.14319473058234 9.835559089140085 5.226661343578943
