54
Energy = -241.79119927 eV
As 12.324205416856026 16.821464589170564 8.91621186445336
As 16.89496731723593 11.874671884687695 7.096702909381653
As 15.952795827215557 14.926561408553258 9.346407198343886
As 13.675472004603508 14.741594018877665 8.292631166624894
As 11.235863253478696 11.559228955353166 9.007154937742085
As 14.492293065965372 11.811030526824089 7.148317193655617
As 10.656998278430061 14.987300513892494 8.616764122641928
As 13.929785239818994 9.232301027865496 7.116492841336954
As 15.6552863523097 13.130871407654409 11.016399543357274
As 12.356836646414692 16.574478238544145 11.429714576497595
As 8.778669430116343 15.766088264040102 10.037532573991884
As 15.960729421994168 16.738463913245365 11.103098592820288
As 11.512299212871085 12.151480028235403 12.91943557016114
As 14.760705709020884 8.975248872953314 9.39627741877417
As 15.815612346884746 11.356279098988546 9.162867117157086
As 10.395094485324957 10.773732212423859 11.246136545781336
As 9.96048492808263 16.775709721544533 11.986371744603078
As 12.338765339430557 9.265546547512471 8.984938084926693
As 12.94049769105744 18.63733879133914 12.621445545433806
As 15.259831710527196 15.397689187913862 13.079602240072917
As 18.09492824638494 13.342000827982117 11.485789128951048
As 12.221315871941407 13.620357552803076 10.014871191972006
As 18.26349431285516 15.883605749639228 11.752553836253336
As 8.08446278101976 14.020161311440932 11.70320798061286
As 8.009640048806402 11.592805750550111 11.554677558303387
As 10.130802929199762 14.440541054047863 13.135483223269715
As 15.611333332865176 9.832306939440304 12.99785960167625
As 15.674319750832757 12.122492208228739 14.252897107898495
As 17.38297190379245 16.30931920170475 14.02759498211046
As 12.224344328376466 14.933794701026416 14.89891520525785
As 11.141830985372701 12.211034097268936 16.400963680217792
As 13.587899272618266 16.980124380407407 14.21776896962219
As 18.094639108892352 12.408379765011874 13.817567113274697
As 7.938600491952362 11.718857825937775 14.113572261174575
As 8.284059648069643 14.137340880633502 14.74182317150043
As 16.855793912122355 8.450261103547918 14.614989806267031
As 10.23395990981034 10.807894146858157 14.553093781363863
As 14.492025468182256 8.234020696028633 14.54210180528636
As 13.729254145322704 10.285568593711233 16.122662261035693
As 15.022199360380432 17.734728321912495 16.166393440134538
As 18.578840471783618 14.4642494386604 15.163493187097897
As 16.22793454409838 10.69916958424191 16.196795002265524
As 10.64232679025712 15.951290750842512 16.511198592618147
As 15.068223857659843 15.254416738330853 16.545103970194724
As 10.96970982924595 10.7547408002572 18.459940422244145
As 17.33329991873965 14.574575456532829 17.356764291878164
As 9.362319211046163 13.858557595905605 17.07370080206118
As 14.256112167466668 16.784219225372702 18.325727382659394
As 13.466626779615611 10.406352340903995 18.631917700709643
As 10.520519736218532 12.956670953809772 19.563048681848525
As 14.028935921572305 12.608623345728269 17.596308144174674
As 11.84428890862982 16.199049626787602 18.704140829817103
As 16.45156383636827 12.325230393288662 18.133187235258962
As 12.654746330217643 13.98069722089333 19.47990365258839
