52
Energy = -232.48400239 eV
As 14.485527641775072 12.587829408711276 5.912585242825258
As 9.726475699734173 12.014492232498764 4.852383140204827
As 11.035446253611186 15.627907543141898 6.185203768294311
As 11.153287684867012 9.986115590792485 5.25173512391681
As 6.626005402719554 8.475964093869196 7.654536911666583
As 12.122283940086003 7.52259870293947 7.093229505018056
As 13.670237155376922 10.331341095380637 5.162823103540514
As 8.367906383021683 6.737469525346327 7.056567541750484
As 7.593129307023798 11.625356608878027 6.173102205632619
As 15.637899835957537 12.670277396437063 8.13925536215231
As 13.13776108200196 15.806714802570918 7.601950460171887
As 8.000736921830784 14.067796130310196 6.934114800723802
As 7.215723219182808 6.645743805602494 9.238731071903388
As 13.856293470179924 9.293112141630637 7.462587609963299
As 10.539383526685674 13.884818546769758 9.999136628184436
As 11.647080548652887 6.437747430342291 9.321760089043718
As 10.328231497431918 13.356023164751571 6.865582873873699
As 9.732319002745486 16.75228402475458 8.087837886806268
As 4.474454257124618 9.969337792660735 9.366002788510741
As 13.25286810252722 13.357833793222326 7.926164866840149
As 8.147289091035175 10.418253804414645 8.306566063101103
As 11.437906469232196 9.863576752057956 7.740254928152372
As 12.37121561499953 8.51822733451361 10.475358220642269
As 9.468199210012978 7.758876708370518 8.999723873919722
As 6.3134026356667095 11.548959885678077 9.631243380734878
As 14.407071703704903 11.407941393885718 9.985577577509641
As 6.107581390634332 9.611229170539186 11.17078964969022
As 11.648206757216363 16.129525870406155 9.628200767516837
As 8.367773284196437 14.983632901125876 9.264690522684838
As 15.797791945010836 9.91432145332653 11.498938596696862
As 10.659114910950153 14.751131346162618 12.366788430152903
As 13.127602252864932 14.089001026153763 12.765446832390888
As 9.843914013558914 5.331534323936694 12.25734200989746
As 8.730367704882626 11.57596354492158 12.418169402479325
As 15.239639779705687 13.185997286434075 11.532322796739605
As 8.009404668516332 6.308426400668445 13.583369172121854
As 12.43455158639608 8.212557850939143 12.944707873853812
As 12.035639664387595 5.774842639114452 13.316943342306661
As 12.378663542473944 11.865286802890582 12.41059162771886
As 8.581039713098395 9.359265843482017 13.679027786722386
As 5.0039740420231125 10.872107163432256 13.015557464379524
As 6.785266614069239 12.429278583004495 13.77513261116119
As 14.471446772437307 7.773464053319647 11.549216450518182
As 10.400423656138688 12.718394087398988 13.84568360836844
As 14.824863914567175 11.41117089049309 13.248891422591097
As 8.696586004816291 3.920876449048888 13.945928512008582
As 9.885388393973457 10.05416698657781 15.69996540771856
As 6.515150668878127 10.196573154811707 14.881531670928249
As 11.401409723432781 5.968289889804324 15.704540400251085
As 8.973394270935087 5.640422248230382 15.758308006718524
As 11.56011625820398 8.373668631622968 16.454605447297354
As 9.28799749500438 8.397716378182702 17.374739847561656
