52
Energy = -232.1455973 eV
As 17.105518888288213 13.760462875550825 11.558298702403762
As 13.084003045248764 5.1837629280504265 14.577169494805553
As 15.470713768753678 12.171643448027142 14.316664465955707
As 13.102489272675891 9.02469761744261 14.521329768545716
As 13.389866384126377 11.331181031800241 15.457633725453732
As 15.73119774477138 11.718813869094376 11.873107918184441
As 13.608707360609857 6.843317147744133 11.329951111497307
As 10.850382860774884 4.756764193427346 15.566674279921587
As 11.04094928516527 8.87136843918495 15.987006932594198
As 9.917588579226189 10.858469375992037 14.91620907853214
As 15.822264121165235 15.522496214600453 12.848811647185261
As 12.477627507842271 8.879325687658364 10.51451176477931
As 11.769378844474375 14.355741189406022 13.618819922697133
As 12.836302564314757 6.908795381290348 8.988538590150226
As 15.590791531061118 13.010427381992164 9.711595628236461
As 13.407050749172805 15.09506292153806 11.844340148746623
As 14.275010440981434 14.982595156330662 8.827569561796583
As 11.725974759899415 6.470883910976957 12.937403925380643
As 11.379233489073725 4.017022269544642 13.249891534628148
As 14.861612019484955 14.503799956813072 14.748038039810517
As 11.98704684905402 11.010667706826451 13.468638914480426
As 9.54911857708236 6.931793369849192 15.59470610374091
As 13.325559879385919 11.684912868559566 7.748779982261084
As 13.978760981407746 13.794561188139278 6.613666782964384
As 10.347032549177346 7.053178238100937 6.682088139481006
As 10.413065067004181 6.2922858260271815 9.078508081029712
As 11.99221837085918 16.954781132716466 10.974613500586939
As 9.931341660764016 8.444901193091601 10.251497426701917
As 7.891986862011516 6.5574930967604 13.793888027990905
As 13.111589745734985 10.173199523172261 5.731485895372082
As 11.60994125277884 11.890653126973044 4.670802657602009
As 8.605664167321077 10.418566072756331 12.804156739622274
As 9.079235852138344 12.092875372358531 8.582095619226752
As 11.018363256108909 9.410580511861788 7.012139471298548
As 11.564202138289245 13.214135575618132 6.857369335902835
As 6.909319765217135 12.206479584341077 13.393185142161963
As 10.155317720791883 13.32812620680848 11.919423087712774
As 11.953770487435323 14.711708475498376 9.802825944437425
As 8.734226685401689 13.854352845085053 13.981866125454522
As 8.15295112293343 7.076319999994568 11.391606457383771
As 7.916175442641652 7.675844480028886 6.590777856748089
As 10.91194198326657 16.67983788077195 13.280540391208776
As 10.122821995445705 9.846719755842809 4.801747339863539
As 8.929700776863475 15.291268624857079 10.827737475705096
As 7.373463451737862 10.775297453517492 9.815656876083443
As 6.861126764918549 8.607200295711461 12.909910957924538
As 7.695736210902933 9.64198493949445 5.39994828687633
As 6.894556951825453 11.62958886647401 7.510101319315436
As 5.934743267061479 12.365486098855527 11.066478275641572
As 7.5607783901180845 13.990081671751607 8.053833734724975
As 6.619600782063585 14.583751730622723 10.255625707776739
As 8.426213008291246 16.192639032425703 13.079666086931176
