53
Energy = -237.70339081 eV
As 12.984552990171087 10.171046117494988 9.543294437589173
As 8.057417610462311 7.986403194601264 7.646643679678195
As 13.355658185494304 8.586543058619238 14.53196741120584
As 6.995292260210997 10.262314674180029 5.291411757642831
As 9.080597280570116 11.464801133147741 4.815775436767837
As 11.652568455611982 11.580426446840198 12.900268374905638
As 10.620897829492463 11.149698604682238 15.120350486195978
As 10.248136331149263 14.126607146365277 7.598764222577408
As 15.003131840925862 5.3388163680797796 11.782411976475203
As 13.085451514512627 11.033256394549714 14.905069431027242
As 9.493454644147397 15.079931728137238 13.133766960016928
As 3.7734066599681935 13.09391694367662 9.757311666683805
As 5.145587529059052 14.967666068702542 8.95452781800134
As 7.14994251871643 6.063884836066554 8.997263384876296
As 9.49544823507275 15.27577328510112 10.641237083778524
As 9.648850023249093 4.853709052162025 11.52631863944983
As 8.784442582013215 9.78766651670213 9.215337025653632
As 7.856106953425747 9.418270550868325 13.287038173863067
As 10.455841512944916 5.800800400194916 6.199208903514323
As 8.555957639608108 11.550373499462557 12.256036211051384
As 15.20239623978359 9.0167352735354 12.901005846523656
As 10.598375751172421 10.528140274264766 6.638765299879105
As 14.498653046956584 10.393794726949714 6.319353376194587
As 7.8281387884639155 13.365668740345996 13.804295996952105
As 8.195194501001122 13.24513462292439 6.33287940771778
As 9.906911591107603 8.797360485208706 14.66896667696888
As 11.929608563164054 14.516539259349416 10.623280980628683
As 14.555424675219115 8.72502063944327 8.20422289689919
As 11.332343696682688 5.990161372995041 10.062789618771117
As 4.6025459005447 11.17576929616518 8.245290655864439
As 11.935849999299707 7.474931686226966 7.339562590875893
As 10.102990037084915 13.00565016482939 9.836402335299358
As 6.700797634389054 11.682616700296514 10.590170635054742
As 7.081238742308441 11.294825580364748 7.450173767251983
As 16.321150196464973 9.022467281801356 9.996587887055822
As 14.923571362570826 10.795025456739728 11.115237208064634
As 11.899655159087226 12.61139566438613 6.478443964649276
As 11.194281376249537 5.741726814390424 13.335024722901814
As 13.752292057584688 12.062965425314708 8.02513965834377
As 5.177485309273362 9.677239650865097 10.146288019167804
As 5.813750434022094 14.477454223271447 12.717861094296675
As 7.601764163536179 6.3492749538472335 11.404655634614574
As 14.465815433700424 7.581976564378357 11.020594383542575
As 8.949756648902568 8.390166878157816 11.280524484964154
As 12.848788578886904 5.3222845794923535 6.510750889345038
As 6.469022591444669 15.686407601949279 10.675475864320902
As 5.6583447326952205 7.950855960715593 8.347425093591491
As 11.527574243642144 8.24629098174795 12.815257790196467
As 11.807521430374285 14.065198704239467 13.104248330952018
As 4.723475862867654 12.40978357827438 11.939456445343108
As 12.376416603941285 9.188466350580825 5.498245614639675
As 12.674306593748762 4.533763133580515 11.648935739606715
As 11.190870806454306 4.372056703163227 8.107739357996302
