52
Energy = -233.23733685 eV
As 9.753703014748835 6.632771055615582 4.9700202659573876
As 8.447890312808173 13.368053133014945 6.113369178333693
As 10.953089804252587 11.012073885450896 6.400662899337644
As 8.48433503120187 8.692187725094746 4.468657451601316
As 11.544302714623203 14.593871301652575 7.4548284630172414
As 13.26720717316541 11.299613940593643 6.242972315131531
As 7.099809354213181 15.22765287736043 7.0169504066899355
As 7.434542803648644 6.883697818915132 5.812082009128697
As 6.194818679533964 12.857316237196196 6.988042594394115
As 13.781888150942262 13.54331025023712 7.151438738862594
As 11.246047754433574 7.125940783990474 6.897857563867233
As 9.388604558536457 16.28634440840509 10.069071002184433
As 10.003405449125069 12.708652539562193 7.94915879412096
As 10.087209668591422 8.963224885605019 8.041818776352413
As 10.153192626100275 5.432184475252704 8.4290814972611
As 7.896456825710643 9.065776859269297 6.862722749705192
As 13.986537988570271 7.5496450759219345 8.93065404475574
As 11.74854633051441 15.38854550981774 9.81456713466922
As 14.654558384438971 10.600091575962198 8.732029060118526
As 7.759401247932922 3.8279602087878044 10.480710778472046
As 6.329429279301786 12.771297833091111 9.492888232079144
As 11.702314646878671 5.247257230079072 10.417847886385367
As 9.094204111882195 7.169316307191474 9.903319561105118
As 14.508447072119925 12.96863250247254 9.503712421576196
As 12.757252148410133 11.303492604428822 10.164384914746826
As 6.63676221031853 7.23539322624157 9.495389418365441
As 8.78564846659495 5.360218854102082 11.934113340862417
As 10.828053760122895 13.519902080938445 11.235076211354352
As 6.34157181589847 5.587407003524948 11.418861901283867
As 7.969146465637162 10.97771378285519 10.012780256920873
As 12.290065002530785 7.675208138943446 10.898218789547386
As 7.267535095906955 15.109734356743866 9.499747515496667
As 14.100697516632687 11.718264906281169 12.252708980999222
As 6.188505693354964 9.329325685312629 10.794343376387888
As 14.20551365350544 5.378873987433798 10.079266107282159
As 11.054590004835585 9.441260776342293 12.591973025828944
As 13.870686866407532 6.537059182982748 12.439452866486436
As 9.173481106137645 8.341013927076245 13.825086136081312
As 12.403209669893764 13.327383608214802 13.183453890144932
As 6.47345684708979 11.18748576160483 13.631831570152519
As 15.922119924824662 8.716557046009338 9.926473353253144
As 9.737328345465766 15.41689467551281 12.411462571759976
As 8.4989823484685 11.797927498381085 12.335284573030604
As 6.791077598244806 8.777392653921837 13.155406579380099
As 14.44421491450971 9.832186152682128 13.834159024383457
As 15.718404938944849 8.218951324772277 12.37210307376071
As 7.674780314564309 14.077798662045922 12.89189552339697
As 12.434998784814818 8.458692772645485 14.270187968141466
As 10.909550661680749 12.34015486727846 14.967521151944352
As 7.638825685108779 11.490139457306922 15.807192226683464
As 8.774741097584212 13.686967680796304 15.149103262224676
As 9.768814976036563 10.121139801880528 15.458017461793075
