52
Energy = -231.71507702 eV
As 12.962672020213583 14.449691655522495 14.392918613885683
As 10.961416451270209 13.444685915647316 15.516329853059448
As 9.627413967824689 14.16207810511525 11.21542570990363
As 12.956318231416725 15.442794312323196 9.924947062781522
As 8.384373884285923 14.714970202244368 13.336676383908017
As 15.06112863117255 12.877922365980742 11.809013948355464
As 14.083475987362139 12.195167124493615 14.687425124468128
As 7.836049269561294 11.205605686159618 15.538644423561996
As 12.215957321215164 11.385438906214635 16.182370488475357
As 10.477542482526445 15.790711241511884 9.514255196672126
As 12.729342542827004 13.863197803975833 11.908962750160107
As 9.24901223851988 12.405736754180476 13.804423947417124
As 7.192253934301638 14.59789635630776 11.17597272998521
As 13.00250580912327 13.108548578699308 8.947127376583671
As 13.943366454685837 8.98954436310016 13.683779278333324
As 14.039697604862576 10.051679286168406 9.5259087086697
As 13.357282931990571 11.122325009743147 12.486435141620605
As 5.9083213122888445 10.497887254919304 14.129271218399829
As 8.622802310352597 9.008253784116837 14.601422492912572
As 10.554267325126776 7.716946562591131 15.617793862716859
As 11.611574780268104 9.661298733307639 14.436807221940738
As 15.329057873125532 12.332284496933092 9.38807266324789
As 10.028074757776189 13.557721764620677 8.262702193737686
As 9.024296002479025 11.147126181409819 11.418859954092966
As 13.288713805085045 7.374964750177505 11.900413420463554
As 14.99890124766763 7.856029713332285 10.147008451548217
As 8.04371058769316 5.801052133782164 13.380272489049732
As 11.636451568147907 8.25459976116697 10.179411383184833
As 6.284391048405408 8.10711436242036 14.892976349397628
As 12.125784081660866 10.954136028677365 6.882036918008784
As 14.347496647635563 9.856332394863548 7.046836272586093
As 13.034305273533063 13.259477187845944 6.429858747121441
As 7.175565881213598 12.26239426341265 10.158446613800301
As 10.130934944677998 7.209542561843488 13.121559605575234
As 8.633383043215492 10.823960262925256 7.484840757930855
As 10.700753294230848 13.979311743014552 5.964687831392226
As 6.97824464499894 9.69754298772766 11.957514699024095
As 7.6144420800911465 13.125999529942606 7.797425325208583
As 9.858154455074514 5.037394102628782 11.84331094741623
As 12.868438776046 6.5901933390452045 8.794799094987864
As 6.225303527130995 7.222086630147406 12.527679309442874
As 11.516055315923525 10.248794753807596 4.60363199891302
As 5.517992941062259 10.516969338134563 10.18739397362718
As 13.563631596424884 7.5447521326921345 6.576627521418382
As 9.905501981196975 7.984473275149469 7.148829108530776
As 6.538450485006929 9.681737206359172 6.6343414757491495
As 9.447445696313789 6.777607783113589 10.091730299180101
As 9.220326702064638 11.210156860938135 5.056491348982743
As 7.708241684783382 7.584280885911576 5.998054464595395
As 11.43551095041861 7.814321182625442 5.220707954037112
As 10.34783706751824 5.733722583979702 8.054618838359344
As 7.539098105812441 9.421712288921889 4.35274658458737
