51
Energy = -228.30914117 eV
As 8.300155528213049 14.098001106390244 13.83372904579488
As 9.752432792767475 12.485854179544082 15.085083766132499
As 11.962209532991297 13.422669288524423 14.289558745978741
As 13.152263491372299 11.42490938213425 15.217220353733179
As 11.115462969323499 15.166632247125959 11.37737719817735
As 9.189346323110072 13.551276950083237 11.539347083028625
As 7.007383717547479 10.464496336729672 14.350306313343436
As 14.728725769845731 13.516430968214447 11.339495106243637
As 6.161525785018562 12.788525631706017 13.962398432734998
As 10.710931100341694 8.533758676286501 14.385147338112134
As 9.39073424814774 10.564955961602944 13.442311636918362
As 7.946105501218926 14.96375854260706 9.864850458088078
As 14.539967383770424 8.731861994735135 13.01010828350893
As 14.657142457212732 11.34902974458378 13.14963874862856
As 12.192772641927865 11.352863359210417 12.9241379777303
As 6.517115515707953 11.194676451339113 12.030734135004808
As 10.173089673512957 15.974515329657995 9.169550254897525
As 13.44874943898809 13.829787367465364 8.362957568521637
As 12.419838052729524 13.224934890728004 10.543564628939354
As 12.541635222828674 5.918946606753598 12.215900501639025
As 4.475057253426035 9.767893834016888 11.493169118034505
As 5.491162856260663 12.423937328063436 9.256592646050338
As 7.534402949766169 8.1425701127821 12.512353300400619
As 12.146002492309748 8.440193216966756 12.288363777296821
As 15.259249584447625 12.287730791511661 9.255343038252779
As 6.520620245398447 12.672536400027553 7.016971748795264
As 13.836023539268545 10.164399890483127 9.38146705869814
As 8.509883401033493 12.87662044998783 8.554914050381942
As 9.441509079345188 7.8291812121647055 10.968886308767171
As 11.923499721197613 12.885165360500574 6.587061428983322
As 9.98504231227181 14.39676970779558 7.209844834834191
As 15.323823726848998 8.526704478954578 10.66929977604624
As 7.83559394676376 9.045963547322096 8.360371494414917
As 9.445880100384215 6.682160318982651 13.215061723147361
As 10.720975190783326 10.814764801391666 7.355737561811161
As 11.906244862176802 7.835611083634686 8.12954382130683
As 5.472779276306156 7.386809008062513 11.251719933208797
As 8.934564878038834 5.484221086435165 10.42184020172885
As 15.12395038467047 9.578028125134345 7.36610592251246
As 14.433398186105736 6.1567443309065215 10.519508194928925
As 4.720521175990096 10.248274803897052 9.084808739154761
As 9.084414874989346 11.079881270567833 5.472444355822837
As 11.011718349160377 9.49173731237666 5.237891104490869
As 6.8802315088134245 10.262830116837993 6.374948254872379
As 11.366162692978275 4.7106565538822345 10.3464138565258
As 8.215387011859029 7.270788572218877 6.622998729516364
As 7.646506149540875 5.47778224282272 8.283042947568182
As 13.71820193251912 8.020901909586895 6.424706316792639
As 5.9868710841225825 7.3708595438251825 8.782941923122019
As 10.620802298366408 7.1588581943542575 6.104121544396947
As 12.89309190281497 5.605943018440785 8.571443448254582
