5
Energy = -19.75685513 eV
As 12.404799950558457 9.299008844393306 9.704370104765419
As 10.622792488553435 11.068875369124875 11.367378044615482
As 8.531128538778574 12.279471439253875 10.846372333429972
As 10.533111569193144 13.533485561858164 11.514489436902615
As 9.317797819585557 12.187895810161873 13.17330305961968
