52
Energy = -232.2534436 eV
As 11.14742818856222 11.449100440466797 5.189800634330779
As 11.308301180895516 10.023548629283548 7.295422228413605
As 11.173082679313513 13.617984928751369 6.248389083692866
As 8.655718898123974 10.870900806240867 4.851276269511988
As 13.558410332242305 12.9694896874655 6.669726555315699
As 7.424808566574178 12.820037846165118 5.580145999424627
As 10.980398752243422 7.905946187133464 5.979108024733637
As 9.671157707542399 6.341218380790667 7.458172550349764
As 15.91820822159267 10.860645857689553 9.428160481370139
As 14.494172866527109 14.771922668372856 8.012155665717183
As 6.205001972622709 7.286543539924009 8.406419463276471
As 12.283821955409872 14.822921157381225 9.200391946409193
As 8.822962537141589 10.277357566972112 7.28803029725974
As 5.215615404178569 9.590290257642687 8.226962849270231
As 12.9629328833668 12.42642110267298 9.244259686489324
As 15.20311313843853 13.197627064850588 10.108650365049243
As 8.739833210545253 12.804508260531156 7.612125373585472
As 8.53939671540392 7.670840027358882 9.24217947969821
As 14.161529000537227 8.135264136771463 8.114131881989332
As 6.541435611118799 13.226202773237588 8.827231261940781
As 6.291866404766761 8.69090783301061 11.651478066336898
As 12.921780090897938 6.439551956823831 6.702906687999841
As 11.66643758753124 5.613062570406558 8.765966877490925
As 12.520850013490318 15.14141154715657 11.684628221390106
As 12.61248161576063 7.613313091245688 10.00530971750311
As 5.552150078241996 6.461987645757541 10.676690426269527
As 14.789691893137956 6.439862884148148 9.808732501178763
As 18.209006829439037 10.69553864333718 10.405349498410834
As 14.941313612142473 10.147425466458873 11.631978257505827
As 4.533010720296987 10.144514207449822 10.552664209355473
As 7.926220711431818 5.596538852864907 10.597877699597461
As 6.743290641948371 10.898195155404252 9.683953404972886
As 12.009626704446864 11.625529063443867 11.633202665363203
As 18.088417469286064 8.455761591749468 11.44692325714292
As 10.456692097373951 7.63080616752855 13.003846984231437
As 9.844091943523583 5.6043219564113675 14.311175704345183
As 10.493234972476408 13.647960662127176 11.523424779577176
As 13.814980673056244 13.062068181643225 12.37675394447799
As 6.530993381798291 14.56218476395918 11.03513607643865
As 8.175736180583502 6.722195448626822 12.838256417843011
As 4.862028565144025 13.138816266975978 12.178923694093834
As 17.252240845755843 10.454308832602862 12.694049413799634
As 5.592190608735235 9.44482518254275 13.954499663363496
As 15.69916330596694 7.777305255508799 11.715797158901067
As 6.6133388417319825 11.612782006668262 13.181442234957059
As 9.20624238027649 11.178328231980267 13.759165102764866
As 9.833601912404944 13.566679156843604 13.928799395470453
As 9.742640340848137 7.869726590451312 15.355340694560901
As 7.761994269182798 14.837346970736505 13.294646534225171
As 7.381466548283104 8.767513258287916 15.664727776898854
As 5.984551545822219 13.607335612665063 14.474210867851806
As 8.439629148317506 10.98141538196316 15.977693724333047
