53
Energy = -238.35093757 eV
As 8.036117547552974 6.741643526682962 6.8705444726944
As 8.598003689256334 7.814707437513753 4.616457519853786
As 5.207128461078338 8.496943717847978 8.275757499120322
As 10.961340496370948 7.940629406720753 5.464255368909642
As 11.592250185370425 6.343370469748304 10.834554930834479
As 10.461978679641037 6.709004611713466 7.6325566739620125
As 8.317438930843263 6.163923393175659 10.061715322657694
As 13.309934642782263 8.406099846996618 7.090845510146012
As 14.055976156135833 6.845669413703259 10.28655252987109
As 11.230946002342067 6.210663284059804 13.3454527392111
As 7.567201561391915 9.03779472034715 7.7606937250798875
As 8.924355037477437 11.43356821060922 5.2108465442314245
As 7.163865060952934 9.70699981119139 5.389655069665813
As 7.517683381321431 6.1747619645088125 12.463160186158314
As 4.638837600127583 10.222644905866273 9.99949400596925
As 12.081921854787053 10.165480824648302 5.812498498259939
As 5.830061163656531 6.701257398315359 9.91917100701541
As 13.799444205517817 9.170431744565246 9.415929637446734
As 15.579301670117554 11.649984601509919 7.197379931433618
As 10.299670503780023 11.13121817450972 7.283074718652246
As 13.28607369261186 9.14666159948965 12.96653487504001
As 10.0098005151355 8.048638084362864 9.755556859277366
As 15.206956276505055 7.742584896273176 12.329187289037906
As 6.704596367967398 9.977176072020693 11.352412091238616
As 15.617028178863874 9.150504329967072 7.669737086761124
As 5.659983031402677 7.850425546797038 12.161148634390035
As 16.197534733329032 9.876644290041067 11.230499817860379
As 10.358722162533683 13.6431440145848 6.810792321681469
As 5.176233816117636 12.498549457705264 9.079995614935124
As 5.419186361578609 11.449416508296126 12.953656658577312
As 9.116973322567958 7.322163006023054 13.953494368084261
As 16.24788453367912 12.194823098165314 9.545749581547385
As 7.656161498574627 12.36449120746848 8.805338035671644
As 13.728364964164792 12.14010295662142 8.815002347008242
As 8.644416243957206 12.627721925069132 12.469311834023818
As 7.8767804140683415 13.326269015556628 6.46929138548368
As 12.40152245432057 7.842364121749643 14.84628779606132
As 14.602997434776357 10.484863511808575 14.552953836715291
As 7.879053038286834 10.076345184584815 14.921121646330368
As 9.493021470244631 9.646140577900516 13.057419361180724
As 13.424961186127652 12.753224012825648 11.565733717510186
As 5.109804318294155 13.463291224573107 11.419140880728719
As 15.622380590633119 11.715293662507094 12.651653016856667
As 7.897399529700308 14.772300874849286 9.315756576778613
As 10.41537842508722 14.801500014839894 9.075312513314964
As 14.69735723233776 14.1759011547108 9.862543352970327
As 10.927299422313931 12.865001486379818 10.525045677818094
As 7.175740544470081 12.404405482128471 14.473851724033535
As 10.80111592694587 9.85738767381873 15.175551225208213
As 12.570760366097257 11.790389136666557 15.26937194880065
As 7.325024496226087 14.625236104197905 11.733051198723082
As 10.503746223614337 14.317386802238335 12.517680190227448
As 12.622837629508428 13.751743571046577 13.733416820302395
