54
Energy = -242.89184606 eV
As 12.431610881811663 16.594283075387068 7.956818392125849
As 14.08341783728451 13.494609514041178 6.527064777266378
As 10.162195255698904 17.515168131404952 8.487700112693386
As 14.046941586932142 17.409412566181963 9.696923692463756
As 12.126989714940166 8.88437914993884 9.66955816494863
As 13.47944677812814 11.130114918199583 6.826558469132158
As 12.943068205763733 11.187897537297587 9.280060465350081
As 10.699487778427315 18.443848880957226 10.766646239654591
As 10.804531205026715 15.174762485688655 9.156889499308908
As 14.775119619406096 13.826286617105518 8.824754083271888
As 16.018245506129304 16.00688141570279 8.888634896471237
As 8.50304524079096 18.79012114391381 12.01815151578598
As 16.666014615632246 12.211321105974218 8.813541434571393
As 15.118976386798161 10.263596403251508 8.518343832311489
As 13.732384729124288 8.531450324046412 11.58258439943816
As 10.322965907161556 9.468238467428456 11.314789690551203
As 13.420913115782978 15.779012800750639 11.49797483240458
As 8.11837141515747 16.376049901924027 12.483389838320518
As 10.98824846688521 16.07543696264996 11.501920625344637
As 14.623786775683978 12.753347518321432 11.8946765625711
As 11.566496012987912 7.686231187402624 12.593958559098708
As 16.286591448944005 15.303678537939923 11.28473464144371
As 9.774702482066388 17.6652375343036 13.832446929817982
As 16.908532560434995 11.829838529044787 11.286586117012678
As 16.02048856850067 9.563422670998287 14.784497756059332
As 14.238594683715839 17.306395884516114 13.329764586239564
As 6.468655951502462 16.545176530309625 14.408885906190354
As 13.612325044268411 10.634419686213011 12.912820080867952
As 17.065853366460644 8.259258338440757 16.529544149487926
As 8.170380842570957 17.75746842261344 15.768722914847977
As 11.322703958870525 11.455584815074506 12.405621216026647
As 16.640475015467135 17.42670313920792 12.495821983988062
As 9.607108223253187 14.330321237156278 14.580489550529524
As 18.30689786216012 13.918080372425642 11.574822231732425
As 14.157937225536134 7.9268848556927205 14.730786936174171
As 11.700448542661892 8.47814021003354 14.98544348714581
As 15.463364819823541 13.34241336759409 14.227548759170553
As 15.763027570790296 11.596891359270924 16.568914403782955
As 14.908871205625239 15.637137859908973 15.106817162160583
As 10.280175283003437 10.54415209613327 14.463774503911702
As 16.377877533921353 10.053255172063299 18.572450597143998
As 7.250801959823207 14.356059599155786 15.435705224601378
As 14.926329263543762 7.080070301380355 16.996545746945365
As 9.040635184713391 15.558484434472865 16.683624896399117
As 17.345534827037692 16.299336170910095 14.641137871860012
As 17.935234810579775 13.926392913673467 14.033036159803514
As 10.369691931929008 12.461991418522699 16.12518296864828
As 13.39574500578401 10.87575303680313 16.775254707582768
As 12.704178018195977 13.225478893091118 15.681346267983011
As 15.638513640932096 13.780853746457355 18.016692565317417
As 14.203021703581657 8.936475538412816 18.47462182920406
As 15.229279491723448 12.161515752806052 19.816559603441682
As 13.171566608043445 14.120354075260543 17.944142854676432
As 12.883853881520723 11.841978945083802 19.026370859255834
