54
Energy = -240.78228404 eV
As 12.700788359377658 14.146327929725079 7.354641623326975
As 11.33286007125488 13.711806529399817 9.341196001213413
As 14.201181126396436 13.923921645125253 9.3747334132137
As 16.35633220307493 12.955466336409806 8.670935614431535
As 9.119262791968909 14.433986749589744 8.390909993184453
As 9.9802780160489 10.944521652512112 9.025498650107705
As 12.963169846590448 10.174164640441845 9.138116302452485
As 12.232383774291812 16.037769697036854 8.951033579323555
As 16.007059526676976 11.461258712573763 10.675595628993488
As 14.972262436894185 9.182085308106586 10.328337682979658
As 10.9214050918814 8.622608631769054 9.297598892472667
As 9.71241398279715 16.673518257672185 9.260284346815386
As 14.200955592504753 12.140311436468432 12.232443942532752
As 11.688847844387377 11.212752082784013 11.007337196490049
As 7.555610190107791 13.703512351071689 10.156112016908734
As 17.59961132170321 14.730980640226097 9.90421332866549
As 14.167467059027645 17.123766210674145 11.234494926076698
As 7.738433676109204 11.166647183882906 10.03009711094753
As 9.964186740425369 16.446053534972826 11.760815406282424
As 12.382391636635163 15.829171988184656 12.535927493997043
As 18.273310404699934 11.113225417976777 11.699576403370997
As 15.862457293815876 15.249080246876211 11.681465650974046
As 14.24325369855565 9.658478003480017 12.690074333154818
As 11.283165236267818 8.796142636955071 11.772643954612464
As 19.13165880800736 13.455720859593383 11.4568710614282
As 8.427274876769935 14.569145475530478 12.306341588448156
As 9.446343178693999 12.43610642040658 13.502496793335135
As 17.60925208299524 16.55856044263587 12.965996627224785
As 7.715240324168553 10.90416708578058 12.495173097268308
As 9.151419143274866 8.910529801516125 13.067745959501867
As 13.433981868903711 14.525667751994865 15.682001930642842
As 14.687767621331028 18.38948755493731 13.395762747083346
As 16.33228680162679 9.03047006872075 13.959414964412368
As 12.352670105118213 17.84788086988622 14.05607861954935
As 16.488101012372177 13.31583941811398 14.335353529857064
As 17.794514352902038 11.077137326923253 14.199432013562907
As 15.579251359030726 16.340242500514776 14.432132207877597
As 18.66316344826436 14.43579722992313 13.737988233696365
As 7.801224772578537 14.08342512284185 17.096399367968026
As 11.209684203940274 13.374765382086988 15.910425681075127
As 10.6452198964666 10.203350867844023 14.597994117182292
As 7.76412238068613 12.319165010231579 15.418665489557943
As 14.458049596304756 8.921925735002047 15.724402809322873
As 13.990678180209287 11.373901252716292 15.550230243433884
As 12.814091996700348 16.849642042267927 16.3646353010484
As 16.280000880521857 11.236686575727514 16.636652197103956
As 10.014823514841684 14.456489889497965 17.76033607314336
As 9.154388549908052 10.52499907518639 16.55362523449744
As 15.289476866352691 17.1217834023701 16.78956430589058
As 16.99407665600455 13.625569411280807 16.857138922770332
As 14.943780896383007 14.751391837842373 17.69690179708905
As 10.845748352793757 11.889001825890187 17.90266782526251
As 15.108678453809869 9.571588321159169 18.12646701956985
As 13.465322765234726 11.513384485351859 17.95840161635766
