55
Energy = -248.14970688 eV
As 11.538661782938261 10.285581876261011 6.099187229281327
As 9.640971961746551 9.523055233579425 4.712168172894093
As 13.127972735497728 10.483867569394345 8.853175254442746
As 11.09120641463451 12.704031733310787 6.238858752569738
As 14.002976132196311 14.032456743588035 8.683536430136733
As 14.841231226511873 8.963326996453576 9.809946685616406
As 9.751653991797328 9.02560533508518 7.178764500806377
As 14.069179642730973 12.285865652682544 10.486383360658548
As 16.25158967627189 11.058579166633951 10.19903162391302
As 11.498336948785859 13.897840071586042 8.410202798558338
As 11.112145694117638 10.121820410431447 10.229293513504052
As 8.676864332501449 12.821664139618749 6.664740655571122
As 13.994846681725924 16.17299820653648 10.055831156958739
As 7.726701316857115 11.131697440553069 5.177182446635587
As 12.33221808751517 10.372645010015752 12.42739001610913
As 7.917145202913479 10.702067802225645 7.64471989038403
As 16.334634739700473 10.199192760783562 12.537171917752723
As 17.62522474394371 14.222356149429675 10.361002537283786
As 10.895194756080674 17.481221010626502 12.409759330753397
As 10.390149138724892 16.775410029029043 10.087667788481868
As 14.157789674945814 13.582158154144738 12.86260897735052
As 18.70406245359503 16.340106291784938 9.955183255602877
As 11.031409871359951 12.667001017229003 10.562109154176998
As 15.634402042650388 15.183545504485487 11.660767552818715
As 8.562624935691659 13.064591739822324 10.56589918588661
As 8.224454431585704 15.501491473954836 10.095644711062503
As 14.260793698484843 8.771360788443875 12.286876953175632
As 9.365183832250224 16.06050544266496 13.79663213877677
As 12.014609891198585 15.47734486145549 11.452691083874365
As 7.870466825426662 14.658330811111764 12.386233139415317
As 10.579719420930342 9.024496803137291 13.679271150624214
As 18.950364270790576 16.673393712132576 12.387180845334473
As 10.975666556782727 14.32350377229253 14.666432633627823
As 13.992241852082774 9.233244107185657 15.524261258705504
As 19.07930907815218 14.183416920606712 12.335721566785402
As 9.033859773758591 12.807184028136719 15.180797510685696
As 15.735479392507967 12.116391783480013 14.043165996725703
As 10.468361851153501 10.774956255837354 15.441870031644237
As 12.062639078040798 7.722138309800935 15.21300162254212
As 14.43618368180614 15.254187879157884 15.602783873214864
As 14.499894535340578 16.392495781080203 17.877869417659184
As 16.55801984337732 16.973685485593222 13.109901819333352
As 10.748701418799461 15.2447664191853 17.01800634272831
As 14.695898967823384 8.361745369492782 17.642965448240844
As 12.807425308944058 11.409592237306041 16.06223505209386
As 17.846030233747204 13.41860261937486 14.419215758032596
As 9.132415075570819 13.400343899951695 17.63324689282159
As 10.816419748911956 7.8001960773624806 17.399673286492245
As 9.243922262169503 9.75167311373348 17.27570334978983
As 16.88066522497447 15.618977030960698 15.155643712850376
As 12.666536037217563 14.863013511505118 18.57580110051762
As 14.787019704509524 13.949987658256873 17.678182744954043
As 10.167360585238244 11.435096547037976 18.866874006250416
As 12.654906004830956 8.657588498555075 18.878268340923338
As 12.598048272618668 11.103393800375121 18.5030570674308
