55
Energy = -246.46744105 eV
As 18.342107043189806 12.577519084027044 8.358668102763911
As 15.906891618026373 12.874553739208553 7.690879169267866
As 13.182893612126334 14.969588539668521 8.865012505470284
As 16.14405423984253 10.373747486296162 7.502137592232432
As 17.978784314449697 10.266975936549803 9.230799925815193
As 14.027477597491997 9.380887210367197 8.420473969154223
As 14.269331568672484 12.837007238274305 9.64792068053262
As 13.007291577316915 11.597965757472346 7.875180028300919
As 10.944928920157823 15.003393046534475 9.926003854587407
As 18.81998061266198 13.812724423700066 10.48705329071543
As 10.804331850850312 11.200716031210108 9.33220227150995
As 8.988273549879686 9.703011791056493 10.64636786459133
As 13.342060621397223 17.049550423683588 10.27785079865848
As 16.81964668737896 11.055525939168868 11.27460860920545
As 9.45862521564811 13.254416560479505 8.934943079377584
As 16.54965385106713 14.499976257914707 11.342532807471663
As 14.174118044428464 9.67011180238321 10.922153768268387
As 17.301858477360437 16.85079259784466 11.200779730123
As 13.27506680543025 17.427649891887995 12.750186933238606
As 12.024523433656816 11.700886335793145 11.423264894137601
As 15.578907046382168 18.128761774470956 10.416652853216688
As 10.748740306954101 9.64918880158996 12.367029262197462
As 8.587218648474874 13.619746291553737 11.25263449291634
As 7.633265516133779 11.409375014193113 11.878245161769568
As 16.29425104534769 8.611103201731787 11.72218413164312
As 12.485990120631831 7.970659898377061 11.691802089230292
As 10.925461181132647 13.793481915477338 12.147842807563038
As 18.93670218922513 12.021693533192321 12.242848501159292
As 8.236958210582046 10.965203812208433 14.277032094993766
As 14.990892322608879 16.377473908520134 14.268031484030303
As 13.27666659781429 7.925757375556915 14.085243460891238
As 9.666865269419466 15.555489432236707 14.414836098598908
As 15.636531200188776 8.875873591919937 14.11490293846206
As 10.927342000725881 17.695565399557395 13.566475422066762
As 10.583783382917023 11.60791759928144 14.879879823085359
As 11.421768559001297 9.199814999804955 15.321614516237302
As 17.8245110679677 13.947401419400535 13.457952324773993
As 14.69789611059492 11.178681419763677 14.319737431823532
As 14.204781411619336 14.200840405250265 15.280593647106512
As 14.41214536242469 18.226068078050236 15.789009132409845
As 11.529994426201922 15.257974900781702 15.91045453751522
As 7.5537142897655025 12.816535851838681 15.969419062134504
As 11.930877238806 18.84604534594297 15.500371360618034
As 7.738754335693391 15.416757956937225 16.138751032546892
As 16.41433963065078 12.84527504218391 15.178275295171822
As 9.542225842423711 11.888408619483826 17.129856341079215
As 14.899041592419895 10.711017148026489 16.78066348808392
As 12.746884313055931 9.564815103268524 17.42940293875682
As 12.824024933161905 12.019613563035334 17.015620271582765
As 11.289639960678706 17.266373403929087 17.35740252379922
As 14.53531557030341 14.873672471278807 17.70492738505306
As 10.485304052346585 14.114577703252793 17.82896308903435
As 13.741020271916359 17.214614439928674 17.996664823538882
As 8.461801917663834 15.39010316770998 18.381429579591977
As 12.774139212176678 13.606772095188779 18.97388550033953
