5
Energy = -19.46042441 eV
As 7.674187685626074 9.029847021698581 7.084996125160137
As 6.29498443629832 8.078000913218402 8.700821530776459
As 9.585953345646372 5.404355285643202 8.578654244990494
As 5.555413447583605 10.13435366421466 7.926129241692726
As 9.591292330730601 6.541370634361931 6.777840443630769
