50
Energy = -223.28912867 eV
As 10.212294429323133 13.710556162356758 17.943206166063945
As 9.08247769501564 9.068519595363316 7.2358572263529135
As 14.197134484979363 16.01923056485065 12.538337838945004
As 10.441856119655656 11.197878672531656 7.5217508436635425
As 9.384717757188405 11.377752832819327 18.19636516514727
As 10.013430728988524 14.907969607264766 14.070408755255965
As 13.33382412464837 15.838227309596917 9.301298413486476
As 12.002808329638906 8.930884858119944 12.162930980252415
As 13.5033693074897 12.315064775045382 8.136512110815362
As 8.63996993455328 12.911217312082304 7.465961805231054
As 10.590156753071497 10.461687655017554 9.932696893256763
As 14.804374509068282 12.785946012737439 11.422522542986087
As 12.111206276639265 15.99008838609559 7.052215181467491
As 8.467776813719802 9.106621040359443 9.680333630803386
As 11.556522436349193 9.322584973666443 14.623954198461737
As 15.275072883413204 13.106150139610932 15.010468934266951
As 9.466291236067558 6.828829330118094 9.698738107711089
As 12.778988429967498 14.079113330226011 12.06878663516193
As 12.949690920257591 13.98716780567233 15.447204797302394
As 9.943650062312582 16.889979449133186 7.920954379381529
As 16.008588980094217 14.54839371007779 13.093942249134567
As 13.998974177877603 6.635305369455762 9.818324116011867
As 10.031565801455473 16.228303142038957 10.366265093045
As 8.222152984753297 10.969861738306651 12.767985482651431
As 8.719549961572193 13.97525420585452 15.954029539751922
As 14.38768760341466 7.341697241088523 15.046938127203486
As 15.32262416427753 11.080758931560991 13.644214978066378
As 12.086426742811927 7.031545649023603 15.417721500485234
As 12.569881035591516 5.458026333715308 11.505586891717472
As 13.81731080155076 10.804483111878852 10.146444873296847
As 9.97368593995272 14.834145757154898 6.520618638981008
As 12.451515841849602 12.688267486718708 17.491968789468213
As 7.78145687304251 12.899988697247869 9.796886789444114
As 14.838738077870415 8.668454633067766 7.294519397214108
As 15.996817610458482 9.939833287632457 9.072499811406185
As 7.978584569987461 11.72930329783097 15.141182077105594
As 7.733101364721458 15.279304133061324 10.502716477619277
As 10.874831987892152 7.329049257721675 7.653842523227142
As 12.787682792363242 8.545914928934998 8.781550076633946
As 11.356380023910287 10.474781287106344 17.318723676979904
As 10.568736062227378 6.857467999720038 11.959206784403655
As 9.697874175789964 12.354106139212437 11.287671214455957
As 15.053000266904728 14.031800542087312 9.099750859507903
As 13.981752693784003 7.379109643740839 12.243051483167605
As 7.7283250286690395 14.951336628887663 13.009272974341823
As 15.346590581147867 11.069618244512828 6.940314289509483
As 11.46545334107161 12.848091964815113 13.788151150493391
As 6.562243108656733 12.734958022875034 13.331522850472574
As 13.979437431409016 9.770636311027713 15.231581876262757
As 11.514192953604045 14.278402173135772 9.922714698539268
