52
Energy = -233.32017043 eV
As 12.38195268622007 10.038848317541964 16.172099183945534
As 12.204379378590264 11.42142396071174 6.7579093770597884
As 5.968141884727547 10.202595108607017 13.566565489655035
As 6.054807781320012 14.635476104977496 8.865670155294803
As 16.404556911195 11.027049598273697 11.039189939422384
As 7.883407725216402 8.858004381161614 12.61541542981721
As 10.490784239477655 8.464381193135463 6.221395708176372
As 4.881596974062968 9.570733829962064 7.788406198076276
As 4.593596551530024 11.93906920448754 8.271804866846365
As 14.462195838483153 5.897260851223286 12.727408241633816
As 8.403684754454552 11.931739905751904 11.0282722470737
As 15.089424377650245 13.58106948258318 12.810460055063274
As 12.720296009087582 14.060771007956895 12.324614471906647
As 8.284680192964974 7.551871258021061 6.91020547306666
As 16.278011640863582 12.121576849792675 8.789234507430665
As 9.878307898167096 14.970977506840109 7.632473653462632
As 14.27145184855942 12.742234263688957 7.4747696414218785
As 11.80841443720693 12.115840081620847 14.82492843522004
As 9.918740505039494 12.652070603861631 6.498858753631927
As 11.006130159573923 6.829323524642182 14.272570494453214
As 15.551669388513888 7.506360593941304 11.134868512855466
As 12.733212584076007 15.779681058913647 10.499720123751814
As 8.762235661027617 14.360317192624603 11.553079840345537
As 11.457711514920899 14.040853086851923 9.262157792206628
As 13.484079507886014 14.967511258164375 8.238039842661985
As 6.415963286233464 13.035061324310934 7.006304539821971
As 10.396086219038517 9.211960853927998 14.805787329747002
As 7.130880985971543 9.74358521085816 6.6881298733765435
As 13.918377957832796 15.28812266348956 14.141168341151939
As 13.82411975952118 9.490490356428314 14.200799795954916
As 8.226814351110255 11.591458462054218 8.020614375992318
As 6.517332264662376 14.084674650983336 12.63351105863309
As 8.224281002666753 15.58215399248466 9.386025576374646
As 9.29144137124053 5.676545096229169 10.932016080742041
As 11.49367900504105 9.623286859343821 8.357260947356366
As 4.812359555028612 8.901676443831509 10.296520878596114
As 9.681322976993181 7.3342527935196395 9.028008599030505
As 13.438525641126377 7.0979675699831875 14.656704619254764
As 14.144822302407798 6.231420253740419 9.48161091418782
As 11.052785682206908 7.270345936030201 11.79638848549422
As 7.281692360829319 8.765459313328517 10.230643822633477
As 14.430675652203204 9.652511527099861 10.426301719136292
As 5.975474216339166 12.59719997833819 10.4898108767657
As 16.472064605247084 9.666679266883063 8.970670536719213
As 12.52887720723368 5.359378955909491 11.219028333253174
As 13.255817790954872 7.8363776162387575 7.7920371406987625
As 7.101485754919211 6.709363062899184 11.635232333751883
As 7.691419440539505 12.077319630708313 13.486550453245776
As 4.494656256395516 10.868980924178542 11.724050135458596
As 14.18210040534854 12.985363820303515 15.048377798800022
As 11.759368982013138 10.34133990552409 13.007016625069616
As 11.299190385483051 6.356812186535768 7.294268891850929
