54
Energy = -241.45495874 eV
As 14.215667111727761 17.04856736808657 7.430938070251249
As 11.912110193969154 13.75923772897224 7.480768650775824
As 10.562678258956524 15.86315359505989 7.976356488702363
As 14.294687806096487 14.587317542128394 7.58999542249605
As 11.943819192384568 17.40918656299104 6.536084132339968
As 15.944354761929631 14.321971658710668 9.587923727402073
As 13.530467503903886 18.34224575402323 9.534543614446585
As 15.130737893050616 11.98806893766205 10.059334787322316
As 11.176434460446702 13.008514240661974 9.799953642434778
As 11.972711409010458 15.367725551608553 9.940466187572044
As 12.085050374779401 19.58021256173599 7.892762461285822
As 18.512280925736075 14.567357945341843 11.225468845322307
As 15.130393807930645 15.994210785409129 11.35666697578358
As 16.890337285244236 11.339242967551362 11.728338883043701
As 14.925036855875668 14.417297199830182 13.24415058703643
As 13.089421499881276 12.657754644846698 11.39110206261565
As 17.539994532558094 16.718332287835928 11.738665581284462
As 9.580914878811413 11.140412051423478 12.665181233434499
As 11.57551183129195 8.707531420767946 11.600914973770518
As 17.280086858784635 13.500315759505602 12.9830964612614
As 11.019663369970802 18.472608194422406 9.825881254398194
As 9.502029089555093 8.709141980742777 12.682281599322078
As 8.337890172485611 16.67497141595075 12.455652008784387
As 15.347023447220145 10.274716708363776 13.39616943288301
As 8.306278405578125 14.168155140110727 12.803004559196985
As 12.095795264313129 10.770146856693888 12.79007899718061
As 10.752645398598686 14.217872460944385 13.39182245868566
As 11.582121576036265 19.880826479485137 11.783345120938145
As 8.547676033969918 11.5513978656082 14.937173775774186
As 8.061566787337435 14.038082345569084 15.286357067146207
As 15.032899020186768 8.142344529621093 12.14835901708808
As 10.76203196889318 16.285980440342918 11.992526305283768
As 17.6447113567428 16.787153044761247 14.307957718442857
As 9.184608156336772 17.464048496679546 14.623745492421577
As 15.923584938255912 12.490828682384327 15.609553593514873
As 17.035824345765022 9.314139062506271 14.969163278623233
As 13.849738929590654 7.026649570404037 14.023186478163696
As 10.193698184683301 15.368852652703486 15.541083735913805
As 13.805394679746007 11.232542883234263 16.357909964372073
As 11.571206603637235 18.15839005955186 13.456152875846254
As 16.09638023419702 6.232117739168159 13.373901773113195
As 15.318921183970986 16.151318285217418 14.98213038768626
As 18.49603803335643 14.5835707268398 15.001288086395974
As 17.09140401665923 10.809119996791122 17.019491592833237
As 10.536462885786744 10.587853797608632 16.07799519173115
As 15.772310655142899 7.295661545377748 15.605176258923308
As 11.816987041920374 12.440461532771995 17.19457975404683
As 16.579379574728957 14.694790528982406 16.621320492996944
As 15.025313711711584 11.2538665200924 18.44969486745616
As 10.978169228468566 7.852981982971451 17.526364614277366
As 9.853394821189331 9.84913444431434 18.40361139981967
As 13.544296818941143 9.645310778085465 19.73160793685908
As 11.648532686841666 11.229231174006369 19.446847344621734
As 13.156369738447587 7.790121316176235 18.184918579313553
