55
Energy = -245.67349833 eV
As 16.550289100319954 12.946854053121141 5.332591658563058
As 17.957004488613983 12.24711384343991 7.301662164689223
As 14.46132522586643 12.1547146028159 6.452714387122933
As 14.919859294129722 14.568524698617214 6.254542584504868
As 15.987081555037715 11.278156557913421 8.406488569394517
As 18.149363678298286 14.438460132544561 8.445496176459436
As 15.813256408261854 15.266260270747189 8.461460649484012
As 11.973715258159531 9.273666670093363 11.632202180527019
As 13.056850490721763 10.674786633110887 10.131893651164376
As 6.769859211100178 10.895486766212455 11.716516939393511
As 9.132890771144679 11.0599557455832 10.943164212397244
As 12.058940787665017 17.48719373825053 10.01190325207076
As 15.403280308843124 13.224600370935002 9.813998974716101
As 11.558983006850335 15.106354794254022 10.499966178532288
As 17.950268440630975 11.173861904399883 10.675246097447378
As 12.211271541144763 18.66560718712798 12.244247627938288
As 8.542342719267934 9.53632574168303 12.812089127552124
As 17.65201825558436 13.632823808320486 10.800172649479263
As 9.761679556916057 16.814884584585478 10.714610676772823
As 17.044590149464522 16.10554675861506 13.475677379643153
As 12.890386660295063 10.334271833078349 13.688239326043485
As 14.027908179595991 12.288824859266631 11.69080968127929
As 8.012647553769844 13.02207987754359 11.974948697124102
As 16.359479286875885 11.19414916413563 12.500107049897974
As 12.01165053288958 15.284680165530608 12.966687345853996
As 14.36651517748152 17.615213056352463 13.096998427362033
As 10.42335930589307 17.182586760024858 13.177734904598319
As 15.692826570299577 10.987607446133678 15.438031170938274
As 14.102529563530224 8.120525240463182 13.792390342074082
As 11.14491492939786 13.193246392511913 14.05299095967058
As 17.901231979303592 12.176841197754845 15.241144449357964
As 16.23164207374436 8.689728033550509 12.644526462392555
As 8.84985485777563 10.68010914037834 14.975448011807432
As 16.293330595805134 14.028030256790307 14.571895483998796
As 13.50363693294121 16.532891647626204 15.200072811373163
As 8.697390426109814 13.089840585362278 14.339016510207927
As 11.153776672228172 9.700474991361384 15.410222070087338
As 11.995902666023534 18.437439467459175 15.799740863475796
As 15.538207604931342 19.296072854520716 14.63650943022567
As 16.162153336689233 8.559179573871067 15.143602317103953
As 16.925284270583596 17.348469691181897 15.447708981695746
As 11.498904614132705 14.438020457903235 16.211938212139607
As 13.857230593529673 13.012226291181937 17.21116607857311
As 16.080959536962006 14.672128156385321 17.001753034812413
As 14.333765324294975 18.478962202329456 16.66652219723775
As 17.6065287891102 12.909182822365723 17.619889997617218
As 15.46246346928711 11.181846978532873 17.95918127222444
As 9.506558930443662 15.850454018573599 16.57572363717024
As 10.89784229919255 17.47733659163244 17.85007414447616
As 13.500724658235766 14.05630747291829 19.44698262213065
As 12.027435767768816 10.922560012313394 17.421809953670284
As 13.692660365129155 9.301488532002189 17.793100335078577
As 9.759823709978908 13.728562088400714 17.858941235024954
As 12.414163498360333 16.309684564959248 19.458711006458376
As 11.05823414398826 14.284593837834601 19.94553096356653
