50
Energy = -224.46450335 eV
As 14.5912077732168 10.231120230695362 16.29829911620346
As 14.650401728604715 11.19959644956037 9.717394721081078
As 14.54744980686745 7.636483924258945 9.928099537391274
As 12.461859642414145 10.940274916493209 8.426516713230711
As 14.080726744033226 8.763297465636555 13.109883512412528
As 14.15891753120668 13.215805394667756 11.115675876650174
As 13.458034356579898 7.15266882395301 7.713072703748376
As 14.690791080343628 12.594303722352048 17.012000630661365
As 12.28121862440102 14.329384181066203 9.863276976150853
As 16.087117033741215 11.8224036723326 15.118084512251986
As 13.546258937361962 9.461598598204366 6.752715660056758
As 13.511409617581075 5.658399589313668 11.142511910564368
As 12.630120579174983 9.950978714023114 14.79666895168742
As 13.145291182034073 9.50677349671149 10.886710865577344
As 14.080276648687104 17.582801273101612 7.219932013780286
As 14.701994036412612 14.844391405151 9.302807388218568
As 11.884045370847884 12.080159943065777 6.157270660639189
As 14.296822459836697 13.467931866631933 14.697594578058201
As 11.331435286982826 7.354777148957087 8.919315544200147
As 11.437808585841571 5.083051532409891 9.82648818529493
As 12.530221332113424 6.793669419123137 13.145361920646263
As 13.397489475406527 16.301221347998844 10.822265979902205
As 11.211024308584236 12.726723692215433 16.20405398440543
As 12.230815709829614 16.230158771146606 7.156968960020019
As 12.252575757679473 12.254916314667975 13.967278981659687
As 12.448269795602497 17.868088100161636 9.018020346613195
As 11.338889745257841 9.726412490427137 5.550884013459318
As 9.054548617499442 10.898593752984159 13.767245725009051
As 9.550368578437633 12.99891208452903 6.248303094388144
As 9.52443491717092 5.706611705468514 11.319745850181027
As 9.757283699550705 9.556218757699122 7.532509317000779
As 7.99625441790191 6.487107020411131 9.419927910815739
As 9.465942086075833 10.972934174566563 16.26556241384648
As 8.720174694627115 12.321415819969229 8.510988931733495
As 10.005607496503197 13.431210051133577 11.401335622738406
As 9.373006350009748 7.5537561714983505 14.411852248125504
As 8.786695126721693 13.39083495734363 16.277376688688346
As 7.000169063704658 11.695381723593155 10.997175950540294
As 10.463871452983916 7.891750027687698 12.202515379234596
As 8.019504936796995 11.04024215784303 6.486550022195904
As 7.423002942753319 9.0769910245996 14.292011696640978
As 9.422882369901105 7.024907701552081 7.368638844829796
As 7.575319562615412 12.90416577970428 14.149476785374086
As 6.383223655342023 8.37343775821975 12.151814795481975
As 6.084081553022486 10.089133621148548 9.324686781231234
As 8.034363417742062 8.8265739388121 10.294790615451411
As 8.381880123701366 15.090112261416452 10.563137070108578
As 8.789669960424684 14.782658753409992 13.019421200836504
As 6.705726289293639 13.618192182430363 9.423875986316958
As 4.959543405869934 10.343734743310735 11.548788876740097
