54
Energy = -239.18560749 eV
As 11.287229383281591 15.33592756001873 6.526975136595235
As 8.25904028170425 12.685168470490039 7.431337179738292
As 15.249472787699967 14.661337000762048 7.141072993531318
As 10.81521455888196 13.113885107583664 7.587993862166579
As 16.121130629529112 12.4407717697622 7.97208869600548
As 13.2960751582644 15.964094086934015 7.925672347767698
As 14.202649105545348 10.818854748017127 7.813493661967332
As 16.760725282059038 15.534421926597457 8.968061972908554
As 10.282246106027046 15.243321293382428 8.784358420737384
As 12.989790011831905 12.14135636689797 9.550937754315349
As 7.814232827799531 14.942382780108884 8.464307081716322
As 8.493526077216508 11.854464706577065 9.824853458022035
As 17.06325722245304 13.298042020073368 10.107170044422103
As 14.041218168038267 9.146099357422537 9.661820488480213
As 10.83723778588683 10.911184707173845 10.152205079697874
As 15.189356241053149 16.348553640407772 10.977998072001927
As 15.626616452865118 7.291464094970568 10.341805461835994
As 14.526135051629486 10.947490884540832 11.300168591379764
As 13.027373179220259 15.203094767571358 10.356210733815306
As 11.049854782917338 16.436114522712693 11.4921444403691
As 7.5050486341547575 10.18804104107916 11.216973097306
As 15.199237248615283 13.901191060009756 11.685779083026082
As 7.766723372188413 13.98704316087569 10.810083847639696
As 16.577487596576507 8.691065251497012 12.186339306627268
As 11.8038173623718 17.656050027447655 13.61036493929414
As 14.138755893453473 18.12203321517856 13.345595407998609
As 10.910243485231607 12.105010496259004 12.304396022051117
As 14.46387837105973 7.460357307476326 12.51908648117723
As 13.146619280731928 9.587282122237719 12.904367706707822
As 9.753003343092862 14.458775405757178 12.270541720600287
As 13.895946294907052 14.619059449670189 14.764194517387121
As 15.860938243645487 13.260235826378445 14.010600390774009
As 8.923299469253857 10.84323613840966 13.139249995042565
As 10.72314638096414 13.465897313255558 15.014992219993868
As 15.194585823436553 16.75237445931947 15.053640425818502
As 17.645434448058523 14.342379623460792 15.321639611707015
As 8.116973813749976 12.744554799895186 14.656295556615103
As 18.425077866641605 9.222888754974097 15.282953618777396
As 13.756846855156953 16.981063497059463 17.077315505267542
As 17.379924267180282 7.322072679851299 14.133950748190466
As 11.466073250676082 17.292710162607168 16.072649409213316
As 16.458490002088112 10.826175311071243 15.45760369028691
As 15.355817370559194 7.521439009046433 15.679845288375116
As 14.222518932886695 9.67592818880533 15.248800295767682
As 7.553898836803198 9.372422326886408 16.492839817188905
As 8.744960549169518 11.559931421370147 16.811913682154334
As 11.389129762818166 11.92551260255504 16.80063003618021
As 6.067181291451351 10.995078682950824 15.418523531952971
As 17.065246948869827 12.801437313092608 16.95739025316086
As 10.20405965709416 15.233023162800256 16.695929550692277
As 14.063357593986758 14.490822929673898 17.25004754961852
As 16.8450361197053 8.934354111946442 17.177509490230044
As 11.79887933680245 13.98424227327124 18.176820370035507
As 6.377060247550088 11.089360106662483 17.801540400504475
