51
Energy = -230.26748699 eV
As 7.3052214751974685 9.920792635325924 6.66829417631884
As 9.430046713050258 10.318297984569936 5.290211883537415
As 10.91811847845956 8.286450159275836 5.324254571322381
As 6.984487890889021 12.373285283232311 6.415778976611629
As 8.130630090142425 11.365529502781419 8.513012785168547
As 10.24059901594852 6.6041295139116745 7.043354003055413
As 10.290605333168442 13.881847956548834 6.283593391232332
As 10.642214991244579 11.539133627551152 7.087290102456555
As 5.886110980198799 12.45477466388359 8.641682106149396
As 12.772693140751112 11.457034311912018 5.851062069295775
As 6.863261992015737 14.749833379057455 9.047736723228985
As 12.337805437747189 6.404398044058789 8.378138492989997
As 8.821870485165872 7.276854201238516 9.019747982166672
As 10.635310204232674 5.875149435875262 10.171742683294246
As 9.41771799184117 9.430827660301649 10.116881601484769
As 13.107394908956417 9.028595199470615 6.334085890464642
As 7.110474552672015 14.57044261898531 11.530659448893614
As 7.569182509395921 8.875259769377884 11.690589833482619
As 10.757068129292346 13.72994306573811 9.492119027192786
As 9.201355231604017 15.154370267272292 8.201049751342811
As 12.566610044524598 8.867144472121701 8.780312416123595
As 12.275307618020342 14.637305030574426 7.712131064868217
As 6.573430203122984 11.03243948064205 12.655391819374673
As 14.009676123208644 12.787123051996806 7.592087836409183
As 8.477818037433478 12.589754976455195 12.227725718629692
As 15.046913492207338 8.608669657194842 9.070871063195325
As 9.039183658909307 16.127134021188436 12.033620707132712
As 13.416050314760566 11.938473128283992 9.893662829102302
As 7.859334210690059 13.658162834460416 14.38865330830597
As 11.577757188270876 15.309014745346788 11.199032460281876
As 14.033311615648845 14.177055041384339 10.896963719411705
As 7.391135551662609 10.099250500813502 14.8810037029808
As 11.448072037563612 7.703396385710017 11.66279439309008
As 9.271379975819661 9.331711498636022 13.41682349842261
As 10.930070316841674 11.418730127766999 14.897993590501486
As 15.652944891713691 10.878268221733165 10.0455396704374
As 10.090221753123624 6.987172738525015 13.678100644547243
As 9.603051618306583 15.431764497338072 14.29060304984618
As 15.550366819932806 7.71506549377822 11.36542603961867
As 11.65472729364295 14.03119343015419 13.29711971031958
As 14.072957938093726 13.722105784722288 13.260349826719075
As 8.72771291629929 11.953952722612316 15.973757412761683
As 11.104038949396681 9.451977580855175 16.51605654362249
As 13.357320766438969 10.197663192744521 13.310258799368755
As 13.60132501956617 6.55369291575984 12.389222375717756
As 12.537318037608188 12.55168240621661 16.453483477055105
As 11.797377258839681 7.287670390384322 15.49061805386205
As 15.696411276513402 10.01571261506818 12.423821941446196
As 14.400045218741768 11.378353552312614 15.273286291906562
As 13.27953248490547 10.3068453160159 17.297406311517072
As 13.897999670269465 7.9839440723249675 14.374301880691489
