54
Energy = -242.92265238 eV
As 13.75505560388464 13.730516386696754 7.245760425862017
As 9.827474924646008 11.707689155285859 7.608254409873197
As 11.700231525305693 13.054551893639143 8.661257286120097
As 15.928568146885299 9.804684765537926 10.241750830814073
As 15.243099290097048 12.069891852852344 8.267898063765882
As 10.494451095313002 9.280723829052908 7.944802207633985
As 12.708993812717027 9.388143814815427 9.13192774833359
As 14.451120937938759 15.99145481781955 8.044086477201608
As 7.9452243033902015 12.197009639456857 9.311645752632602
As 12.281245104032083 11.411980205096572 10.435030472999507
As 17.371144189559093 13.29248003691774 8.720346036488255
As 13.374660067055283 17.393045440474175 9.910671064858493
As 16.7081095246369 15.697141781827721 9.042058116217406
As 8.62308570787158 9.024046315309816 9.557020194455614
As 10.499312532212913 14.528955792126451 10.49667677064605
As 14.995892127898863 7.90952904936209 11.595693369733775
As 12.507348891913175 7.958314732889328 11.236249714921996
As 14.687933221861373 11.964666814178786 10.682381799369827
As 10.919997876524926 16.983027560404256 10.33375488541215
As 9.147731263654702 10.868506315878944 11.07828509041117
As 8.270646596619255 14.579982928810262 9.704162317512594
As 11.255306774974526 13.380624950203757 13.166410379231646
As 16.538222273916542 16.176566256098745 11.523144025404772
As 18.21713514904698 12.790172670952034 11.06704843855833
As 14.073105015325968 16.03190200751523 11.832875200768312
As 17.631270334861764 10.479723146499731 11.952978632121706
As 7.697494858606947 9.45604665748244 12.67027988815322
As 10.412364624032282 17.30881378544059 12.80356766014671
As 8.750496385710154 13.511194010897206 13.284586788240357
As 16.49972990472382 13.888413958331688 12.526078423535273
As 14.409156564582673 17.968120025745804 13.335250765393862
As 15.377463810295147 8.634078133245929 13.960936815046436
As 8.578709463433283 7.412119074673997 11.50743865721747
As 11.739842868918808 9.691785623374868 12.900580929948894
As 9.705465948451081 8.301967129916802 13.530215049489568
As 8.068015504303952 12.292422508033521 15.419639057706867
As 8.08080990664635 14.458006555764001 16.600541095341864
As 18.050324424451365 14.000768691568004 14.499850778788996
As 15.73665628282071 11.104400867117656 13.482639511203057
As 13.03101247696523 8.663529345764811 14.817135927611528
As 10.23325862819228 15.302279415755136 14.292983655505767
As 12.161304573672579 18.08067997208155 14.385382946807312
As 10.111865360021836 10.954046316387759 15.806103956407943
As 14.171551984555753 14.276711175882593 14.52070298265058
As 9.353608878664884 14.68916255629821 18.486562998859874
As 13.947818265530476 16.597195621590426 15.393164839648483
As 12.036021425368808 12.60412275295028 15.63069530713175
As 17.17166434744167 11.858759755187103 15.432799446178981
As 13.684857540577752 10.753093152099071 16.03605840746094
As 10.473767852525214 12.67761823519348 19.32786207923992
As 16.102509940124506 13.996370717205611 16.10705769765117
As 10.161936951778856 10.46721768769823 18.182564354471232
As 12.600478900531503 13.034890025465987 18.14515287638737
As 12.71015074029318 10.53555879451139 18.336702097791463
