5
Energy = -19.43228554 eV
As 12.031901130689008 8.63110346048346 9.58022322759303
As 9.242672355794982 11.409735066266197 9.22983078174293
As 7.289981718066379 12.227565246854677 10.567493395576268
As 9.441404062357613 12.123988960775087 11.44071720791514
As 13.321195909858103 7.539482682801368 10.862170437014889
