51
Energy = -228.26280161 eV
As 15.391604073019314 11.266729497902784 8.247961826598731
As 13.986451457871652 14.417325137126772 9.018441263164531
As 11.741023332325108 15.419506038066459 9.484270408299276
As 13.31760260582396 12.138477255863778 9.246813007207814
As 9.912724985457395 14.313768874497967 6.658068261319876
As 10.018901136578558 11.689326197241423 6.8661141380552575
As 15.255900582282138 14.330547792707097 11.411718953803154
As 10.184908661433441 8.977068997205764 6.462742487923141
As 16.47739997650173 11.092006908229742 10.288558671210625
As 13.678446980858155 7.990818741302253 8.473306431295585
As 16.893189291631018 14.05727164507389 13.504167701328797
As 11.30956730384422 7.392142626904209 7.971242423267074
As 13.707423580721091 5.631878634919519 8.989821575377132
As 8.06698375061692 14.027572300403133 5.009170346611341
As 11.517132500458098 16.124767299108363 11.873758122678895
As 15.786132559618169 7.930831942081202 11.454506845844834
As 13.496651102615122 8.893778096637707 10.89891065808278
As 15.120209328865464 5.590662666613017 10.939714530725231
As 10.421980243666951 13.333511833163103 9.935085785911923
As 8.700799839048397 11.60866215475531 4.7034287403746085
As 8.483616984317841 14.244503110683953 8.625400254762171
As 14.604681826388086 11.9332087416896 11.707636752506538
As 7.855698965095763 11.759220224823451 8.122618720600448
As 13.706145286721846 15.537789099727767 12.94739246183376
As 16.320138802111373 11.725339620025686 13.691828603171114
As 6.6438764589116825 12.243649944972816 5.970738223539888
As 13.785084485158853 7.047279216564867 12.554451016704652
As 7.959379597216454 8.99178813699446 7.318488871569909
As 8.045982449852383 5.925717183651658 10.001278944564794
As 15.390495431292164 13.321014998641358 15.347491635661266
As 8.08438211491436 11.537829071254594 11.737421629092626
As 12.023367124579922 11.873101065804144 13.589633900653347
As 13.054521251104976 13.937261804113803 14.689783389694073
As 10.108838679334275 14.073002901645173 12.334592415066554
As 7.779023588723902 15.023470473774285 12.323005859191834
As 10.776701010524036 8.301005983969757 10.453311524039812
As 13.2771771191562 10.004039038983022 14.747588545018436
As 6.415214081486017 13.31022054243508 11.069043155708865
As 10.352563449495674 5.865102816160174 11.013374199389105
As 6.78327582425139 9.40145215395944 11.329024587924938
As 8.344272794376312 8.384227181956465 9.682504016091107
As 11.315643932612717 8.417382371698807 14.70420710123056
As 8.323705100337174 5.914081210173908 12.452869139899349
As 10.544620175095192 12.109991788229259 15.665839324231525
As 12.259195519336732 10.831746931933312 16.94789687119668
As 7.093214059111317 14.007651417323117 14.507848057507035
As 10.115471369393202 9.41881310600246 12.787854975520538
As 5.205663324581844 12.925791986727164 13.26946342256486
As 7.152539072729774 11.567737361702141 14.08748537893599
As 7.968522142270085 8.29006216117043 13.238658722049042
As 10.058134696854006 9.795086198806217 16.387883644920805
