55
Energy = -246.921457 eV
As 11.356834381776844 14.955587108292416 7.06147482617009
As 12.109091398760395 12.666001699247012 7.654962343846911
As 16.05585583099094 15.381037829795826 8.940920550172208
As 12.663068079197226 16.36405229778056 8.67957041538937
As 16.08379241045555 12.893897016187795 8.650199756056633
As 13.360738653578656 10.265933656828736 9.819501239323913
As 12.188377638419906 10.590935375980278 12.01806230818917
As 10.280653679022368 13.735398054720312 8.960549348481406
As 10.736239932709063 17.25839044348503 9.983925672253093
As 13.728102433814351 12.759622635599364 9.61124817102756
As 17.839088363766063 12.71112337481453 10.454032788989547
As 14.968074389561957 15.641161640896895 11.186575933631598
As 15.33016027555007 10.389786884135983 11.432856728189568
As 11.716209115159918 15.064226828587884 10.610787013631269
As 14.511265703554477 18.085821039401555 10.945986665785924
As 17.87842301452876 10.327736363197701 11.217718278383233
As 9.240183203893066 12.12011608426165 12.31130297031805
As 17.32026616711092 16.428138590312912 10.861260772539127
As 13.961469068570917 12.24246269170615 12.733742475634484
As 12.15310090898097 18.757337024647693 11.429847717004778
As 12.754201516959128 8.299763961597048 12.8730228923586
As 11.568390892909804 18.127377760181453 13.76470952369744
As 15.56961048109749 18.707533058054008 13.133066170929169
As 16.789749944513304 13.351274021690827 12.629832541736356
As 15.22451590162477 8.258546209533606 12.651177811327544
As 13.779074307635327 18.348683636643088 14.862691364554905
As 8.637483920808256 10.208966876716444 13.81830960096624
As 8.2536792163226 14.255419563446399 13.137823145549108
As 17.856369722024823 11.173241724502883 13.550256149670707
As 10.666437298813632 13.744190478716861 13.563905171452936
As 13.346096022936162 12.190917070501904 15.146650056957156
As 18.359848661559955 15.322722809216899 12.848504112840558
As 12.978813836313963 16.107234081464405 14.09421915358228
As 19.519375227741893 16.114266553857078 15.983232490842612
As 16.436851431113197 16.47952176619008 14.079150263351114
As 18.490352820388313 13.969324073960523 17.268691241599882
As 10.756858962478136 10.590669682708054 15.101231284499116
As 14.33906870138838 10.087969069275871 16.06765996300516
As 12.421636673478531 8.613180701287705 15.298743597435852
As 6.918362771620411 13.722565862240598 15.156757848143766
As 6.886575891364047 11.236263410726536 15.283370206284282
As 14.617402297704983 14.07587910786982 16.27256205608002
As 10.73616254677966 13.68704902086889 16.18028394409132
As 16.23450003759238 9.341176901257358 14.668803797943859
As 19.4177711249541 15.90738879945626 18.491543979400298
As 8.47009056213371 14.057255230839367 17.121020584103757
As 17.629715408654544 17.619763578036913 15.954870749266115
As 12.525576555299828 15.504481798787092 16.493037047179545
As 16.996028088170426 12.892617847398132 19.309363841201794
As 11.60695935227751 12.208447907147242 17.882045730749482
As 10.056967372598 10.351545167725533 17.47830642962299
As 14.60104995902963 13.090841362084873 18.62048255110638
As 7.928268459837173 11.648654637699694 17.53602488785645
As 17.019816192995364 15.885059624285038 17.833488519379085
As 15.787093206015378 14.843190020688994 19.942385332754483
