52
Energy = -233.12661222 eV
As 14.522133464720888 6.886634894831669 13.140865130877003
As 13.066287737503467 6.498576074916144 9.236043039595426
As 16.4247442845681 7.914747186612786 10.620329387046226
As 14.288651350359013 7.765739495433936 7.465603802582366
As 16.53065961328217 8.093266327821562 13.06369920936987
As 10.742499851438014 6.8844731112325155 12.422156216646599
As 10.883633647494003 7.699988728492327 9.162233908374228
As 9.676369704904154 6.331335068334326 14.670120720455222
As 12.095296589693863 8.842874498311392 14.439168755857965
As 13.984056722522736 7.994561457130788 11.002947930936507
As 10.362829420784866 8.291568017066085 16.14756344179265
As 15.223487940741041 10.1134272003896 7.856052599931331
As 17.03337898840616 10.097597888353542 9.543835320608219
As 10.596530499205306 7.04856139124191 6.762003291403326
As 8.489638859741065 6.2780732265542305 11.516251644378535
As 11.574365727098154 9.998126070316001 8.396986118180406
As 12.330946173213682 8.858083107019691 6.297134018012523
As 8.435695897336997 9.848515108085191 15.916793904635352
As 15.203974604153224 10.876888899405758 13.388546846264672
As 10.593612110856407 9.390087225421453 12.512967864005718
As 8.107467124525817 8.459049375557921 10.331610086837903
As 13.570138732738208 10.66686230707364 15.31785566018136
As 7.14891876385397 7.811455748159156 8.13420633643189
As 7.484705080049283 7.011182739202564 13.68983205557641
As 13.536927561337304 11.053056397869653 11.583956278054616
As 15.139755807049688 11.707532226992353 9.786162470469117
As 8.207306251891644 9.400820935479874 13.50820966199597
As 12.759784969675449 12.975426675157099 14.772955731114049
As 12.425364791196689 14.528062097812324 6.216654426706443
As 9.628291267018643 10.672173595202574 6.860069233841331
As 14.248195982225255 13.157788962414244 12.760663560828473
As 10.4811994132031 11.361711991962629 4.718365490192196
As 10.547488729999243 12.317766320139482 13.843105289177686
As 10.033384620073793 11.75646858765204 16.19217667800633
As 8.63136900675956 8.491265555638236 6.203887582390762
As 6.252029471509699 10.733359690874323 12.574065559798985
As 5.72142184595821 8.686399633584532 10.9691419408555
As 10.981072783527194 14.220815594410652 8.18527029927003
As 9.294933651834715 14.502181451600249 11.083808263550226
As 11.785783140289587 16.303206304791143 9.324601961956503
As 10.362176606206862 13.742558146618297 4.965182955956738
As 6.939715628395318 12.979468481224526 14.260672679916347
As 5.416850888041196 9.58496138722482 8.637361034522769
As 9.491415020808116 16.882306360912114 10.28564422605045
As 9.031277986022648 13.800837016478717 15.189006078204965
As 7.674472806271925 11.93179700875864 10.941447027384614
As 7.560860549734797 12.143666916395832 6.930182654292771
As 6.147691632977557 11.975065171747787 8.962485802172067
As 11.01288688786372 16.4259986973587 6.974617880662606
As 6.980150533420853 14.092869313881133 12.034490754593342
As 7.892508272518211 15.330385054412874 9.220692396026823
As 8.552502156405986 14.420281485345331 6.8575939858832635
