54
Energy = -241.1450076 eV
As 10.855614847299845 11.586188532722073 6.494274676745981
As 13.018947834341931 10.581773278381961 7.125299903597439
As 12.52359066135117 12.900050794171433 7.873733398031939
As 10.331731307790225 15.933856276661091 10.119899374838491
As 8.639527580763952 12.1605741082066 9.971551859949379
As 15.999353623417765 13.73192018357938 8.143070798421881
As 14.30662921837301 14.061729951402976 6.598097062782716
As 15.10978992251964 9.305719463297562 9.274649182023461
As 11.167352255549321 10.466043865709734 8.761694166498371
As 9.68906847240063 10.705866414478809 11.7564540670643
As 10.586149111716512 8.036225627881715 8.95272534809975
As 12.736931250134813 15.597590680435147 9.565880264185376
As 10.086052498050224 17.34145230928987 12.184921995298271
As 14.967233772266706 6.844477302031411 9.504548504035602
As 6.597147925685524 12.498281955210118 11.443372923703171
As 12.58915414378125 7.376826728710348 10.365215355465617
As 17.420124514712498 9.618477067387078 10.052014156489934
As 13.747887784518163 17.743743220361015 10.345887997796185
As 12.257240419210708 18.634419638834615 12.152375275342061
As 15.492357811634358 16.19720865377493 11.261772017621713
As 17.188953109261835 11.936735685972588 11.062060887852903
As 7.599746560602698 10.980732207143648 13.167801626523048
As 7.634757226902396 14.6915533103524 12.019180685764848
As 14.957329921844266 12.423658089111484 9.954589035546467
As 15.646507795548656 11.181018187051396 14.974273025418537
As 13.788072344590798 8.250780838349677 12.913468467429322
As 13.862017235614498 14.2677138691877 11.391941115287693
As 9.954595386589874 13.829091368607427 11.39813280462816
As 13.34460227752863 9.742566355054764 10.972263893461562
As 15.797011417875915 17.047628422528987 13.604904397715355
As 15.499344107687696 6.6740056737431575 11.92741868207576
As 11.210227224915085 7.8612184465570065 13.309955578190504
As 13.55106172762547 17.980806588924896 14.218856038747695
As 17.313795351817856 10.67285377460076 13.239873424723973
As 12.876766040653974 15.616575220240803 13.889429994244226
As 15.058379983252935 8.904318303688274 15.099934760795032
As 17.398900689436676 8.365125464248756 12.232132481646245
As 9.600614729413817 8.25945149576704 11.289711409493782
As 11.59945906866556 10.126798999733781 14.421251879553916
As 9.241674976177332 12.566648907252873 14.204019789004208
As 15.087065219236493 14.958335604307264 14.82969608456117
As 9.447915189175145 16.416293354458794 14.558050211630444
As 11.094352200647643 14.753071142606842 15.375954791234951
As 7.700120072952905 14.560568393584568 14.487709907826261
As 12.771035105260317 8.759703534335076 16.197479225606028
As 9.603332804629382 10.63516354403469 15.882665570267514
As 13.761139927578853 18.02502795433639 17.097446222455087
As 13.043748127069986 12.494037966370971 16.479441665162764
As 15.000575391139673 15.87109690921865 17.16729864895669
As 11.60444637440218 17.718880163001543 17.853971580700577
As 10.922425613808537 11.814820931927452 17.638374799639433
As 11.148069479665958 15.317339675956674 17.80275078012889
As 13.016431904108728 10.49569483908049 17.962989482868267
As 13.369519100175655 14.29413736751232 18.243411364243546
