5
Energy = -20.38214564 eV
As 9.329237507616917 9.482304505825914 7.909655729072637
As 8.821029226032039 7.931309067958451 6.249701857248439
As 6.969374992019669 8.783166366285858 7.995817269630646
As 7.2072059205831085 6.203452530953454 7.2433242427611315
As 6.778641381936912 6.7991969041607865 9.447713028065959
