52
Energy = -234.57889827 eV
As 9.924548378200443 9.676164522948474 4.9334403073088975
As 8.53213524533731 8.035020524965262 6.190649844834638
As 8.192643758170412 11.183191527489095 5.97875440876356
As 13.521669887938904 10.730169928973336 5.4530741072091695
As 9.627491557172903 13.180980744054366 6.540316782197152
As 12.41125672459934 7.299840255650195 5.832766616598657
As 10.242363666928258 6.177615085797552 6.3051486751217745
As 8.374248588530648 15.436246171868493 6.758293781840611
As 13.414202488289767 12.911033851534103 6.6340365041085665
As 11.722267061505416 9.539103449183528 6.701337618394335
As 8.626515968279726 9.770011089476876 8.047019910394615
As 6.606938435742709 14.220154031619881 8.132117625217345
As 12.016038283959597 12.124178334521005 8.557616125890013
As 15.165055759617552 11.231617510800472 7.266959235016339
As 12.160790537385287 5.914132593654884 7.898701707921987
As 9.845190985438148 15.362713311619931 8.813343064828429
As 9.048438904186622 6.600540660020729 9.79462829836572
As 7.77953066716739 4.689766231772977 10.709677584515205
As 6.6548899664561265 6.378807933184646 9.237183803094204
As 8.770895163827758 13.096772608329802 8.874600297875299
As 6.313924951829508 10.136965165884728 9.055678527821629
As 11.644167319357466 5.387231461437621 11.222878696221697
As 6.234829419548451 16.129847386351248 9.749636297932039
As 14.728410975865591 12.298477670440224 10.890622280983948
As 13.851428431354536 10.532102781875656 9.298426506531536
As 15.508190268167562 8.508091641240297 11.620354993670299
As 8.39553192532702 13.995759323305315 11.80872480429884
As 14.692823126640672 6.734955452326282 10.119220956771146
As 12.828472361630086 13.838308905472227 10.212074141251417
As 8.49780363924768 16.242245209028518 10.736034797560718
As 7.182566985174688 9.73548330705272 11.36780649272951
As 5.445097695611603 8.21925102708284 10.417210442293602
As 5.071003432689753 14.967537500672387 11.735654132144475
As 12.27203212492787 7.443664546438333 9.88266405184508
As 11.287241779090333 12.50877773468467 11.707024493882535
As 6.228036433880024 12.994712863427178 10.764041645002118
As 10.677344146060609 8.76124119198941 12.97073731625265
As 10.565834299508497 6.264147849524319 13.300152623013725
As 6.823991539441392 14.808210434852304 13.5717113846577
As 16.631796192217273 7.20279755321843 13.429424421285932
As 14.087731407742066 4.913979951088107 11.685055866142731
As 14.430537724686015 8.281522410476159 13.837624103967208
As 8.314573856877464 6.636025102980141 12.176854556470046
As 5.485703542595633 11.325240582293166 12.418902293319686
As 12.351799570228707 13.184139372772337 13.822567718209825
As 13.250757275101975 11.198632856487672 12.622504539496244
As 6.61502415537902 12.392694415976768 14.4096597807945
As 14.637966313350754 5.810564446896532 13.894128007003088
As 8.820112206086534 11.469309374136069 13.56369155613204
As 8.778161999726947 9.133946532012901 14.544879933274654
As 11.128854242648627 9.485182949572378 15.326635141268467
As 10.63801715518332 11.9577711574487 15.234629724187476
