55
Energy = -245.34074744 eV
As 13.086926455065369 15.572759059437765 9.144080722194117
As 12.758817707302809 13.0583741827857 9.466236685586026
As 10.219301433300942 12.950510034850959 9.218897649232694
As 7.901453001011751 9.62329873140084 9.241501597537525
As 9.47591892818388 15.320151631122252 9.782467171314492
As 11.575235447781482 15.815516113579296 11.05094024749798
As 18.25814424586381 10.435849618509742 10.51679464350513
As 15.822377027910525 10.828236292426173 11.089752782874095
As 18.11428358648666 13.039982231857518 10.125747782442547
As 14.998706594522183 16.11676476537159 10.724040542083308
As 17.676347621344277 15.249008593218502 8.990259277124169
As 19.234769341165133 15.855382376484986 10.614249497194004
As 20.470551253260584 13.697648516965803 10.127469491055086
As 12.807231130821737 13.095616066359955 11.958539235177632
As 6.131217849172219 10.441599966973813 10.526159233807354
As 9.424913470669614 9.54425052668674 11.191484000253983
As 14.12394041367664 9.11621255442868 10.807704560705153
As 14.008123913039615 18.153094458361142 12.012803848808078
As 11.508715260556139 18.232238636785336 11.582887415338716
As 8.04900090723967 15.211324888884326 11.885203274290163
As 15.174150204243025 13.831621555568006 11.800288397158887
As 18.939556657935224 11.174154669736469 12.730599537749193
As 7.25552013982128 9.567128448589719 12.547546087771426
As 7.522051495112997 12.762548530824155 11.640508229334923
As 15.265959307590004 10.841663710891378 13.530191916585132
As 9.838609058862039 11.989744379117946 11.510134818211522
As 18.519233358991787 13.782609897491515 12.686122698508548
As 12.995827318827622 10.535493495471782 12.48050124853285
As 15.146207038409285 18.4740710678012 14.272649300387819
As 9.729533827224484 17.702821717696104 13.329957076275134
As 16.708952361540668 16.611588707449947 13.77946632497643
As 7.206699849388078 11.719231574226665 13.866624873992537
As 12.46160793535942 16.23616211526248 15.3258538604985
As 15.258820022854657 14.63448239717966 14.16921184615452
As 15.493230157310736 8.567771216995745 14.579567892931149
As 13.124990067151872 8.065077298530937 14.773318217946587
As 9.98989102783206 15.224064900706724 13.481634376927827
As 14.064677120323594 17.75371996360133 16.442997796060947
As 20.812649864323085 12.815061787270318 12.498456871921386
As 13.28058569972996 7.742251353519235 17.27918638129806
As 17.35112279644118 13.581731452850983 15.015787229024008
As 9.524013130528315 11.302026686081849 14.705378875710158
As 11.065353491777087 18.296963294288744 15.33185617665383
As 14.791643558785747 9.666494416755548 16.85738166661243
As 12.333617677217129 9.902629790881724 16.51062306934403
As 10.233594980284645 13.00935786039377 16.068046400173596
As 13.692618033384504 13.316860798902539 16.90042524020327
As 17.7266576575532 15.927357377660412 15.93691905880255
As 15.898789257682022 16.52637774252568 17.599861388951645
As 10.546728059541298 16.46837276060673 16.930618617859857
As 8.850524743594788 15.063432897964093 15.693201095239214
As 15.991314357259224 12.864247250754538 17.855148008250765
As 12.734471591083715 11.711846310462146 18.596079088445467
As 14.601761456829086 14.699457639614778 18.743548739557404
As 14.951685244658934 11.002379823660767 19.20171207175254
