5
Energy = -20.69537342 eV
As 7.305949467396508 7.338974953278002 5.222813423975645
As 8.062003891106858 8.395444418787575 8.91894275115013
As 6.315821434893789 5.9808973925218085 6.843127511232649
As 8.137897453386632 8.99916553390739 6.602920885266394
As 6.981943461507014 6.36595630537307 9.078469945672898
