51
Energy = -228.01553756 eV
As 7.919344658938617 10.62943479059663 3.6048425602164405
As 11.195624503911338 10.220540415820038 4.658420382119325
As 9.765073386325415 6.901530039020229 4.053754348449646
As 5.836973252901235 10.982795034940178 4.954143429781115
As 13.95335421307746 8.906137453271302 6.476988123409248
As 13.205174111496994 6.6815616062997965 5.611362404270088
As 9.554337825729165 12.135821836212628 4.774888065088109
As 9.850646320116166 4.534865774204566 6.41569764430433
As 5.62808355457954 8.42955271517714 5.01734576455711
As 12.69167271169668 12.475075361592463 6.733905618610625
As 6.026064452851358 10.418052546333739 9.199260303128566
As 9.063209317035835 9.020452018380603 5.166354292344802
As 7.967581035098849 5.366237447715319 4.957258077666862
As 6.740272329048775 12.767283686212672 6.449284997327797
As 11.825025592535397 10.11617921960126 7.08350443208187
As 10.829987016923784 6.8401075605700825 6.356503971242812
As 5.22357800847776 12.645100820108032 8.472684204415241
As 4.577186736027441 6.803512512167014 6.591926861733456
As 13.929812731288534 13.116797151259394 8.79195129116978
As 8.893879599016248 11.75259956907258 7.259973322438626
As 5.346566825283304 7.285230626249209 8.946254338748624
As 7.067465898373973 7.083765635855152 6.520842575146299
As 3.972437414433236 10.560669144680784 7.865872891699622
As 9.228197716727786 4.174018164037159 8.830856669796331
As 10.52495931347212 13.711569244884783 7.26159814469114
As 14.24017739905415 6.849044120004856 7.882872881723514
As 8.442662446462892 6.130967450433097 10.235073407702627
As 5.0001107551826625 4.842507242230641 9.381655715096281
As 12.233465411133844 6.1794588689784415 9.176418384375838
As 6.890426130217039 3.2775010635683777 8.811851139341316
As 10.502085607678703 14.311512890134944 9.752329946745602
As 11.46682446899915 12.378707574675495 10.958414961768845
As 13.529474926644125 11.08087437182277 9.850685260777734
As 5.877757275005735 8.05686460882303 11.802102748713015
As 3.6076097661543653 7.934450797319539 10.714179023366013
As 6.773649559724055 4.412806791763286 11.050609893608398
As 8.385367721993052 13.007037348973753 9.891725069936205
As 8.709658643460482 9.339094096074849 11.618920164134087
As 3.8158961715266364 10.429574217344134 10.358197344756572
As 11.228118499789902 9.24542532175319 11.760148565714738
As 13.061655486544657 7.300090044458752 11.029150651275756
As 13.615467494747639 12.207040881165106 12.136491845883775
As 9.735117601642004 5.4299854486449295 12.271077971018867
As 5.9006219727293825 6.3135371681794465 13.56752891014014
As 10.318167330763151 12.571257811694199 13.16111353058567
As 12.0099916624854 10.772737502917055 13.605112640083098
As 5.835282800042583 8.778194336345083 14.167566314938819
As 8.347061696941006 6.388548845835482 14.134821024827305
As 8.228425263253165 11.763118842945303 12.09595089006216
As 8.37679437591531 8.906570769302759 14.063582785417612
As 11.530818125772427 7.013398329579818 12.946141332799595
