55
Energy = -246.71935765 eV
As 13.547560162434577 18.046592984557137 6.047157842942666
As 13.748759457994655 20.220382633802515 7.276461875706071
As 8.42900496857152 13.465758690053491 8.758707147017738
As 9.631545662853961 15.601334763668769 8.641869566925326
As 15.725936911781211 19.292010751654455 8.59116689050287
As 15.510433395591388 17.126846581606735 7.347516928506493
As 13.49383645239743 11.958847319103883 9.479469869761646
As 11.293334616430615 9.098623407114628 10.915940099967536
As 8.54858207028593 16.551154714611044 10.593567931501502
As 9.138298083407886 11.917381339051495 10.48426140185068
As 13.55189733994545 9.023016363567354 11.905545119734466
As 14.538010176525708 9.648768532030319 9.733929723133823
As 14.666146995929099 13.059136455691869 11.377479972897197
As 11.887000348382275 18.69852820341203 7.7232318317448625
As 17.01500574571474 12.37443738499272 10.717661923757595
As 12.026797390864022 15.260858756538124 9.208389307039386
As 12.058119960405552 14.515000340355861 11.560811890338144
As 8.215076551917258 13.237582507805294 12.37729194387314
As 14.856703040405893 17.296447606731988 9.702701529063566
As 16.741649348020275 9.920193378201402 10.893250620940407
As 13.683887888815452 11.375921303641809 13.001429612043204
As 9.740623520517477 15.195359695754695 12.198595777847736
As 11.595235007101675 11.752015797194726 11.177855027102213
As 18.1549257385306 11.955033098281259 12.91491713958025
As 9.757455429458227 8.971799036254106 12.90039237026337
As 16.08991236885497 15.119739535454602 14.14352645679914
As 12.427111713083407 17.638925559990785 9.871944622756494
As 18.25673778071305 13.924270014551382 14.443401889458658
As 16.12782288955151 10.583071210334312 13.299636898607005
As 14.707691275234966 18.111173925931663 14.086215936119642
As 11.558912493803065 9.523017754556328 14.560546245733168
As 16.625130954625252 17.153310426638722 12.809071513116697
As 14.897386255428414 12.791656575407828 16.24191731062409
As 9.966865096595516 6.598222857349108 13.615589767369979
As 9.017968652605807 12.119095247955766 14.508174953742714
As 13.176149389880452 16.104092581606693 14.3298007375696
As 16.696989919026937 9.040377486147866 15.161779241005329
As 9.228462450315297 16.13741950541558 14.4726655992529
As 12.417914159253504 7.182726141108506 14.384175305755834
As 17.38328341202795 13.137247889251759 16.681076124193307
As 14.624655540778626 8.161956585036803 15.972093424709035
As 11.244067958382212 17.40747060530315 15.204488001043867
As 11.356226580606746 13.002956087032647 14.700063952549678
As 16.718576790439432 17.243549706871335 15.277495748703197
As 9.476119096674354 14.111967525399622 15.929353765703015
As 13.398817523342242 9.970024086635819 17.036017021586677
As 17.377517266629 10.645729432226458 17.07202374770054
As 11.656779059596358 8.45020635509162 18.05568007285941
As 12.909236391578723 16.350134907823687 16.77887821276692
As 9.370525149087642 6.901921228365319 16.03338311940937
As 15.248361932406217 11.294182773201719 18.185041695783173
As 11.770662173333308 6.3609288023956525 16.658912585378985
As 11.695799684331448 12.22377641289933 17.012439924518503
As 9.948776420204295 9.3309250758601 16.438345076703442
As 13.290772403637703 14.037951104789235 17.727716750749554
