50
Energy = -222.65665538 eV
As 9.050026738019676 14.739049740604422 16.78810489391999
As 9.847694672464051 9.682858571953618 15.30288133491993
As 10.97138810136155 7.163068818886063 13.153108483292453
As 9.2091048941847 5.354701809192569 12.598323979111973
As 8.421026442469396 15.491438889578582 14.488037548696758
As 11.408501842358259 15.257506191408824 16.119090442117987
As 10.870079363734018 4.051682410644564 11.235258632604062
As 13.633947663406671 11.007347810985534 15.48231158971534
As 10.592989030342004 12.953203911099349 15.96776679009298
As 7.9078546975570925 6.560586898513634 10.892987834204153
As 12.644552768819759 5.772326091211893 11.80345933365694
As 10.604110615285766 14.362141725296942 13.907501784460614
As 7.6114385690979365 10.76530585949048 15.140650352362476
As 15.662760529214761 11.731182468723048 14.2553120885111
As 7.90336500830358 8.36936980536841 14.51486031309018
As 13.235494838333434 9.228771528747599 12.267026932324471
As 9.551179563063839 9.262098623150305 12.867930797575749
As 11.199797104736342 6.8391154518515656 8.847163266548263
As 14.905173536073647 9.387539110814767 14.099003362319653
As 6.477895655197513 14.164633171712438 13.627522611362236
As 8.021775691249319 5.246393836056468 8.785824290318423
As 13.521467841888503 6.4070923728676465 9.598232638965168
As 14.392724000110215 15.136491316424507 11.464772707045007
As 10.377040966296242 4.535803282106269 8.83564356875451
As 13.46419757779917 12.720731718781629 13.596218758243294
As 14.789242132467015 8.406665140396338 10.444340997033574
As 16.16425999783106 13.894563111751353 10.457443796137856
As 6.923431715328475 11.799853600929108 12.961626017130355
As 12.876332069649811 11.562469057137967 11.4902906416528
As 8.262572400606873 7.669729509753961 7.829691498233827
As 13.296723869072425 10.092296431718028 6.775017695659996
As 15.203188987112421 11.49894825528444 10.617311102041329
As 7.555687920726807 14.929650435764989 11.448265877140749
As 10.505493181888701 7.760314076925486 6.6479175168376585
As 9.466825178771199 8.260255524447567 9.98855721552133
As 6.583704053807465 13.145794230243505 10.020662563959887
As 8.693945142262438 12.708350507683074 11.35545325210948
As 10.94107833183528 10.062582871592626 7.607082898989645
As 14.709974553113813 15.28919604537908 9.030454600772359
As 15.075369455267525 10.041392495550697 8.615003715815645
As 13.07874454463282 13.463497128465036 8.682358874267026
As 6.428899733812055 11.643715082844059 7.102351592676537
As 9.805279364919018 15.605947927185484 9.24742338864181
As 7.829197154543351 10.316821286895598 5.902658545749225
As 10.232255722383847 10.959223856363725 5.402134460987517
As 9.760740385186653 13.275599280344947 8.636833823234198
As 13.44582146668429 12.559100017671382 6.307609747197577
As 11.426228094426694 14.969158671284747 7.546474586247396
As 7.488942435206499 13.807069602056083 7.760639630146544
As 11.200584825617367 13.222522926330893 5.452136107390424
