53
Energy = -235.89878969 eV
As 6.754848307076441 13.924298281215496 8.699155523244007
As 10.296193058741608 10.520889873278476 14.812818151098858
As 15.027657021183494 7.067938424812333 6.446194317109136
As 12.128831909523942 15.041205867953682 11.43899839398615
As 9.73208043586699 12.178569027147416 16.56364735535713
As 5.2175031778067815 10.269186206705186 12.657868928516946
As 10.166819177062271 7.370741622927095 12.631882501358573
As 11.598214126183729 5.49439674799449 11.75425343777401
As 13.418880585656213 7.257272089854639 12.06259452991449
As 5.149548360715915 13.086309055607142 6.952019143763962
As 8.080490898391197 5.133375401002296 7.95334504085461
As 13.578024041908582 9.785899586731375 14.562365657542177
As 11.749707175409076 8.912131942334156 16.055504976617527
As 7.319345483348797 6.584764408196037 9.790199573134347
As 14.671492844262989 7.76844865602394 9.94598597178919
As 9.469788072570998 13.73378962867065 14.622978885775481
As 8.534626616691737 12.266680443000471 12.793512642238676
As 6.596556598114719 10.684806750311713 10.622070323073574
As 14.308401230465778 12.628323121329027 7.047233950117199
As 12.023717132831017 13.467086669242093 6.291175651355298
As 8.585076598938464 8.963242400134671 7.671006298704511
As 6.466476653204859 11.894486520890343 14.105306250894431
As 12.324646592609309 12.715003546469973 10.599161389288303
As 10.538902069373929 5.210424616238223 7.622124358407135
As 15.176260082475858 8.05358822197531 13.731128687235966
As 5.476369269892467 12.891055332282972 10.557506760887867
As 11.65945742482485 12.646282259424327 15.093293548183528
As 8.85248804719701 6.314282818945309 14.468331933717918
As 7.91132164722756 9.825124037552074 5.3921499506480295
As 4.177926675263787 10.811369184814012 7.232919480002411
As 9.606410405945931 11.553196985027142 4.677752205060098
As 5.816126481792898 11.224587246974393 5.405950130510179
As 7.76868305684361 8.533858400930727 14.856319404577512
As 11.27475884284259 6.814803359352893 14.800541694450173
As 12.393155070728552 8.453043765817037 9.161303170464436
As 9.077775939313696 6.840616631552636 6.380414536341739
As 13.628032093964109 11.173736880907006 5.097329378895242
As 12.167149154425404 5.873955677170505 9.370551334958495
As 8.820954749342924 12.559636033907184 8.277426658967341
As 13.801154615773155 13.515925338142996 12.416932900257397
As 14.736833905565588 9.461828861233885 6.596019885850486
As 6.312430774760567 7.920272222152702 7.993282620280396
As 12.634484322713611 9.65569378149998 12.21483977365882
As 12.792866359154923 7.824947731929054 6.659963746775054
As 10.166083481021667 14.546595726135935 7.564532949981232
As 15.105031105477003 9.653626110833665 11.683185202035036
As 11.412082037789446 11.108700364911407 6.34703904382233
As 6.627200961072971 13.857342447860217 12.576276313581749
As 14.104711208425911 14.369370429918025 10.123057690605735
As 6.490438159780538 8.174593207208705 12.97884246336374
As 14.117232966397522 10.713492415985606 8.690084260996505
As 4.878390904244429 9.514073295805856 9.25792290735817
As 8.572586948254262 13.451355202130062 5.989922975069069
