50
Energy = -224.47909547 eV
As 15.785395090261389 7.518615054870377 11.407398298944036
As 12.83801962200169 5.2613121938736045 12.014124824498646
As 15.384452777795207 8.032186841914097 8.967632119029942
As 13.129505195685699 5.385776492269748 9.498262185795305
As 10.83941076201151 5.192433647834008 8.543751799082486
As 16.037837695716696 9.845398896937104 10.535738799293432
As 10.403674547571441 5.721369976774669 12.197450856068091
As 11.774297594917199 6.913364848043015 6.959095471578584
As 14.77560590088021 10.302757259414665 13.857941900716877
As 13.227798098005119 8.34802620773263 14.476474920343378
As 12.881393109886105 7.844294590497863 9.104781149829284
As 13.934387696780709 11.822343371868499 7.659181293177147
As 13.351630625482724 7.704996423071821 12.045708265195216
As 10.84079322377696 6.411404667949369 14.40034244685096
As 13.927037634889146 10.78518323580425 11.514024053152319
As 9.848005820816182 7.129274557068528 9.850194724277467
As 7.56462552327162 6.204774823470448 9.350179305358811
As 7.9207121194037065 7.019769726868223 6.984240287069194
As 9.883212363584695 8.437426901359961 7.595662922560246
As 14.820684102101923 13.765384952273925 8.970171733576397
As 15.080405481449711 13.063133973340758 11.404500017637826
As 8.45929537002282 8.811502191960729 12.481406970558545
As 10.976427576012828 11.329667572715044 6.856108023496059
As 13.581821646087102 12.214012381194403 14.950647332875514
As 11.186673886305615 9.736440183214839 13.901772708933455
As 6.384217321518538 8.221673349796184 8.524704986122789
As 9.29704851594896 8.310365145179711 14.791067739096485
As 11.976168762960796 11.439191068101156 9.18336586367745
As 7.684735863093551 10.154748032252002 9.48078483959133
As 12.394790231868754 13.306702837225004 6.211614462265016
As 11.434571837026647 11.279557129104653 15.885711320169651
As 13.19939984664723 14.63083876429624 11.918205245853619
As 11.992488602156648 12.788456792267258 13.104397582940063
As 6.163097949152156 8.847075315509201 12.831343904761313
As 8.816108138412941 12.518267095719448 6.493703619767391
As 10.735964075090314 13.607044038747642 15.076672017842771
As 6.827357496091542 11.694771243549775 7.691869011141385
As 8.682412800582652 12.401688940365258 12.01994043029984
As 12.454536298069058 13.975670092552143 9.569064587010375
As 7.767320257882026 11.416456114907211 14.104767725961745
As 9.283744445057776 14.172920305179362 8.495736447076494
As 5.616640432191689 10.307246428422035 10.918741718585425
As 11.472353628130216 15.156281631930634 7.640214217494499
As 8.455726257640395 13.848188149716496 14.049996031287819
As 9.07576590275347 16.26683791160539 10.315374469827187
As 6.2530763496294295 12.339686591245988 12.330259270891965
As 6.114670868699864 13.898583350269428 8.801435646077238
As 7.443548543789814 15.245308824199647 7.239859567884787
As 7.200272201809647 17.12097491943924 9.034736040147488
As 6.875028950955747 15.444947149315672 10.833688235970573
