55
Energy = -246.90184652 eV
As 11.456503248073414 8.634996045802442 7.914507634070455
As 15.803664669930106 16.052447419281737 8.31764082764664
As 13.442583259865417 10.072634673619039 7.536022307518733
As 13.326358634647631 15.609021005551845 8.176584795626734
As 13.656724453820779 8.062274765532665 8.94294240760943
As 10.216490721027872 9.66001727619362 9.83867600523483
As 12.786863398099939 18.004314147162145 7.9849612699074015
As 11.073195552620922 7.781423479800845 11.260344010791933
As 16.21028047549359 13.568099587845785 8.220476831991004
As 9.137700381468111 16.05146015637272 11.75651747083029
As 13.377146591847238 8.857775631511272 11.277295833270827
As 15.439217199219161 16.833902830744798 10.637126466321995
As 18.593819579327 13.116109916214656 8.721882683116073
As 10.763133372496412 17.980549468377177 9.526012426840852
As 12.993056332783095 12.017593633567135 9.015595181864523
As 18.06068084487833 10.776361480990632 8.232256581026322
As 14.103064981877093 18.851791958441375 9.984978497101391
As 8.395994222711234 12.061760744264681 11.947768265053913
As 13.291390980187826 15.392573955278422 10.685446494262875
As 9.580612901278213 14.001264695477095 13.101413278212735
As 12.02338870858557 10.914402978466137 10.969327451291807
As 15.147330403715765 12.51512092594726 10.21313021059755
As 19.14488925557577 12.819061946837042 11.166239398669699
As 10.035060842767662 8.20812029365513 13.508705936519737
As 17.687652728550592 14.59171462789891 12.088739136543898
As 16.362658267084292 10.333970441929173 9.911164761026273
As 10.548637274160647 15.5496421986935 9.981858620546298
As 7.145905787551977 13.568811995697299 13.45220695308765
As 15.175395854018218 15.255356137618548 16.37780995586196
As 18.09019120791044 10.629713983281068 11.74984340851444
As 18.208313757552705 14.280370660696116 14.506678886089654
As 12.364459043962194 17.693496804175275 11.374919173819343
As 12.245043412113588 8.33499795890779 14.63166417474069
As 17.14475049311016 16.39463586240661 15.114961205285466
As 9.205554158399112 10.573363067601598 13.802222293267256
As 13.004548975237476 10.699215276158515 14.34688283770311
As 8.496723217852955 13.684302809255847 17.034368140941087
As 9.564303462210324 15.542791828229545 15.816123096961917
As 16.015568895259005 13.411796267659534 13.450566361217325
As 10.981523367398932 11.913994686353723 15.17850188035321
As 12.833233286152248 13.841556171008309 16.11567549139327
As 6.659205074713478 12.320162756823915 15.564852366862418
As 15.379741727822704 16.70282564642902 18.398063107431916
As 16.590038633415457 11.084937366984658 13.587530600349849
As 7.350398396100021 10.09430696804647 15.264344836558887
As 13.950770676948606 10.126920977123238 16.60510458365897
As 11.88226970817549 8.743696712064727 17.086411272963478
As 16.466118597901126 14.485953025954434 18.347258813391093
As 7.55359353891846 15.887304372386344 17.040617909414063
As 17.72895384666372 16.512968476462593 17.58002009131391
As 11.620420126458335 15.375312413735054 17.610631258876058
As 10.209586978154665 10.57326442722532 17.143888260750717
As 10.313009057226129 13.8787125083355 19.017385296874036
As 13.62985866937804 12.30302078432254 17.872908787876227
As 11.488811166236271 11.72419416853489 18.967334569883302
