50
Energy = -217.10097861 eV
As 18.660862559102473 13.25754577310924 16.153765299154642
As 16.238211845948804 16.54442301802654 0.6254978352832741
As 16.488493632352547 13.754615625243682 17.161694341890506
As 21.813230825087043 15.953287559048848 17.411750181296615
As 16.747433717211496 16.328178659005236 21.250784242524116
As 15.148001457257068 14.633080903679145 20.253256275581798
As 18.342919346769463 14.371114218896254 13.912745801783478
As 16.750130643075174 12.952749100512074 19.44694917696272
As 22.400852507691447 19.438248044591546 22.233445088190546
As 14.223038631789985 21.620412527022417 15.689209316554024
As 11.27987096729028 17.946091483847457 15.736933395841788
As 15.474039758092596 17.84125696904284 23.04166392741269
As 14.17179647827687 15.824672433531129 -0.5411348405888486
As 23.36546264181967 17.23191175594165 12.66405886868019
As 19.48749346130417 15.01243388662482 17.806336391544917
As 12.012920921875835 19.7529658501786 17.33407795019528
As 15.526606923460529 21.940520306260666 13.65851721964994
As 0.6312343545453065 16.061454669418577 11.418203285976036
As 21.592985596120847 16.14076006864783 19.855671365094988
As 10.107372662679241 15.37281135198194 21.484271902761982
As 12.81857340566899 15.990031447055307 15.890570054255422
As 11.900791334719646 21.61004812744819 15.734104962106612
As 18.721548839299377 13.65277751475694 21.011869017990666
As 23.65694857529423 22.31888375599704 18.736597064975
As 21.50325042013698 13.813278124903023 18.60998022541919
As 21.646730402585597 21.727966707176027 21.656803525886215
As 18.22328017914848 17.226663863421553 11.991010639223946
As 15.883619750795033 20.771121092724123 17.11689424614417
As 11.101901455049736 15.506418024806107 12.709094846638937
As 19.26921891262862 16.009740807958632 20.92256579263306
As 22.01709210504416 24.08455183902258 19.19883225120303
As 12.610795647827441 13.652420963146799 13.203644205218476
As 23.856985470038133 14.169705476934524 10.406430254485864
As 17.12600569151118 19.209263236217257 11.614625278513056
As 20.37303468560597 15.70813213219466 14.344649625765822
As 18.123272371739233 16.809476090636256 14.428243177484031
As 9.726330580165595 19.67848447201114 18.185111567985782
As 23.51154229670735 23.317004738928883 21.016161250125016
As 9.568509227259536 17.47169333995832 17.42509554307792
As 15.990445473884007 19.476818842164892 13.798665537564212
As 17.364217699395834 21.079285804271134 15.128382005300466
As 21.8698334256512 18.809833208345957 20.113230602767544
As 15.172068989936676 13.756783019775638 22.584773162121763
As 21.312946745072683 21.593034244412557 19.170996988809318
As 21.627164058575676 14.093956549219786 10.971638648705433
As 13.441845190080818 15.989858448278323 13.435262412214305
As 9.599405359944983 14.87546286804581 19.4899540660522
As 21.313122334830865 16.193624535908434 12.062266519914747
As 17.459154038218852 14.71247257321685 23.005743001442376
As 11.038625625181005 14.451256420205816 14.974809351618584
