52
Energy = -233.63226943 eV
As 7.803339322570099 7.571727988319331 5.076590960343056
As 10.017971698680897 10.84012780704143 4.04310287684099
As 13.309450426534678 11.942168538844879 6.2701292920010845
As 10.14148655081595 7.42162284531448 4.1740809168679105
As 7.8768859197906975 11.221098960362577 5.248309715170061
As 13.23371287730671 9.75555065501953 5.049658521418495
As 9.824760294133986 12.773790924827827 5.598086565710478
As 9.316268192681346 5.716070997803411 5.793707773002522
As 5.820265863784521 13.15050714591326 7.902459975760615
As 5.421342740414931 9.42041669113937 6.6377865756668015
As 10.891957974322393 9.226128602546568 5.726873327308275
As 11.126361441835579 11.899250347210266 7.5597946011818
As 11.817902426624213 3.17433697078731 7.54333093830378
As 14.467076395974125 9.92890791391773 7.20266649315557
As 4.292488966289739 11.191403575428112 8.05972566351971
As 11.276631678758648 14.316043912205211 8.244441653515295
As 12.845498376606372 9.388382864368722 9.024635445142373
As 7.877067465814254 12.061132348236544 8.741864824204383
As 14.584259206510668 7.974882050710473 10.150195912658024
As 8.742287594869518 14.439039316443829 8.44605995914126
As 10.117786190841391 4.296772539402253 9.043263797934218
As 6.176333126374154 5.704947519187756 7.849498620640029
As 4.571236864366149 7.56326529164977 8.059475040786335
As 10.350250564234763 6.536593495180353 7.90082718529839
As 7.94345971961913 9.335389413646649 6.928052111128151
As 12.640732052878112 5.522455761091695 7.410757752304786
As 5.404702962317257 8.436875898590953 10.332348775404311
As 3.6980008297078912 10.292583103599254 10.353417315860854
As 12.568272455881125 4.303874075859201 9.581576296811555
As 7.63091888097401 6.558439368491413 9.831833017654118
As 4.478426612091726 6.529192524329499 11.621458460292814
As 5.740684920019687 4.924699117439314 10.153947691029677
As 11.592854151547664 14.366678873323519 10.713156448172745
As 9.757532330629903 12.841442428545882 11.319389658113785
As 13.438293591820177 7.326144144312939 12.166907408834845
As 11.107072623454263 7.433364726990176 11.287520172154201
As 6.36035500392927 13.138872729932555 10.40821545725346
As 8.23886172229799 4.99582386967239 11.81672833241394
As 13.633155363345361 13.179050918433255 11.387080897346308
As 14.396037706234843 10.65560356114414 10.482929466159511
As 10.855674588572883 9.930955678342325 11.665462397091972
As 7.918410743156498 8.190683196840263 12.534530052077567
As 5.125802628881373 10.110268424048964 12.458739480109204
As 8.236917279685507 14.823544386734424 10.8784824903051
As 6.474779506610568 6.252575780479052 13.207030782909781
As 10.42832800299681 12.777569050361334 13.750948092171965
As 13.180671806305112 9.989370800148338 12.57724756121961
As 6.78724685179207 11.65173492597489 12.895106768417254
As 9.730955642484338 6.567948609300941 13.170182269501897
As 12.927849833856609 12.484951968166515 13.575878530926781
As 10.29517587722611 10.29461591321642 14.097410242533673
As 7.831411785592452 9.896329083166847 14.372303070273011
