6
Energy = -25.63937709 eV
As 3.9509564549747114 7.855289713369133 5.079280864253511
As 6.917012601266869 3.423027978595121 7.154945760234985
As 7.245584009297851 5.8182886760435215 7.6229696607299635
As 5.00065960547565 4.984089056491692 7.076366147886977
As 6.736193890648664 5.072918078821077 5.337759413393389
As 5.5517637225803504 8.892774539304881 4.149349873085449
