6
Energy = -22.2416767 eV
As 9.614914990408051 9.329422623628856 9.256045766183666
As 7.35715238726452 9.09059836140933 8.568351883614756
As 10.278151792131132 11.705401063373056 9.274759986137907
As 9.759187626375649 9.144282945610643 11.712078744725224
As 11.450147708463845 8.175401324075724 8.286086445589552
As 10.40146144437223 11.41311849452064 11.611285754443111
