6
Energy = -22.96077599 eV
As 9.582301592776252 10.973544956777456 11.58292436835125
As 10.616317628323777 8.291692088822948 6.414495675516973
As 7.593053785886321 7.39516135695998 10.643091498789548
As 9.694971446894593 9.79859459887937 7.628192396309804
As 7.177501122575142 8.93675850042466 9.22812801040038
As 11.191168235979761 10.364390826833878 10.31934162242781
