6
Energy = -25.481068 eV
As 9.582682776292591 7.525073392522799 9.154063676423938
As 7.898782627143359 8.1543717458516 10.841866016607163
As 8.388878752974964 8.00442070243246 7.050342226235228
As 10.3930799519681 9.904140763892828 9.16572499441263
As 8.657453528988084 10.32123408064327 10.87822278742979
As 9.158906093371497 10.167784831683942 7.038080972211817
