6
Energy = -25.48753943 eV
As 10.536229550021636 8.866797027287996 9.69941798383269
As 10.402435945104486 7.206719423508054 8.117459272481875
As 8.502137720412598 8.189515956670855 6.863401717374417
As 8.739652163744553 10.061740885516391 8.532487520410097
As 6.789960745669102 9.26094934211201 9.786662086339245
As 6.485660044091614 7.633902995509787 8.193550781001205
