6
Energy = -25.0360042 eV
As 9.544250148968802 5.970467847998436 5.3479472784847735
As 8.783711381330269 7.912737008811905 9.162738414735783
As 8.469582007134397 7.199667352325276 6.76768121102899
As 7.089882145949009 9.686204357237159 8.746267532629682
As 6.15457408981785 8.18414517796067 6.998347878322877
As 6.347462799605813 7.436853913857545 9.36704893519639
