6
Energy = -25.48154227 eV
As 9.9979146223292 7.921070866291658 9.138292911755098
As 8.949521923445856 9.933122835061553 8.793209236646012
As 6.766911066402128 8.807192197556919 8.596230662432204
As 6.664549503888965 8.377647361791464 6.17294157050902
As 7.694952888544031 6.344453839791753 6.438665577913988
As 7.923517238575932 6.595217034208206 8.890287272168099
