6
Energy = -25.63739291 eV
As 13.128039067462394 10.023907131826503 11.374999539826637
As 11.426922725966662 11.722400310889066 10.85006822032711
As 10.841244268940049 16.663909568421282 13.567104854116256
As 11.013428483976718 10.081687734847169 12.629311309397684
As 10.277079651110752 14.626924046714425 13.388776924101457
As 12.683173513769647 11.853205059448868 12.959922862576448
