6
Energy = -25.62684613 eV
As 9.49183697414611 6.822089195604801 6.403341852561897
As 8.418103535451658 5.504500357950507 5.127616222061878
As 8.000123285920584 8.25784679520379 10.554078594398888
As 6.905453015591583 8.546703302003108 8.376499772000974
As 7.165085061136752 10.475337856905876 9.890408140258467
As 9.13043587869769 9.515572592526253 8.772249155052894
