6
Energy = -20.90185802 eV
As 7.929202258932405 9.198875042503547 10.033435000850094
As 8.064918736252153 11.737193621903813 9.933850286714232
As 7.8520023150943254 6.656798237471467 10.096296321280896
As 9.654735552147972 7.780453692911174 8.697058830957191
As 9.776199225863047 10.380169044350387 8.629975750125134
As 11.441703041377293 8.965271360859871 7.328144810072583
