6
Energy = -25.63739291 eV
As 13.128039029014227 10.023906820536828 11.374999683524608
As 11.426922875144468 11.722400006784229 10.850067884013674
As 10.841244270464795 16.66390959697939 13.567105217606294
As 11.013428452252066 10.08168799925303 12.629311461307605
As 10.277079431067557 14.626924141435545 13.388776977092391
As 12.683173653282859 11.853205287158287 12.959922486800782
