7
Energy = -29.96887806 eV
As 9.187000494821861 6.913588767926967 9.913022666867773
As 9.634146240099717 8.52791626570966 8.3323933157947
As 9.294970686332624 6.198405902607046 7.595412925526401
As 7.22580553038322 8.652675674464366 5.944342022575016
As 6.741460068255642 6.473671210988104 6.931260292245802
As 6.393931672275664 8.499266600477583 8.281984600721994
As 4.809063183655899 8.664331840362188 6.403621841094638
