7
Energy = -28.0096905 eV
As 7.192565609364624 11.961198341818095 7.599600745678928
As 12.693620863697967 8.567624827350869 10.720481003981158
As 13.442876314700642 9.958928185252734 12.47858999174143
As 10.41425811840285 9.338385559033803 11.24326937510929
As 8.100782180908583 11.680904765645465 9.693050203994853
As 11.5389150280813 11.327422349391144 12.159582415630032
As 9.524158894074287 9.911312139445611 9.011093554461873
