7
Energy = -30.41995779 eV
As 6.160320451014033 6.173171295204871 7.753569812958887
As 7.8319316577026115 6.757469218256961 5.994664035954918
As 6.837936825767798 4.878085248785457 4.593221548684184
As 5.641053578242325 3.9667137381598727 6.614093975125444
As 5.563358920643936 7.799576716355993 5.993829895527483
As 3.6098025869681454 4.566419123600991 5.395079575005233
As 4.799123264842025 6.273101795165722 4.114747103786358
