7
Energy = -28.93582848 eV
As 8.41442473174222 9.668963163975375 9.077188151207435
As 9.08101254753431 7.300290031268561 9.405983057248468
As 6.777800332167839 9.188242625786682 7.165504522115953
As 6.98171066011213 6.792714589736326 8.19231843343459
As 8.741435004216044 9.17701844848909 5.817088024633743
As 5.624182280318097 5.15322998084739 8.677685522111448
As 10.266775703329564 8.699265834263876 7.730952629347997
