7
Energy = -30.2643077 eV
As 8.994023847809773 6.323057965890421 6.9803445217395375
As 8.169144571713256 6.587717504100517 9.296843130054015
As 7.686825261334974 9.190365224780981 8.999066813657919
As 5.901397638066907 6.89528621744798 8.492741550977875
As 6.522688306924357 9.149312745410251 6.750045756984181
As 8.9418761654515 9.01408861475418 6.93247850983573
As 6.651989237689795 6.53252015402512 6.2187317856877815
