7
Energy = -28.8018856 eV
As 11.243334777723959 8.115980347405344 9.116377687809624
As 11.18629911106901 8.37998373157171 11.638606826451541
As 9.116431202540236 8.740814270904112 8.122042795633238
As 8.982222105247073 10.691981555260625 9.819303464675071
As 9.39526821709458 9.648246503319836 12.089939749960893
As 7.909140701415612 12.70121428008544 9.567816004130506
As 10.928533703586996 10.418549188662887 8.284942148120084
