7
Energy = -29.69761525 eV
As 6.9791571446286325 6.124362285373554 7.455143942110158
As 8.822193882418551 7.783161125137801 7.641311921785159
As 9.228031786884056 9.57907940155418 5.761764097526681
As 8.683788504754453 5.598267381363728 9.139396670259444
As 8.04941907795026 10.858854554524333 7.190861042921242
As 7.746052249307375 9.325518255550493 9.226683047778925
As 6.744586971365361 6.879776086004783 9.784174061756929
