7
Energy = -30.82884826 eV
As 9.315840627336875 7.138860302524098 7.327805842099399
As 8.350165760471327 7.798181420316415 5.22424216357877
As 7.707265485666504 5.645212714877655 8.42980279209269
As 7.855003981119991 8.044900954890451 9.081604168760457
As 5.478328280370139 6.105095596733518 7.286441713297953
As 5.971381253310103 7.807344075812901 5.587195996075241
As 5.63230489738952 8.509561592301912 7.916980508358677
