8
Energy = -35.84014554 eV
As 3.5577150185543283 6.597691487412342 5.496095438457259
As 6.168581954871434 4.482732274191437 4.368802488313981
As 4.445856930691672 5.767427900023928 7.620181372475305
As 6.842463783698714 6.368500240578234 7.711771474981363
As 5.590324857832422 6.8659055237688005 4.055348111927555
As 7.393905989834778 7.561511207866768 5.647945075643011
As 7.994289553551833 5.092969578788155 5.970876202003244
As 4.156939529230879 4.132690722504502 5.821777761516365
