8
Energy = -28.85852738 eV
As 8.490654764474963 8.987454207451737 10.035862440283697
As 11.07459101582848 8.508248669584148 10.106023335808215
As 13.436024764209584 9.388809482989483 10.024429856208055
As 8.999719918092616 11.566185467288571 9.969530007549043
As 11.583630182331502 11.086799024686488 10.038919854113484
As 10.69056351294545 13.43531758611732 10.050952258993064
As 6.64230019799444 10.679286252832657 9.846059590429626
As 9.379559514455964 6.6449433090494505 10.225266786281964
