8
Energy = -30.65707968 eV
As 9.34453564285928 13.571520071895682 11.342252507617937
As 12.091869019585358 9.534055025884129 10.220987420684002
As 8.034138690611162 7.545117558662107 10.804645972693875
As 10.117342626801312 7.139999222186402 10.624948269428295
As 9.181828230766943 14.850869733170443 9.641843140910233
As 12.655847058583277 12.286108389923234 13.862639796584794
As 12.07059683974136 12.287093175621882 11.800854705744223
As 13.322262141993228 9.563194662181106 8.469414125590351
