8
Energy = -36.00896083 eV
As 10.225406775137897 7.586781639837062 7.186431094849472
As 11.31188553262578 9.60771429705507 6.2871381110970495
As 5.257401003466775 6.447944642879574 10.147112700646865
As 9.672008824389833 9.790277526985776 8.113309078127797
As 6.2811739041301164 7.050703560634146 7.990308199690492
As 7.69620096835402 6.744759145400804 9.972399651439991
As 6.208513441091968 8.6922714929857 9.814969064625076
As 8.929001474827572 9.187451135734321 5.850917212812094
