8
Energy = -34.63309185 eV
As 7.399962625545874 7.897654863452103 10.316140462086961
As 9.674474887710169 9.157475469106613 6.75801527635243
As 8.769895360143547 10.731704848358989 8.538538847337138
As 8.316200095340335 6.348134496429367 8.51986512151484
As 7.451488736622961 7.923953517860994 6.721812480336037
As 6.552715186334559 9.485131819439319 8.51816981477106
As 9.607454920689479 9.161078822837506 10.35571616731223
As 10.530040187613084 7.597098162515233 8.57397383028943
