9
Energy = -37.58847746 eV
As 11.20822675757604 11.111535779536645 8.519582010080617
As 13.41490964484302 10.241706001665497 8.27635033206004
As 10.385094014208542 8.774420778202044 9.06889877365579
As 8.107624538168006 9.000432154799507 10.252316896467073
As 7.864877523397039 11.405108437950496 9.89297671974834
As 11.62704040954752 11.603206179927788 10.958772746980983
As 11.474927157579463 9.13465832848005 11.28761566618586
As 9.233327003132288 11.87996247694975 11.86700643842802
As 9.21375879072713 9.432380190014761 12.470277314421477
