9
Energy = -37.45076994 eV
As 9.623287096104228 12.164285543086962 11.154808027579907
As 10.46590863146561 8.168895671300529 10.463406729578324
As 11.748609201985719 9.690650092112083 8.94187362922565
As 9.455340222261848 7.138134523579511 8.440059009343084
As 7.349975916189681 7.9956771987033255 8.827994226621218
As 13.01590770049098 11.014389582286867 10.551773903335407
As 8.099383069755767 9.049361313214588 10.933634063336903
As 11.218919935824006 12.101850340829866 9.29895772367591
As 7.737961481639363 11.23246575722876 9.963789748187848
