9
Energy = -39.08945286 eV
As 9.040207950329407 9.759532949334563 9.248696871861117
As 11.132174192347485 11.445232486619261 14.457698221882763
As 11.107036193564065 8.420088657596022 9.016988432807471
As 10.156186647532238 13.359706131549574 13.864152840215244
As 9.46414676254281 11.48782999991912 10.99162575010909
As 10.629898650205055 10.235392256809527 7.409056431893237
As 11.870727229506869 11.871132364655917 10.808058371410489
As 11.02774533613402 10.095620579258169 12.31147785312888
As 12.577163712147822 10.413165218993917 8.928743903856445
