9
Energy = -36.80665713 eV
As 11.587936837605547 7.4916668958526955 12.182096426525158
As 12.635583085168102 9.019719694883653 10.550517947155758
As 11.816352758502305 10.921131694747814 11.998109083393935
As 11.373279534323613 9.206826865753618 13.719320919675098
As 10.88017226717663 9.32617769017827 8.858070883068478
As 11.021763942161645 15.880774930703014 10.216147438757584
As 10.375673763152733 13.972470040844081 11.278020808139658
As 9.713922579188077 10.57458380491334 10.602926160991702
As 9.618766976734126 12.70484744667136 9.39198917179777
