9
Energy = -38.71090366 eV
As 11.108771035473598 8.301971631967403 8.817305785921953
As 9.719792896849558 7.40205381076649 10.538324572814378
As 9.099249006125383 9.780524127060056 7.922253180775869
As 10.403337703517808 5.922199584570187 8.654901056307287
As 8.479103234129461 5.911433302750973 7.2082359855536655
As 7.660277196233595 8.875316217946677 9.710556209585228
As 7.373842744960576 8.065334524410016 7.366764433980752
As 7.030753426953847 11.607370603200067 7.344466771782067
As 5.788983359004142 10.864450559784395 8.981867144160018
