9
Energy = -38.94034043 eV
As 8.444070412433751 8.017613406664799 10.02002628641444
As 6.932359794299475 9.813158383108114 8.847705487033668
As 6.616086665745464 6.7529686015226815 8.671852568911625
As 9.808270831515717 9.65673096499108 8.480750696827567
As 9.266359422920313 8.234914237853728 6.452670791630319
As 8.435037289060086 11.605950009926193 8.348924556719485
As 8.058064651315734 4.979254248857154 7.856740322900957
As 9.783652373948154 6.630814679969951 8.273511651446388
As 6.790921684667769 8.351608381808202 6.779469123452919
