9
Energy = -39.33959573 eV
As 10.328304361231844 9.952842713877033 8.330738804015127
As 10.775459906203984 8.179862153371959 10.058093981385223
As 6.011365047036152 7.886537902825766 7.78619309289884
As 7.064625114160386 9.985757458741688 7.103067674296933
As 8.143543808712913 6.714670559315486 7.402627087711655
As 9.022387997469139 6.520586285191 9.71079860025018
As 8.15017644490014 10.532523275045682 9.349150419659981
As 8.404073402416676 8.575132713123056 10.925505918188454
As 9.208041914994617 8.76006377232077 6.441801421593609
