9
Energy = -39.04488958 eV
As 12.285779036379338 11.432876698245833 10.411506439900567
As 12.562970638102069 8.927067311818153 10.208985294971628
As 10.902580368176602 7.607228849391965 11.328209133270708
As 11.73330003863279 10.29507308638784 8.249854929031747
As 10.102237320178705 11.594558741377224 11.505539769891175
As 8.448110580646023 12.0000190020779 9.642257895615275
As 9.313524388408574 9.968052327816869 8.4195435877855
As 9.362460072369883 9.310786314468045 10.825632566649192
As 7.061305088277708 10.36840908662113 10.85780402054975
