38
Energy = -81.40298784 eV
Ag 16.89593099049991 11.806654349806625 9.948874588842068
Ag 16.216227229806645 14.330338857641667 9.159907404351626
Ag 16.573258653211866 13.586285924437458 12.380172725419817
Ag 16.11420470300003 10.651634537452017 12.37788903314964
Ag 14.545056097049288 12.239412276492223 8.2167224396926
Ag 14.813423129024732 9.862908136013273 9.996587064796824
Ag 14.798975976976086 15.558182322022551 11.223814701705683
Ag 14.444692576482387 12.599342599903013 11.049862121993035
Ag 13.419985037832628 14.753359730466956 8.979516412335812
Ag 12.802616833771262 10.03776978574459 8.144166873379497
Ag 14.71154327348112 8.087570754560703 12.114780685116381
Ag 14.75202175864782 9.517827674868995 14.492295786199527
Ag 12.1780438336529 10.889758895647669 10.861221034511788
Ag 11.694598281707727 12.638014492743856 8.376373084565449
Ag 15.38057624432613 12.23675090718605 14.57263338126446
Ag 12.41809114916165 8.237350513721774 10.417689421891737
Ag 12.106470063432724 16.172711314799074 11.952405751186264
Ag 12.293871913043333 8.73640276827771 13.300000589094115
Ag 10.756308879709831 15.268036484564021 9.438794450851432
Ag 12.77076794155544 11.745397119997914 13.445316643750068
Ag 13.956195379222711 14.46806654727914 13.562968888201796
Ag 13.056878203427523 13.106523478644865 15.87498261530515
Ag 9.335543137488825 12.867193141480321 9.855396750243179
Ag 11.89321590053569 13.58134685632127 11.30523796563133
Ag 12.431530053904662 10.22939666578969 15.789164523792868
Ag 10.194795515828577 10.188022058038264 9.053080068549756
Ag 9.433275282822912 14.80166607508428 11.945834677424997
Ag 9.971054057608871 9.109281987327602 11.74143946257342
Ag 11.18796898759289 14.383227089819698 14.085308521318108
Ag 9.970041293540312 9.64864544731517 14.53885169075394
Ag 9.94223450267623 11.906956541936625 12.557211143924428
Ag 10.446135927726553 12.182739706294138 15.641447908685135
Ag 7.232406608931632 12.97966671311512 11.885318283947926
Ag 7.9068368757860075 10.599027729471592 10.51485137682201
Ag 8.408402402642684 13.594122116464103 14.354243048606573
Ag 7.849722867668818 11.106467561238196 15.839245479776496
Ag 7.6193435636494025 10.40087973944555 13.237236978329582
Ag 5.88986456291141 12.376438451167688 14.305928730764482
