37
Energy = -78.63043422 eV
Ag 16.490413958865318 9.00211263350323 13.006853426077065
Ag 18.20147070746786 11.119591493026645 13.302344675671574
Ag 14.209749513351742 9.338990662697702 11.495873017779301
Ag 16.056899160192792 11.492447659368217 11.431108466958392
Ag 12.187015260670881 9.60671219735661 9.630651096166392
Ag 14.794949697830221 10.640578780649642 9.084074101551332
Ag 12.72606888717126 10.967656966007434 7.184301612465563
Ag 13.900739269726465 8.719218389396579 14.172702023434926
Ag 15.558359971621778 11.255774626341617 14.31374961588238
Ag 16.885529066707992 13.598906977861105 12.989007024017074
Ag 12.70088318421763 11.125202455322842 13.608953589181326
Ag 14.210196843658958 13.57466666054373 13.540951760643217
Ag 14.899779825941422 14.300096758979313 10.970146790793251
Ag 11.643495853627387 8.616565406674512 12.343527710662121
Ag 13.226315964515871 12.060060200642091 11.014714397752998
Ag 13.775709702898487 13.251410907553387 8.533144220239274
Ag 10.131865234622015 9.966672005687629 7.8086806317710495
Ag 12.117773040010311 10.094834829116666 16.119991507664775
Ag 13.63279621965228 12.451410982938299 16.013547520504556
Ag 11.065345318524004 12.407355604055878 8.917103216399566
Ag 10.063919406606983 10.154021501441596 14.210216236427126
Ag 10.59928259337972 11.164369514408115 11.563674231834685
Ag 9.597246254567294 8.779137810467747 10.35538282338943
Ag 12.097548858810384 14.670599418634213 10.300351056204645
Ag 11.401430339896846 13.579719839939955 12.842379618611812
Ag 10.848019392944146 12.570493988619699 15.520145017180432
Ag 8.49540975585178 11.35624995891216 9.604034017208864
Ag 8.053421172492794 10.18140488912142 12.24556052826819
Ag 11.32957279868029 17.310319600472656 14.353339971792852
Ag 13.114193914904433 15.984800370145805 12.611211922433307
Ag 12.451441631202696 14.939472089595464 15.298822911906205
Ag 9.36058176526781 13.857810222501206 10.628687198831063
Ag 8.701618144879628 12.581120211678085 13.621542964811606
Ag 6.878902622682678 12.690018164685629 11.486241429724682
Ag 10.320133619285803 16.101486369819835 12.048308025725161
Ag 9.691826523156918 15.05259695142219 14.698815573026982
Ag 7.774830746245877 15.027941493540592 12.644507259406877
