42
Energy = -90.06859393 eV
Ag 15.242993706529424 11.135907223177258 16.362290473055463
Ag 12.75108122767872 12.443158289029986 16.026878010761916
Ag 15.167870497766899 13.40366538540025 14.467485062193411
Ag 10.347692769260538 16.13088408713067 13.98717113603882
Ag 10.24663309300737 13.620735156799407 15.261195126409763
Ag 12.640019684209507 14.499000109053325 13.993528010476396
Ag 14.741731908660865 15.068696639797311 12.119986504098538
Ag 11.997236678397535 16.065706640095975 11.716035216476083
Ag 15.749038660652221 8.765458918874932 15.008104661549458
Ag 12.809047363691796 9.575007862870187 15.682425570412088
Ag 13.712464280296773 16.010463682400513 9.578749551291422
Ag 17.02496735159146 11.119955602788721 14.040569344344183
Ag 10.173080121456401 10.753654904142623 15.57533070216818
Ag 7.9837383403328595 14.764049572898069 14.01914680730035
Ag 14.299482653778423 10.845370495275072 13.780864799761826
Ag 7.7887130753219775 12.209330973321562 15.119549658382658
Ag 15.714214509882042 12.414966338640975 11.873645226320928
Ag 11.726992984594068 11.864013361874491 13.543495035928943
Ag 10.108470391533588 14.007705551530101 12.098980587323434
Ag 12.853700286613558 13.163356916620375 11.240141541614594
Ag 15.697842413592603 14.015835321229746 9.6293079623101
Ag 11.09645053279016 9.05965895860058 13.461016218819253
Ag 11.143292445706091 14.660934815417425 9.437188540441275
Ag 12.857772183044679 10.254409179292631 11.444272547483008
Ag 13.40963105998132 13.733749811958631 8.027790387678792
Ag 8.408017916595787 10.135336724900105 13.401687128293554
Ag 14.49955601332408 11.396729727452845 9.518830344285606
Ag 15.798977103185468 12.432300284622997 7.272725053460516
Ag 13.732541470677996 8.080137089170455 13.242602704489496
Ag 7.565060827874671 12.66501959258652 12.283415915184888
Ag 10.133590797379421 11.22175073753771 11.41766506690872
Ag 15.632045786345827 9.630719187959087 11.676223490742283
Ag 8.826125262098452 12.94609311984372 9.643088819131398
Ag 9.377214489787578 8.514198737384362 11.30417096694467
Ag 11.48477742357483 11.937514517162302 8.99951374849817
Ag 12.374420390746877 9.283284793155143 8.877442034887412
Ag 13.285939061624456 11.136394087049945 6.994164164141238
Ag 7.491826959716283 10.41738588244359 10.623323869081418
Ag 11.981909233595363 7.579858913579582 11.120210670398906
Ag 6.031518591835102 12.691146344021368 9.872817314086701
Ag 7.264257162606787 11.155029149152064 7.962339973180302
Ag 9.593232946179256 9.874883909666462 8.779248775183344
