28
Energy = -57.59633641 eV
Ag 10.761333441779751 13.054936640880632 7.75808638910658
Ag 11.568970405361874 10.468100045376945 7.1820209479719885
Ag 8.350522898094507 13.164635692208824 9.175481662152182
Ag 13.529622460865898 9.13686497546795 8.719374270397537
Ag 9.974623197395566 15.416718621953866 9.365850630878342
Ag 13.400919737938077 12.039641167980307 8.799230383012771
Ag 12.795049356248066 14.69666455434831 8.912869313970964
Ag 11.010237594216871 13.184960265623943 10.574637394824965
Ag 9.01668644000967 10.548959069958478 8.401589130808057
Ag 11.436635787077364 10.49404588960656 10.002199418157943
Ag 8.743361995070098 14.077123135517583 11.84168857686758
Ag 11.78587179606864 11.358856912846973 12.723869839163479
Ag 12.026363723324147 15.742405892721408 11.3526856588537
Ag 11.239761885701354 13.998775242362463 13.315969642498489
Ag 14.03501059040564 10.444475765191383 11.233710445265796
Ag 13.60537365754008 13.277930204316839 11.448918541982533
Ag 13.035382193027504 8.96096603138976 13.433686001668763
Ag 9.236452766993693 12.060210956622164 13.814200755253792
Ag 12.793669567304983 7.677106668503078 10.944718115450591
Ag 8.933943661657164 11.24686579105133 11.136706663561814
Ag 10.472342370390974 8.870912057163231 12.03597350743334
Ag 10.502733158042073 9.66547584808248 14.651892649722138
Ag 10.764591034160285 8.14089225909764 8.713023786922273
Ag 11.468394260091975 6.658222826393005 13.3190697388463
Ag 7.976608790222379 9.591735565760159 13.135952411819988
Ag 10.302382551182026 6.302939870702478 10.690727114327961
Ag 8.380431994275657 8.488934109172014 10.29274006513749
Ag 8.597543505928906 6.927121118193223 12.792786041319308
