13
Energy = -28.40276677 eV
Be 8.869204361719195 8.777772200347517 7.797897663760676
Be 8.242933777913509 8.151591064589086 9.706228821092402
Be 9.616623941591213 8.677181697077945 11.207834310921791
Be 9.680387642029835 10.722644891459169 7.859264081166939
Be 7.687180872797802 8.707062746256735 11.914345874233259
Be 10.62151414108423 9.579030303189692 6.438030714232405
Be 10.250054059208937 8.037940173333192 9.345395730936014
Be 9.976374034396981 10.073741783047732 9.767756437565497
Be 8.335405700397393 10.42700624866699 11.12031495396613
Be 10.69424688597479 7.7674947857057 7.366703178789772
Be 6.669895321194165 9.456146119234901 10.314028556349063
Be 8.031544742967158 10.216131767175026 8.989443973612959
Be 11.422620823615535 9.50424252480797 8.270742008264484
