14
Energy = -33.2191633 eV
Be 10.998324 12.603307419948553 10.998324
Be 9.393340580051445 10.998324 10.998324
Be 9.935902070556603 12.0607459294434 12.698057577735632
Be 9.935902070556603 9.935902070556603 12.698057577735632
Be 9.935902070556603 12.0607459294434 9.298590422264368
Be 10.998324 9.393340580051445 10.998324
Be 12.603307419948553 10.998324 10.998324
Be 12.0607459294434 9.935902070556603 12.698057577735632
Be 12.0607459294434 9.935902070556603 9.298590422264368
Be 9.935902070556603 9.935902070556603 9.298590422264368
Be 12.0607459294434 12.0607459294434 9.298590422264368
Be 12.0607459294434 12.0607459294434 12.698057577735632
Be 10.998324 10.998324 14.10844213373369
Be 10.998324 10.998324 7.888205866266313
