18
Energy = -45.5401556 eV
Be 10.49420416523766 8.879988876454064 8.457817175549657
Be 10.17147128505853 7.001825563177095 9.276948407346953
Be 9.664836061763275 8.659757801185927 10.364176953483195
Be 9.770972706933899 7.304372898928491 7.166602148494641
Be 8.213941629195237 8.112594790251237 5.953692275674207
Be 9.30633605493981 9.591121620970691 6.918952365161463
Be 8.064471509687138 11.171053822039381 7.4943167864291
Be 8.817241220359392 5.754965442512509 8.425031124750502
Be 8.290295727636764 8.235086736907233 8.347963516720782
Be 7.80450898706924 6.307219524791928 6.759966572104064
Be 9.03969609877697 10.245646773532554 9.060171117479047
Be 8.233968971717468 7.010589602225133 10.173971113233428
Be 7.729710176926643 9.27667051410619 10.327716369016608
Be 6.43787783152434 7.992185729064143 9.457036124472749
Be 6.424201104965668 7.950167073905259 7.281441800222689
Be 7.149494047157682 9.720134319027425 6.450494226254085
Be 6.80408735625191 9.87303679063881 8.512486747273742
Be 6.867021733340895 6.2268432748837945 8.570774159024952
