14
Energy = -32.6628498 eV
Be 9.589513535316046 11.669494378439126 7.461021453882644
Be 10.252742702097121 10.151495265258559 10.398363422167378
Be 10.432459427703094 9.773986940872984 7.399363769416816
Be 7.272165821395558 8.132786612176586 11.005839873632473
Be 9.165557313090137 11.634481422502791 9.416406297762515
Be 8.508594259241342 9.933060475594047 8.191437935491697
Be 7.711624926721899 8.161094456395283 9.052918753060965
Be 9.767673314159946 8.231420272827787 8.718775619979152
Be 8.930131125024904 7.1027905594156495 10.407586003989056
Be 11.128668933953366 11.272983980099976 8.734407691146837
Be 8.087563471074759 9.986773052571397 10.235871826629243
Be 11.571797017901883 9.271484790290536 9.000920055641993
Be 10.71897325500253 8.110824096021132 10.604896332710451
Be 9.122748500303963 8.82753730051989 11.632404567475193
