18
Energy = -44.47536605 eV
Be 9.545255253420514 8.110244917109613 11.02125279516161
Be 9.401972601258304 10.547129722695553 7.603830556326946
Be 11.221351237804289 11.703225845266813 10.303993303431236
Be 11.017866694821162 9.760220190021338 10.942164684165734
Be 9.729394037226403 11.401261818707846 11.627537452607772
Be 9.249360800306517 7.307790700040119 8.92986121197049
Be 9.652191483416408 9.567650594406647 12.465358232122389
Be 8.297582888157075 10.030824620969987 10.99869401246258
Be 7.594772911574823 9.922563563840678 8.615193825021956
Be 9.403409208129743 9.386555193212859 9.400348343988595
Be 11.118677241690643 8.225224346107046 9.500318295838355
Be 10.232432597944346 8.644766029058976 7.57639757638407
Be 9.321297950913698 11.424016740773503 9.588639949841822
Be 8.819327432992255 7.274168893256648 6.890261017227809
Be 7.69431985775395 8.225972792506932 9.953562963738358
Be 8.196448873735925 9.175549212612095 6.703974087369054
Be 7.260943863289662 7.9046725809779534 7.990806279896404
Be 11.157964771435555 10.302731944306402 8.802375118315561
