18
Energy = -46.00517613 eV
Be 8.71895414461111 9.406827943082144 10.373192071295382
Be 7.082323980291405 7.482111852388354 6.622199068606282
Be 7.485540653447443 10.332211377727184 8.361701475830047
Be 10.703605108912534 9.212476790263802 9.623136544326846
Be 9.837778549886226 7.563836238035256 10.564925724412529
Be 7.801606003364001 7.411558277058551 10.695074883207965
Be 8.578914960231257 6.524261820996532 7.5240694210901085
Be 9.031296410390533 10.468584494694245 6.904246579915617
Be 9.525263244351475 10.693444325050086 8.870390318829195
Be 10.623218744912162 9.38980926157877 7.59290827038329
Be 6.708618179710482 8.76669193929129 9.713488890341345
Be 6.862675404547486 6.872837048158084 8.748334205464372
Be 6.047197005066644 8.72993955149752 7.832711015273487
Be 10.332936445933079 7.470581080283983 8.454419636128128
Be 9.115888050095794 8.383254878785527 6.48122324811323
Be 8.479757959796487 8.477934970822226 8.493164573570237
Be 8.832238201357837 6.17038367469561 9.471727735360112
Be 7.2572062187872435 9.497819936524634 6.377219050018387
