13
Energy = -24.6260977 eV
Be 11.990825214789831 11.534979969514556 9.918024954585004
Be 11.786631273450519 10.433250468080816 11.729915357820731
Be 11.677724361624987 11.587079993661021 13.432405854988374
Be 11.679009557773687 13.65352260551902 9.906051864676582
Be 11.261722666686245 12.530541721116892 11.603197744623404
Be 11.520773560496528 13.703883124315512 13.297899649658714
Be 12.386282694650907 15.494816902377863 12.686926679971199
Be 10.916737885680385 14.657449613039724 11.547589851886215
Be 12.48794004791644 15.480302688017483 10.615668879415827
Be 12.218302502766411 9.460288684509738 10.035793309471325
Be 11.90801915340573 8.329267996435988 11.799144788215857
Be 11.975752753205288 7.459257409105114 13.685253355069118
Be 12.021274527626803 9.50635432430609 13.573123209617645
