10
Energy = -22.15087273 eV
Be 5.9350574092037105 6.477813010542005 8.641492809293563
Be 7.617900008283648 7.194316521248126 5.7997232608665685
Be 7.935158051615469 6.736499321360415 9.072651054244254
Be 7.246404075158913 5.775239486607803 7.215209058380053
Be 8.60423242557108 8.550773152230763 8.424119279979505
Be 9.068347778457955 6.673832611925314 7.3775535929089875
Be 5.8916101728949135 7.479158867830598 6.8450579324988094
Be 6.586643892603958 8.429696645051589 8.701703297437124
Be 9.09048479628498 8.495571130966077 6.4187491728311805
Be 7.159693445120507 9.075205685402803 6.853632439308302
