17
Energy = -42.23843265 eV
Be 11.351614916884214 8.848953035395379 10.552028854108597
Be 9.159335865185172 8.926385080504213 7.018858524587452
Be 9.415481937887456 9.352556873985021 10.907514188101489
Be 7.481429714183069 7.681620099237509 7.582380844270382
Be 10.623983092101966 10.5892349539426 9.786030370705806
Be 9.931728088276955 7.343181910604551 10.062977712132835
Be 8.623710627375957 10.849489158011744 9.342712515239684
Be 10.15681687016569 10.567735261855614 7.809168597781838
Be 8.021436476294381 6.347205429442609 9.327543736799203
Be 6.640316120880926 7.801820831519416 9.440410270920744
Be 7.238428992729913 9.408172984180943 6.362347346005874
Be 8.585132211042446 8.820917192994566 9.115929716929072
Be 8.219106436010843 10.92309341111603 7.317202243067835
Be 10.692469396080812 8.714713312652188 8.580186274253435
Be 9.401973024141162 7.078151230715207 8.076165673146118
Be 6.90537565953485 9.707128340651987 8.346684650832888
Be 8.089797714521197 7.577778036487289 10.90999562441375
