13
Energy = -29.22185529 eV
Be 10.058583406097107 7.568785361951871 7.778721739009449
Be 11.617970931855314 8.761332836003863 8.423984699154515
Be 8.396132359758962 8.671739070821515 8.083608794508867
Be 7.876975127646358 6.851779215927585 7.496826831227108
Be 7.778442122724888 10.51245288035008 7.685922073973996
Be 9.98630406437579 9.898782941216021 7.890934082242237
Be 6.493146580208169 8.655491232527078 7.449627147511135
Be 8.704138850901533 6.907136859697912 9.341704342221384
Be 9.949493443461035 8.633364323350127 9.66383909054725
Be 8.614047222726354 10.31563008554158 9.515572758206995
Be 7.976633104029489 8.542540159445286 10.409415739868454
Be 6.646134793530526 7.530428668912123 9.141463652216025
Be 6.592102538050702 9.610435141258225 9.246783417708095
