11
Energy = -24.76152227 eV
Be 7.506245810538145 6.662832287664891 5.539840940228707
Be 8.998652581142172 6.265789584922466 7.015667558219543
Be 8.525884170709885 8.246213815623433 6.441314527178736
Be 6.496673267529451 8.399256326298053 5.972393294528269
Be 6.172194431422179 6.680374381752352 7.222786863846187
Be 6.6224487364228315 7.696061413481334 9.06361531405751
Be 7.2517389316038425 9.27810748223023 7.772918634573406
Be 5.354987526599452 8.56795289479209 7.686548653028581
Be 7.408297504121375 5.026712039284176 6.799160293117272
Be 7.627559680305234 5.9578112155029785 8.630412649433074
Be 8.606659674235347 7.7902308730779115 8.426683586418356
