18
Energy = -45.94292056 eV
Be 10.602954262279699 8.95627126333547 7.4740962247044385
Be 9.879659105629424 10.931514487181138 7.854088191405208
Be 10.876842283120446 9.835545765049844 9.325743644912686
Be 10.565712561058064 7.7783590711276664 9.321454216481191
Be 8.758708022201942 8.629556840525996 8.584684686206174
Be 9.060964278976195 9.728623213222285 6.371079257861533
Be 9.13323802397344 6.8690720747052385 10.455625026691905
Be 9.047787823581245 10.691181307886692 9.678155128709891
Be 9.481287814047482 8.965553415979336 10.763600416868664
Be 7.427573551767848 9.40785911478708 10.026007553670564
Be 8.9083313261921 6.508980236847591 8.457185394170423
Be 7.765282957497687 7.984477070156372 11.459859303868784
Be 7.764189389908578 10.385198555660956 7.9320862382623325
Be 7.176334347550965 8.874871317649689 6.461466462201982
Be 6.425966713113095 8.694022031288991 8.326919037499183
Be 7.2121698205100495 7.226199486470562 9.58581881148456
Be 8.95576924148038 7.707236194580186 6.617870433586334
Be 7.173631382659345 7.013601462405641 7.417279986599341
