13
Energy = -28.39683683 eV
Be 10.89291420992155 7.6989195877818535 8.789916785237356
Be 10.773142755541192 9.543772601860962 9.030171406684417
Be 9.438672778902289 8.339029311033098 10.262638938908623
Be 9.938336113362965 8.774300741777042 7.167394329745285
Be 8.865295849616004 7.436277932811392 8.423681075868009
Be 8.72965013962611 9.567965183778938 8.704211562487806
Be 8.015350675764502 9.739476218032285 6.80128233096389
Be 8.11489562688977 7.770042534857093 6.544648246664607
Be 6.9338276701254555 10.512421756952978 8.563332966614379
Be 7.1258995614264755 6.460521045813141 8.009494405834042
Be 7.561989347001018 7.275947835941685 9.998681333751684
Be 6.991061611383402 8.477159766536914 8.27028628740799
Be 7.458572567575649 9.243774389958878 10.273869236967812
