12
Energy = -25.76032279 eV
Be 10.84094516077404 7.806964701243692 10.490911743858431
Be 8.814592940853286 7.567126402281723 10.48317837642718
Be 10.673492978918434 7.969755992773046 8.453900319669076
Be 8.612643349041498 7.462859788367585 8.355611415327441
Be 8.323867192316381 10.800580997382552 8.752787760486939
Be 10.080272942824978 6.29740404802161 9.498015658963862
Be 9.249735838844472 9.28387840815468 7.583345256080149
Be 9.59621653921541 9.374941753755826 9.628763705859443
Be 7.223342842758245 8.678089542181795 7.3404430214405245
Be 7.700011944317617 10.606636011926229 6.803970430387465
Be 6.384579805085766 10.317484651154512 8.268726177664158
Be 7.581882342861709 8.915861580568592 9.42193001164742
