17
Energy = -41.90417012 eV
Be 8.209737868706581 7.4556299916562745 4.979656482171219
Be 6.225001461232443 7.941532371292354 5.125587498939281
Be 6.7087829506689625 5.9658613733867085 5.368979833716079
Be 7.6624674223523375 9.009099831229143 6.330311170702172
Be 8.666752449719706 5.684416343439836 5.901431452132543
Be 9.252502172608732 7.5397663634984395 6.83485008292441
Be 5.533747197079845 6.896362404767973 6.882491994738061
Be 5.4899350733720444 9.099623327608677 6.722811818236809
Be 7.12339129815406 5.426989387168936 7.38726499336207
Be 9.25946757390592 5.615124946713137 7.9204814269893165
Be 6.7197808070898875 9.726012308933168 8.213422176264835
Be 8.60120692809385 8.986346425098123 8.199162159139789
Be 5.292271336473958 8.309288621537318 8.583754482100263
Be 9.339846176856618 7.303806264136138 9.04594030349943
Be 6.052290741726206 6.456587110046407 8.860480413369299
Be 7.9127786039764665 5.887729559944425 9.416034758916242
Be 7.28646582999999 8.032249261560962 9.5637648448158
