18
Energy = -43.97977646 eV
Be 7.715879033007384 8.694971022814114 10.63912886749293
Be 9.92277308072786 7.119819566011713 8.243658883585944
Be 8.211211766566239 5.745269012989915 7.807660448737469
Be 7.052443591497408 8.453645313717066 7.311646247195258
Be 11.201659848400288 8.740247013061383 8.336150554928516
Be 7.4758453936553435 9.779610505330206 8.916196318986733
Be 8.047219609670694 7.423395253677658 9.046850816542214
Be 6.735187784753517 6.448563648290253 6.6421983424250035
Be 5.186131865769598 7.377514271046419 7.650251303349786
Be 10.885277076586883 10.582102622786097 7.5589888000279855
Be 9.707994445986595 8.570835610597532 9.834033687809232
Be 10.849183795745503 10.403938479608742 9.529566381981327
Be 6.114851713621118 8.164243712659019 9.313433739875169
Be 9.116353326259832 9.094200211589808 7.664649819789786
Be 8.903697161708346 10.391709616479512 10.355288640794143
Be 9.100919239813297 11.05211069370373 8.46385621708114
Be 8.649820092518173 7.305227406312638 6.602390806554891
Be 6.3438814857768095 6.179946644909618 8.74240248872676
