15
Energy = -35.38348119 eV
Be 10.626756181409178 7.821293668604908 9.082209698275785
Be 9.151396403013605 9.259188707590999 8.916818941873693
Be 8.590169661165802 7.34495241596688 9.74239867314551
Be 10.231977438533889 8.523171941063389 7.231398401432369
Be 9.420695596589562 6.6595658185007505 7.873383168031334
Be 7.9439999900071765 8.035204985730118 7.868743077814544
Be 8.77951834725568 7.662762271565216 6.043170238599855
Be 8.573788235287747 9.691222398486426 6.8526218796390586
Be 7.178758505455314 8.86026519173456 5.616435986764991
Be 7.298018109552467 6.210883743434101 8.413288683553192
Be 6.534899048024686 7.205457526843619 6.624321128843856
Be 7.0196625605966965 8.816614915903932 9.47270769925878
Be 6.322148164205556 9.214309714045687 7.437462797473787
Be 6.48770840296443 6.942191190777587 10.173402635632684
Be 5.638755346873226 7.551167500687855 8.449888980595725
