15
Energy = -33.5941347 eV
Be 8.607589308954521 13.833423038878323 11.810728566786628
Be 9.138870505723625 8.369120141096785 11.15407457710164
Be 9.380237765011033 10.575034357118284 11.21982469092356
Be 7.934733823508867 9.748449011909083 9.987998246314032
Be 11.15756002583485 9.27982740675045 11.05872781955087
Be 9.392720764190555 12.487126347523887 10.431880675682045
Be 8.830875407947461 7.414339682258215 9.281974470897758
Be 10.698601535640732 7.325737079109881 10.083701669631663
Be 9.021323708623262 11.136289028153515 8.890487691061479
Be 11.833566494677049 8.720943001130268 9.10231005771643
Be 8.628822128627439 9.12460769065622 8.036228784071893
Be 10.35871477166919 7.826113965697465 8.002291423422333
Be 10.852635872568086 11.146068565554211 9.826915029333243
Be 9.881313470761876 9.34614885769695 9.573300720324726
Be 10.648142896404321 10.032480306609614 7.905264057324565
