16
Energy = -38.66652264 eV
Be 9.285960325142025 9.052983920596029 6.85911365445532
Be 7.23010484273473 9.521414767287045 6.750146715682057
Be 8.615845581235048 8.105439606059237 8.655497880763766
Be 10.093154355597164 9.927468659175782 8.660729160283775
Be 7.982216963709343 10.247115197377651 8.53623943760439
Be 10.950745677509904 8.198066812000281 8.024418599560155
Be 5.821857795664351 7.997727785725824 6.919433095522281
Be 8.929689717256224 9.78455320452194 10.377845955241751
Be 7.17461728076458 8.759679284525959 10.138213150403384
Be 10.23076855581334 6.787572671715698 9.314632934929962
Be 10.653170886188873 8.639798107928858 10.139254775841843
Be 7.781379331700012 7.547275431114572 6.6585061410510455
Be 8.919323399362806 7.70385443855939 10.696815482920055
Be 9.652896156726962 6.8501717756968885 7.262727755276771
Be 6.742100323383644 7.288152133858958 8.594478573226256
Be 6.126704467617768 9.324851890261499 8.491121621324506
