18
Energy = -44.45069535 eV
Be 9.09016953284236 7.149627903523704 10.031276531647649
Be 11.692391764330985 8.811690240079871 8.959136758976275
Be 11.177592367969819 7.273853155702928 7.569199520759398
Be 9.728474055278683 8.525371368402915 8.319520724411081
Be 6.081844100994624 8.89242741966765 8.948263629160655
Be 6.518528032395939 10.565833757417208 7.883733806573718
Be 10.188179458166678 8.894238101099583 10.387029764408853
Be 7.593472320856735 7.257664205645993 8.485931014722906
Be 8.812493864414364 10.70592130404883 10.552714218323883
Be 8.486417886661902 9.933530573925077 7.482730635272768
Be 11.065956991622214 7.0005549401189215 9.580587762579864
Be 9.469185470391372 6.315465817011051 8.218801092048555
Be 6.940895592220464 8.62456292724768 7.09901669569653
Be 8.076513438085437 8.996176954216049 9.635487210491819
Be 8.23305634790457 11.517648072327127 8.79507979759971
Be 6.712783827423231 10.628568569327106 9.912113737087381
Be 8.812894065173795 7.676572408962765 6.775061072674683
Be 10.098297309150237 10.422952589499275 8.987887122002139
