16
Energy = -38.73571673 eV
Be 10.417346165578914 9.845225178519465 9.803283750866278
Be 8.83569168862085 9.18415236603682 10.893158209989673
Be 8.40871987771039 10.663694216500678 9.618150411967871
Be 10.50945810885084 7.838997548027282 10.305017680727529
Be 8.58367094703637 7.320286243224822 10.020957567125425
Be 6.409435182263045 10.578964979405878 9.040713944856432
Be 11.114142236738576 8.33683154774812 8.50227525240198
Be 7.107357811254826 8.78485359669977 9.719438850559424
Be 7.801248849411203 10.39608108470825 7.541201178875173
Be 7.55172081077085 7.273143908051483 8.195896346259724
Be 9.912396372607729 8.102783893065144 6.763537774323114
Be 6.347449533489021 8.951129012195906 7.773093516567837
Be 9.007990515265442 8.965717574786902 8.441836128200896
Be 7.8953702612547945 8.53530421519814 6.485174208945277
Be 9.749760214580427 6.774590138639557 8.40773311591102
Be 8.621537658407938 6.609649970864668 6.552188483240721
