16
Energy = -37.7834294 eV
Be 9.825413188329643 10.891384111643154 11.994906210697037
Be 10.40198039971085 8.952712982259515 11.629039707191763
Be 10.702697705253382 10.251759859679392 10.058003215412548
Be 10.636306318751254 8.209642317520187 9.550000719391447
Be 8.5395615270968 9.325194703140548 12.422051207372302
Be 9.311048995879286 11.76817336761725 10.211434964146996
Be 11.43973562032461 9.562445242736722 8.11315225604863
Be 10.614783722053055 7.710702911593618 7.488357611744821
Be 7.832376995956499 11.151672429790294 11.503172089043753
Be 8.753848323372763 8.410308130705676 10.426282993269847
Be 11.776426203872433 8.766035465542892 6.235141488442866
Be 9.664688240546795 10.724232030357264 8.288674150334902
Be 8.98922843939869 8.732543571178324 8.351456315356318
Be 7.0215965818032355 9.351666528910549 11.095617693201616
Be 8.055042208049468 10.225394607756876 9.51389756230046
Be 9.930543281036124 9.461409491002213 6.614089567479851
