16
Energy = -38.66291671 eV
Be 7.689811301581403 6.744135294772481 4.777987307696935
Be 6.8864587343008505 8.489236754394234 5.375926622785105
Be 5.870459648708191 6.683084951833638 5.926600694242676
Be 8.923306565276379 8.156027658498532 5.709760672455494
Be 7.290347580791253 5.251502194036525 6.182907675291354
Be 7.321456324190969 7.667854721594019 7.226670245925879
Be 9.068172048844193 6.192527724634165 6.247950669900543
Be 5.957380497766369 5.700769874790029 7.748704394731454
Be 9.416350907711784 7.654586620192708 7.720770868906054
Be 6.348435530215843 9.451355189442744 7.634440352645029
Be 8.06159084924478 5.866409588067294 8.168931030777264
Be 5.34459064586983 7.636227728759145 8.16352143997421
Be 8.282471744008603 9.319243108322935 8.420955522336111
Be 6.509023024189918 6.681681395335418 9.529514510598075
Be 8.302872959501588 7.589683465316259 9.505874524464243
Be 6.580720250482046 8.769122342694171 9.512932079953575
