14
Energy = -30.73231021 eV
Be 14.396979517534664 9.33297640857189 9.036076426253786
Be 9.495905172945328 10.020407126589236 11.700933995561394
Be 12.33983947715293 9.004164078132403 9.283002366824237
Be 10.688137735515541 8.513986204348273 10.816917846685742
Be 11.09917772232544 10.473910798069795 10.390735257134565
Be 10.025322730195208 11.980582454731278 11.347078812368121
Be 8.742961279066353 8.740297771350265 10.118594396430067
Be 8.04335709949587 11.684980601395415 11.167237135255771
Be 11.00845307382455 10.258089852781595 8.31547271395454
Be 7.434223894225924 9.813505978831072 11.458206959997145
Be 10.465351589942282 8.345119156055196 8.815920585134279
Be 9.009586155116352 9.716199321427675 8.300788347162138
Be 9.463570810539277 11.40006171625943 9.418285440742816
Be 7.5411644045690736 10.46974919390499 9.584780378943918
