15
Energy = -32.650904 eV
Be 9.873312302897633 9.840520404770176 8.172003343322462
Be 7.792471735880243 9.38264633223741 8.000238624625817
Be 9.369838289989529 8.565337949540892 11.65800978070871
Be 5.798564719682927 8.168805877165829 7.8706019645525265
Be 6.675834760064082 8.683096886161628 9.612367223314582
Be 8.584175832005052 9.731977452735892 9.967007135562717
Be 7.585678519360333 7.210119869771153 8.03722626516591
Be 11.625265692092466 8.750418127805087 8.356899244112642
Be 8.463073058675304 7.492102333424665 10.000141322519088
Be 10.397853559856536 8.548596563775053 9.94023077066247
Be 9.646292107868565 7.663449342013835 8.196621641933216
Be 7.010064372697611 8.029706495195434 6.260998237933443
Be 7.405364476548071 8.766665173668697 11.469874253507689
Be 10.891273979700019 9.09728653171789 6.528512157331961
Be 8.939541237360212 8.642319724294609 6.436675228875331
