15
Energy = -35.23468665 eV
Be 8.200638438847493 6.07142945664271 5.3666781069741
Be 7.021769973934803 7.700336346783451 5.827402062115551
Be 9.684350555163803 8.382818856231442 7.786665094728705
Be 7.750521121510368 7.825420410969137 7.726712891336228
Be 9.035239325607813 6.318329356922295 7.23658712443198
Be 6.497471885210978 9.548900062158042 8.081448446283531
Be 7.777023375451458 6.262677699801442 9.007647074490755
Be 5.786146321289206 6.311115300728595 9.050263057503678
Be 8.723426670474463 8.021197394271288 9.645699660431355
Be 6.6492289468421975 8.13434236142234 9.599624998528993
Be 6.89147019381098 5.942968690770065 7.109912997776365
Be 5.741274742096801 7.65761942649423 7.582470978662525
Be 9.108678493125545 7.84039655565496 5.804863247114357
Be 8.065091539633988 9.498019951251205 6.648791687654294
Be 8.32477458360441 9.741534296502689 8.782338738571605
