10
Energy = -18.2393789 eV
Be 11.203041679857494 5.911715471714155 8.463657672762768
Be 9.110797716543932 9.376999792107393 8.383055885216837
Be 10.253107270908048 11.057049251577507 9.306584701099762
Be 8.419908421850215 10.429609060079176 10.149104797771706
Be 9.122653718700485 12.384427059266121 10.502468511721489
Be 10.125807635892924 9.13867120278313 10.169433988855749
Be 8.255476899721351 8.35951859473386 9.765223690644001
Be 10.070216171354812 10.957336795384453 11.43987979538669
Be 11.12323602047328 12.425400860778527 10.567599416826969
Be 9.871865502956668 7.515382949834475 8.809102577972546
