12
Energy = -26.27956449 eV
Be 8.612255998360956 9.820411206288904 10.719038655320112
Be 11.690583845919472 10.24661288313689 9.640121495967131
Be 9.323890238110076 11.193219762720965 12.127444373984648
Be 8.885316720749042 9.716530815698533 7.391474395488036
Be 10.050746586924092 11.259386020218315 10.182209903737595
Be 10.675008979496821 9.681272604796945 11.592540787193135
Be 11.590742752467728 8.338495608325955 10.426262749026971
Be 8.288480452544261 8.664433205273111 9.096619045483521
Be 9.588280510441527 8.05563206579823 10.674975729048509
Be 10.32553228365043 10.970213763889868 8.170007839896064
Be 8.364126867372718 10.876498372265752 8.885589148626657
Be 10.328596465145477 8.900855392770229 8.817277577410756
