17
Energy = -40.61596784 eV
Be 5.7159688274111575 9.604654093114535 7.55453536837523
Be 11.380496874139611 7.668830796405182 9.894936131224606
Be 6.574827302778744 8.63743693947473 6.040516865533082
Be 10.09880920510618 8.72550019681176 11.098692574037846
Be 7.306100837362532 9.983774293211487 8.894860546644072
Be 6.728883411147873 7.9980632227204005 8.53943251002533
Be 7.1844630519450465 6.886686492243085 6.880150201042016
Be 9.075080335313833 10.34410346651672 10.18945676540966
Be 10.49531548460476 6.236934377819255 8.689537795832626
Be 7.4729697881254475 10.327611279928595 6.842073728337633
Be 9.54866686177102 6.793859802432738 10.37165933703989
Be 10.22257482342089 8.261802000294127 8.239167877636916
Be 8.469908044465837 6.793011557412817 8.507932307363816
Be 8.400396578723504 8.456247117214316 9.831423380373622
Be 8.524904095386242 8.449555558971362 6.970439174404617
Be 10.880118481822642 9.753208792399276 9.505828198624538
Be 9.235698875333831 10.128250676684065 8.074541528939362
