14
Energy = -31.82532338 eV
Be 9.572627753985957 11.810308968969917 11.214285144645716
Be 11.1020592871977 10.41101519261911 11.773997797592564
Be 11.360990959055373 11.603079054478089 10.11574
Be 8.870489040944628 8.628400945521909 10.11574
Be 8.091447653207558 10.618627562431472 10.11574
Be 9.129420712802302 9.820464807380887 8.457482202407437
Be 10.658852246014042 8.421171031030083 9.017194855354285
Be 12.14003234679244 9.61285243756853 10.11574
Be 9.572627753985957 11.810308968969917 9.017194855354285
Be 11.1020592871977 10.41101519261911 8.457482202407437
Be 9.129420712802302 9.820464807380887 11.773997797592564
Be 10.658852246014042 8.421171031030083 11.214285144645716
Be 8.094946823411963 12.640181806262195 10.11574
Be 12.13653317658804 7.5912981937378055 10.11574
