14
Energy = -32.10254259 eV
Be 10.856954924392944 8.166735818129043 8.624735665699093
Be 10.14976876955398 8.338587722502606 10.88407762901032
Be 9.225025551837957 8.744387119506767 7.327822457540395
Be 11.395221295754041 9.87609629268106 9.81686506184427
Be 9.984156231247983 10.621781435354038 11.140305194253301
Be 9.422716597385637 9.428195875543867 9.395587628116655
Be 8.178043033914024 10.955641911744156 9.997529089862635
Be 10.09745168818563 11.502492394900342 9.234409094535295
Be 8.991208687463232 7.3013112226968335 8.764953111008412
Be 10.735027997593422 10.131655255892875 7.793832569807193
Be 8.639389735829608 10.642892855916468 7.919210217193702
Be 8.14576515869577 7.641692549550415 10.529797716672235
Be 8.332265540694541 9.429017493889509 11.37418913715746
Be 7.5638765069385485 8.936384051692029 8.913557146786209
