19
Energy = -47.09508892 eV
Be 9.684753095299088 8.407301540466046 8.505988899224803
Be 9.295068962760729 6.54124934767607 7.303181119734401
Be 6.1144795786936745 8.072223162400471 7.153100350938056
Be 7.725183243855009 7.580821427321176 8.23400221318195
Be 7.891473692293968 9.054338652153689 9.712134645022244
Be 6.489695329593137 9.942432741587849 8.428918554840436
Be 9.91967159837337 8.594069970543533 6.457584759549967
Be 9.275661427618871 10.62967390268959 6.4153053326802745
Be 9.038230742027949 6.669284042925675 9.49907583379804
Be 7.729960690328987 5.39865357007878 8.644790443403915
Be 5.79341987744404 8.205526485190127 9.249904065242326
Be 9.823279367525275 10.028874116569522 9.768698903601111
Be 7.966108882258921 9.352301198538164 7.170389421251825
Be 7.002034134250118 6.818451195742118 10.0807029543151
Be 8.137270064152665 7.65561149312537 6.041403912920558
Be 10.526726501185747 10.165000485520677 7.858199570965028
Be 7.116457426212363 6.029047670667729 6.841662667017614
Be 5.843449999679112 6.311958600042825 8.394425290625506
Be 8.515115169263598 10.811051523338554 8.4768056428325
