17
Energy = -41.02097038 eV
Be 8.944473399070056 11.24713547127435 9.252757868015099
Be 10.527091206736488 10.940812262077216 8.03105280357894
Be 7.326007928328534 10.18987818049082 8.44725059787774
Be 9.760287491987942 9.277768344276765 8.993578677532053
Be 7.336795750987844 7.716390799172007 11.109058497331771
Be 8.691249553413243 11.170269994553582 7.188751752794357
Be 8.085753508852033 9.520231893933046 10.296172028073284
Be 9.862924047561128 9.254729019030556 6.902417767746007
Be 9.157976285452241 5.754546294293858 9.29910103836498
Be 7.819073239017732 9.468188692402622 6.538819444115626
Be 8.890588743921379 7.610492172380077 6.332616831899605
Be 6.389552711343487 8.532691537204133 9.610618119356056
Be 9.110262798568213 7.613503582291394 10.036278784049689
Be 7.847782954397967 8.14844623006732 8.146645500729168
Be 10.001493174599005 7.30502542903745 8.075743471629165
Be 7.223437163503422 6.5167305931239845 9.431839610331107
Be 8.254205111386481 6.085336734954945 7.580223957892075
