11
Energy = -23.47725745 eV
Be 9.732891052250682 9.121470740520778 6.471365914266956
Be 8.352479156629578 7.662872803414912 6.875242293727806
Be 6.529175012206851 8.562270973569563 7.5685090166753675
Be 8.254901464403291 9.817838637979444 7.701836020914295
Be 7.0384904037363585 6.559443727918944 7.817551415989953
Be 9.942206723741442 8.377302201767023 8.366529777157501
Be 8.982736269269054 6.468978198671362 8.541552211760704
Be 6.907601283733161 9.908765284012055 9.112949542935729
Be 7.5702330897827546 7.914436362832606 9.355418425200394
Be 8.866898039305783 9.620211712507377 9.740929559230729
Be 9.517957132199172 7.681978984063826 10.143685449399046
