15
Energy = -35.43594281 eV
Be 5.224697528570051 6.525140824283744 7.434925590408647
Be 7.610169395648217 7.510366020932537 10.041524353664624
Be 7.362782904549765 9.234673102589836 6.8146937453699845
Be 7.098475344284728 7.212422654678944 6.987328537574313
Be 5.453101462478774 8.37677764217892 6.403203014653978
Be 7.672078978178758 6.340835585367831 5.168486930602976
Be 6.345730539900226 8.168149230378624 8.568444801393948
Be 8.751234846785591 7.95877114035185 6.044156771270674
Be 6.614768138378779 5.252299809439394 6.664851899237137
Be 6.936022089070404 5.9867180161140805 8.702956699333864
Be 5.618307259845881 6.627683441261514 5.298842204084584
Be 8.581196891317724 8.08123190136998 8.224054347234429
Be 8.9752060440455 6.272355395247392 9.283841153706174
Be 6.906609492051097 8.254838962278317 4.926357328788528
Be 8.681227454699245 6.029344643332362 7.267940992481752
