16
Energy = -38.4892448 eV
Be 9.570730323768915 9.636846375984472 9.623597068047221
Be 8.047137640413137 10.12809247803566 10.854647935251142
Be 9.519545639536165 8.55592407456003 11.379655872875661
Be 10.720568454222118 10.437407806963247 11.016935826802394
Be 9.22821260689572 11.784030214598966 9.985616671236237
Be 8.065888764551405 10.689774612939765 8.66622329603377
Be 7.79435840110387 8.088526040866652 10.425352111753572
Be 9.660205657736414 7.496751986613307 9.484524566268451
Be 11.359279071013754 8.524437346808162 10.51586162650506
Be 11.704831417297715 9.990780559015526 9.078076821888486
Be 10.166523946461133 11.19032676558685 8.264647127729395
Be 8.108151750241793 8.539624253737141 8.472950135705796
Be 10.097183302995036 9.094047771015537 7.834046021462813
Be 11.254815427757007 11.983983184012347 9.73351140946747
Be 11.60698745905258 7.899765843966733 8.66761530405249
Be 6.624227736953375 9.488328283377006 9.525385803001853
