18
Energy = -44.15404431 eV
Be 10.461492975934163 10.14149274108548 7.567411068314995
Be 8.81060924613701 10.136234924402181 6.3321317470594565
Be 10.925352154462997 8.166280176938194 8.14129532639114
Be 11.365886086400268 9.664420977047277 9.479223359697668
Be 9.414865689026572 8.31538838736276 6.826989424352212
Be 10.30485913445014 11.42425359807926 9.256043617255147
Be 10.132284599403102 10.45380067606225 11.133123028221439
Be 11.623464082568173 9.006356232661267 11.440849262945205
Be 8.550327009257867 11.098737153641627 8.139545763390425
Be 8.48255668959426 11.417966432483206 10.238967495903708
Be 10.6090261093812 7.706167953844238 10.21183572498872
Be 7.681020835711792 9.062091146219924 7.743770502238725
Be 9.75106085012431 8.563620000314874 12.006318128143258
Be 7.0629188279660955 10.267840250218319 9.35006773746796
Be 8.946884175756093 7.436183180630514 8.675713741409568
Be 8.105121096177193 9.524626564200767 11.143731318215494
Be 8.652179617437827 7.433580606589099 10.770079911514559
Be 7.18627284786715 8.247141025875361 9.609084870146516
