14
Energy = -33.21920242 eV
Be 9.393221027800852 8.859045135901782 6.530146449078773
Be 10.014633562611447 7.222615910731268 7.527913528663506
Be 8.060604738143054 7.274502102838384 7.025666881522866
Be 7.937631954593733 9.141863764529738 8.076193682717536
Be 9.440023970445418 10.629994447065926 7.708708575347273
Be 10.810743496960685 9.163887579825701 7.9233867637132605
Be 8.49604409724663 6.418358708285944 8.793614815158477
Be 6.766652831830574 7.461140899771041 8.711265899810071
Be 8.149095494379626 10.818498817531125 9.398422492924277
Be 6.813089694030768 9.230705221358011 9.903335831473726
Be 10.091887478600933 10.295325875210985 9.5810468623289
Be 7.7795233310263665 7.548892239939772 10.44739663929923
Be 9.469903686860402 8.254583939826837 9.330691370969795
Be 8.577925400186512 9.48156612190011 10.843190971709179
