14
Energy = -32.18231761 eV
Be 8.643749932403843 6.202391058032967 8.182175402735936
Be 10.051474985531502 7.590576587835023 7.568985384294251
Be 9.36332647631356 9.447922663151655 6.743774935556515
Be 9.940054628730651 10.944122757014782 8.137414673718153
Be 7.147470392439798 9.251743051417034 9.586269652934966
Be 7.453933481267037 10.11939570272152 11.416149065380928
Be 8.75140857382186 10.721511640439749 9.935932414526679
Be 8.024774847552221 8.33724387955567 7.940310453750523
Be 9.74026247561351 9.068946541093199 9.109601228327715
Be 8.675890283605254 8.570675977015364 10.790233871763736
Be 7.62146669887593 7.170930811971816 9.713550586796275
Be 8.00347801673949 10.41898528874703 8.07411224063872
Be 11.140396271825066 9.365069438313435 7.4259131712379425
Be 9.667390815363559 7.015562482774167 9.600654798420823
