18
Energy = -43.27399121 eV
Be 7.138943712449349 8.247361814784316 11.658732609273699
Be 11.231953247797744 8.257417824140113 10.201395925874682
Be 6.395228003132652 8.387128768103828 9.812752053307511
Be 11.422943204538145 10.494202592971375 10.437848210222837
Be 9.70221434646645 7.1005098539547395 9.431797213636484
Be 10.060163303823625 8.595324021117637 7.912358855934621
Be 11.860673661820638 9.50943985291116 8.682071075658357
Be 9.741691277447773 9.481354009622835 9.824594766750284
Be 9.324748437566138 11.440987672540482 9.77754010389004
Be 12.067171615604117 11.671076866685002 8.84657106222862
Be 7.743434311198271 6.852909479406916 10.35424740097201
Be 11.047626681516276 12.60459939114675 10.293835596296232
Be 10.254497036105743 12.687847791983977 8.463514336580117
Be 7.8164880034380495 9.760534581431468 10.301782996693372
Be 10.432848616583064 10.681285970282778 7.915574822899105
Be 8.468687102504571 10.136452670793577 8.261846018512077
Be 9.227646059901721 8.042253383928516 11.200489851274996
Be 8.154104139853702 8.140376215942705 8.714109861742447
