18
Energy = -46.04697021 eV
Be 9.562439714771768 6.9411820092046606 9.308910240891574
Be 9.332236033777184 8.342796885868168 10.96076076481989
Be 10.792581107045926 9.275171305131034 9.649297587713734
Be 7.449239680016776 9.389599577145313 10.603177472619668
Be 6.497923409144209 8.066060525649872 9.080775156987052
Be 10.88566879677567 9.995431088365299 7.677370423580309
Be 7.6305654780130725 8.253183334117669 7.314355446831238
Be 8.164239022876487 11.210654655559747 9.54196987688477
Be 9.600003667887021 8.838620220283032 6.545751873344758
Be 9.257789774919225 6.9192971204128275 7.231185093719985
Be 8.865617595450965 10.583735128409224 7.656071618417386
Be 7.648452035671736 6.4902128146957025 8.503430596500854
Be 6.996655146565718 9.928327769188977 8.51825054608987
Be 8.876173737268358 8.882089140487237 8.87555159001525
Be 9.438975942791242 10.35141957657119 10.867627872163572
Be 10.921333081578199 7.93988499785316 7.90943559242311
Be 7.763437153580162 7.191979052012313 10.410619313198893
Be 10.166093823041193 11.249780000219353 9.19488413497287
