11
Energy = -19.89226753 eV
Be 8.748276231339679 10.712008493343191 10.849437319517392
Be 10.184634292701462 11.273310986180105 12.233150291669343
Be 8.563879153548019 8.618904548040627 10.467435861286926
Be 10.876072793035284 11.160598242368263 10.366878858535358
Be 9.728089709196546 9.901875259979787 9.21763504535806
Be 10.761996306557206 9.117677464141233 7.62246464828881
Be 12.198308447240777 8.585011145330133 6.158333098807897
Be 8.775550622625033 8.395905870050774 8.239288687102665
Be 10.396966261284257 9.485941558020299 11.3515148597949
Be 7.571842580990511 9.80233232281474 9.194611744879222
Be 7.102125297183031 7.854175805433198 9.206991280461235
