13
Energy = -29.8676655 eV
Be 9.798103562745116 8.091586719412215 9.293599366518029
Be 8.74647775703916 9.968462385319679 6.531493693513507
Be 6.703104770031937 9.719113160578912 6.872148289900764
Be 8.240818903727599 9.17264887337103 8.370917255385008
Be 9.55496700099252 8.079369891793375 7.112545028992504
Be 9.420873750329289 6.373775356679495 8.329276564317203
Be 6.267760268679248 7.717430143120541 6.925647475032142
Be 8.900656957955274 6.594035821122145 10.296715741416218
Be 6.254313883068766 8.732345374531128 8.66631384306729
Be 7.751875530603186 8.280333800811235 10.14788502344346
Be 7.853552568144681 8.439787086081038 5.678136534372758
Be 7.2887709297120775 6.8660890051748895 8.7057668276181
Be 8.035818651625378 6.681393631336244 6.782236224626071
