18
Energy = -44.54702156 eV
Be 9.185376018689873 11.37387082625502 7.188103483646792
Be 9.74461867963363 6.9222844417844085 9.790005510943857
Be 10.104257674859769 7.945866308453671 8.026486357861547
Be 9.992154420947047 9.98317976758523 8.618663969503883
Be 7.706566147983853 9.906011665854571 9.007408014077432
Be 9.960084481254013 11.994526691408053 9.094938258623698
Be 7.299573390963046 10.814672540182036 7.16362690462621
Be 11.20579982048911 8.611252299740604 9.680624765265703
Be 8.78327160412515 11.017311011163951 10.471940785841452
Be 8.990962495995085 8.868464686105167 10.341358484565877
Be 11.46090833828001 8.91345876079628 11.79001325960429
Be 7.98992787852874 12.01897080606837 8.786314763062059
Be 10.793957363122793 10.50375438142343 10.563677846678548
Be 8.6633936635644 9.268577491037385 7.080531135928207
Be 8.230119815427482 7.917718226972877 8.596204474658128
Be 9.663949788824409 9.72515918941753 12.098615289471695
Be 11.456091599434096 6.954218315725134 10.939810934862637
Be 9.836148061619507 7.594839759513103 11.857843771974796
