14
Energy = -30.86084332 eV
Be 9.42735799794632 10.048840671930972 6.669002406937797
Be 9.704539364431561 8.42631929706653 5.618818922332615
Be 9.874939198399645 8.229700403196041 7.78797021921169
Be 10.28006224323514 10.168103473437267 8.573260243720448
Be 8.290096534158716 9.768676870115137 8.472950624813727
Be 9.685003050820098 8.604353328753668 9.837073393019285
Be 7.9580099681411784 8.464784755941118 6.76309583075752
Be 9.039352085608432 10.437331739234368 10.323314866339372
Be 9.617966695744117 6.619018828650634 9.373691911930635
Be 7.986658546604572 7.590509307704852 8.699755430388347
Be 6.459383134455692 8.801131259046896 8.236290094044923
Be 8.148153011564364 7.1587646951344395 10.76399960623653
Be 8.642771830643227 8.911266000765803 11.722933875842635
Be 7.355942376534459 9.035778898700174 10.191763733258632
