18
Energy = -45.56460422 eV
Be 8.857032924216684 8.974404983658362 5.650750499908184
Be 10.055010028074808 8.994012912825276 7.248087978790554
Be 7.024177428418287 9.844017683631284 5.739530057332292
Be 8.265192954140101 10.101672742968692 7.398476241537725
Be 7.190580159863484 7.845458741749426 6.13425400738524
Be 9.293143921835016 7.063477730680987 6.497030890180909
Be 9.406476854810425 8.891216620828185 9.264413210880987
Be 10.500557244200536 7.303421255239456 8.306345097958499
Be 7.998933196587003 8.051367988379399 8.059484849294503
Be 7.709994453804488 8.144870368905753 10.43660422347853
Be 6.2085857558558635 9.323495991867775 7.582980129895472
Be 9.495095642628863 5.5593233582711346 8.053273917205651
Be 7.323763232089135 9.815380160828635 9.274895637939279
Be 7.654141159095356 6.071576821241961 7.495736733450468
Be 9.041298202401896 6.757024501567903 9.659774629060406
Be 5.885898365379096 8.398898627464773 9.582909296592316
Be 5.938417728705659 7.315191896133268 7.860703387525693
Be 6.97328745409883 6.4424541501735755 9.44374885151566
