10
Energy = -19.50340804 eV
Be 7.707477533104849 5.922341628633486 10.476532156680877
Be 8.176711795385465 7.872307336612061 9.87376521135734
Be 9.961818240979357 8.865722978797931 10.255619605396733
Be 9.649831327126952 7.957617386744332 8.411880707095019
Be 8.223810633861223 9.948054531255174 10.033926399858187
Be 11.248342746984825 9.298068822059864 8.66036202989451
Be 7.911375311583552 9.044078628080504 8.161402333233616
Be 10.0262620351183 10.873983499670182 9.264625311582718
Be 9.719725219560782 9.982145785379213 7.418101809798859
Be 8.226409711645198 11.087443958117879 8.295548990452646
