10
Energy = -22.15049565 eV
Be 9.111445550754242 9.028351109320491 6.97826511682633
Be 8.938111971045803 6.851872717944981 7.222920064809727
Be 5.959110072834753 8.276852725385885 7.959718294879408
Be 7.4090864952019935 8.006434449174506 6.521992858558605
Be 10.296821587171348 7.969582319062269 8.29455012866585
Be 7.4237953997286565 9.726591222197964 7.88814338912047
Be 7.1976387678614335 8.37009942124343 9.606244077729915
Be 7.181716575356363 6.6433833236362965 8.240293761200455
Be 8.964353744381484 9.287858811235887 9.153736230499215
Be 8.789421963084799 7.110476028218885 9.405638205130908
