14
Energy = -31.52044707 eV
Be 7.620339005646673 5.608021091908156 6.446962050747773
Be 9.492975125677868 6.249291534091299 5.951013902868598
Be 6.221889352423977 7.151698382595424 5.974162743894301
Be 8.175751223949147 7.764454387545608 6.085586576374266
Be 6.856702967743448 9.188122096248469 6.84585070746242
Be 5.8320939535496885 5.650992134258616 7.3393720189110185
Be 7.656162586615569 10.598086827695708 8.125681363745466
Be 9.016349506752737 6.726918028822003 7.844205345168576
Be 6.869500091256847 7.410640807077276 7.890875127781929
Be 8.832116635079988 8.852922475431416 7.806221274379521
Be 7.4824436987251834 5.58655696696317 8.577553906530845
Be 6.596657016025894 9.177781386890366 9.065880755626775
Be 8.126585757383209 7.60669762437664 9.510062343989166
Be 8.428367073459878 9.635750250386687 9.744505876810038
