19
Energy = -49.0822851 eV
Be 10.405996116659441 9.143344838852439 7.936759502010826
Be 9.03200031730254 9.691985307999479 6.553669600286775
Be 10.163013430106888 7.951071080429582 6.324907376823689
Be 9.836541952858688 8.533232109853763 9.79475267927466
Be 10.00436837578653 6.999979034537824 8.390379619856422
Be 8.143768553815333 7.9819262076693915 5.718191794022446
Be 8.638303108643138 10.002617663750526 8.635325915080113
Be 7.000673437418333 9.611234062143353 7.031464861456673
Be 8.06534871685995 7.975738585042108 7.955131136987137
Be 6.676140703563533 9.637315629604851 9.141345686853693
Be 7.957600492740476 8.82931400222547 10.474709104993753
Be 6.134476235316884 7.867440500064777 6.247709778755076
Be 5.494218887428633 8.40955624237268 8.069231586753597
Be 8.651005736578645 6.909714578327062 10.043838715652246
Be 7.23068078011503 6.127344526842758 6.3301139611158845
Be 9.213137970212596 6.202411269380737 6.664486602623703
Be 6.657490209027229 7.415117688045727 9.601588128983948
Be 6.0109739540736085 6.427485612893107 7.891350306441701
Be 7.974024747604968 5.859374370477897 8.370197591068067
