11
Energy = -24.76167549 eV
Be 8.77588016607264 10.644422728309234 9.727804068628025
Be 8.638958591755843 7.432382422909018 7.750486199842885
Be 9.962107824782054 10.289623010386093 8.091088165833295
Be 7.987481442146712 9.445107224853581 8.129767157106452
Be 10.344643992668574 9.27656912290253 9.871199684499198
Be 10.595375666051018 8.245335143251456 8.04579236614924
Be 9.493490863345503 7.437809340413307 9.65495233082054
Be 9.372833191054218 8.982385853636556 6.605920155017646
Be 8.536914918399011 8.861063173992266 10.888256999849828
Be 6.9497933665174925 9.7074377937109 9.955163333333255
Be 7.451790998918297 7.787135207346287 9.388840560630992
