17
Energy = -38.46474024 eV
Be 10.867539262409823 7.676998648938353 6.756337108293014
Be 6.93927397393472 8.882094079725752 7.491684394244858
Be 9.180270339736436 6.473374545985885 6.287997780612068
Be 4.71325560442857 8.769852603523733 7.084732800828629
Be 8.923636407037586 8.404926511392105 6.785950186556338
Be 11.81328497452515 6.625319243038641 8.167343421585676
Be 10.337509407377036 9.50718546002057 7.697149840471633
Be 5.383261138431691 10.483364015830906 7.918614799363896
Be 7.800513655586087 6.8664202180109895 7.891492297011916
Be 9.819553691988945 6.161731258726817 8.144238507913894
Be 4.938936855615326 8.88130816941299 9.126641395107383
Be 6.689648775170036 9.960780912448216 9.391450254566577
Be 5.611196365589005 7.228544029433255 8.069238436311355
Be 10.545861700512681 8.011950555053721 8.99695014787111
Be 8.637175214260065 9.005877356312322 8.901364923565682
Be 8.86853222311077 7.068707407769022 9.717942856361276
Be 6.870824998719406 7.931839572808697 9.51114543776701
