16
Energy = -38.67859698 eV
Be 7.9747627347820975 4.882472189666388 8.457462694582324
Be 10.124848365045297 7.596652354179281 7.539795355953562
Be 8.780025347645331 6.078432523907484 6.951921891172691
Be 9.312304655717787 6.367892798872184 8.970984330661134
Be 6.548827240759535 5.765670425186539 7.29905692710042
Be 8.982954000526593 8.614598064864122 6.2054411735939015
Be 9.895740064492935 9.614249834308241 7.668763691921257
Be 7.2359572746783405 6.642103602040946 9.224969448127585
Be 7.5177675245887094 7.654966266023446 7.2761909825635
Be 8.726912819866552 8.379395830648276 8.944569012912927
Be 6.639471085737859 8.666801272157496 9.043780965042373
Be 5.656987228395157 7.447478359296981 6.276596168932379
Be 5.412294166902999 7.174715967549464 8.240218815957968
Be 7.7648829005158255 9.823437877350468 7.638255406436042
Be 6.923833997730498 9.181262005803767 5.931590617551832
Be 5.580855887734893 9.188295923265184 7.408827812610516
