11
Energy = -21.90264108 eV
Be 8.132191827086995 9.837877389732942 12.921635949793556
Be 10.995999321309391 9.983665972597137 8.7269883957999
Be 8.346763144800953 9.856552034973399 10.854027687498702
Be 8.2776595964051 9.086463655453516 8.837500866462527
Be 9.900453269748935 8.627383065354861 10.02564150996714
Be 9.219129193316416 10.01370419411398 7.263220569197664
Be 9.185494303311696 10.81630627127279 9.17804691731932
Be 10.44723346619743 10.45209232272338 10.739139123573741
Be 11.10398091961015 9.395996325326683 6.764809581531214
Be 9.811058606375138 9.05871106073189 12.122138156597233
Be 9.955292626415348 8.246503982296836 7.9421075168366935
