14
Energy = -32.14938065 eV
Be 7.892033487090267 7.849055637683576 11.008279831470748
Be 11.126666682002288 9.923101349326899 9.394259794446386
Be 8.147591750403393 7.575995381821946 7.973691648656078
Be 9.440217629775388 10.197116677315794 7.1461116143064265
Be 11.441687599558316 9.693266635192163 7.354107829956212
Be 10.83126373736048 11.429339950544135 8.027744208994735
Be 9.494111070423967 9.139764303808947 10.545039244665645
Be 9.83879840853333 8.5940513088223 8.419971119115896
Be 9.184022520053855 10.775793624387054 9.238037704636088
Be 6.609879646537841 8.200523648739368 9.285531066199042
Be 7.545603045060673 6.385447289873385 9.589081174958258
Be 7.556757156991744 9.76982237440019 10.282304496146393
Be 7.7477140764086565 9.606402560262365 8.252436893511518
Be 9.451389706311287 7.168055774333231 9.791139889448443
