10
Energy = -18.96152923 eV
Be 11.91673406734869 7.592554752252161 10.53863285129627
Be 9.986981063134841 8.229758164145814 10.455997179694817
Be 11.489670519265886 9.223633204445207 9.420858583985323
Be 9.825733148780344 8.6071308834565 8.33263357600143
Be 9.630849174473623 10.152647278882506 9.756998133911637
Be 8.0394741351472 8.704621327191633 9.579086535485802
Be 7.929711675659081 8.464281524633403 7.365835322386914
Be 8.501881635741153 10.276116541788491 7.935041052506783
Be 7.6127971517353705 10.727936400300774 9.732257250958297
Be 6.609579135070914 9.564731629260619 8.426071220129966
