16
Energy = -38.75529663 eV
Be 7.921433149051813 9.942096989263577 9.853608023109828
Be 6.70520203098023 7.102665635700687 7.421953037273875
Be 8.24476087174762 6.610816102404954 8.924037692931241
Be 8.51633369186193 8.5832097354969 8.394341520164094
Be 6.594562519259356 8.340326621350378 9.03634613637831
Be 9.324617095888732 9.235636470143021 11.261153578072957
Be 9.182755971495434 9.169912518322715 6.345793262518794
Be 10.533523503090448 9.212809208232226 7.936256840462197
Be 9.679297142564964 7.3027549620285805 7.327707652613213
Be 10.007348005834917 10.183483646455933 9.597059366573212
Be 7.967698570780742 7.97136245519863 10.50205727619982
Be 9.972155944747639 8.00203878453985 9.676606716040654
Be 8.908044185870908 10.560560884511599 7.941105488927845
Be 8.019064769259762 7.5806295169112206 5.885275684700109
Be 7.156577052883149 9.12425893593973 7.000196695076097
Be 8.211049555737578 5.857946028260057 6.971490600968938
