14
Energy = -32.39413128 eV
Be 8.341223013945198 7.4566761435826985 5.253870087244121
Be 8.040257594991754 9.383330438816914 5.858217970291104
Be 6.44236932666733 7.992159522022254 5.896981367026289
Be 7.097209676557251 6.134594271730596 6.464872793570682
Be 6.659390337464003 9.264754723753011 7.443373680415602
Be 8.19332121285118 7.4460795034272165 7.404652888148397
Be 9.72869584407688 8.441335677604059 6.518606431484751
Be 8.617224102701813 9.411222340025802 7.9980159520906815
Be 6.0826350381201095 7.2592803910829495 7.970705818117088
Be 7.711821813765233 5.926693323391022 8.669739135899805
Be 9.390074378387576 7.646378074146218 8.987062861582968
Be 7.337087612466994 8.414915066002958 9.340468015532428
Be 6.352876297577904 6.705632440349786 10.006074673467257
Be 8.29084568877299 6.801980022410291 10.472390263474162
