13
Energy = -28.06215154 eV
Be 12.889148885488435 6.450902509420911 11.098273990088643
Be 9.032317958439474 9.203554101820078 8.07333766519194
Be 10.617858746644389 9.922634471515643 10.341878514268155
Be 6.998616750139843 9.801473391281421 7.880762056732036
Be 7.588839238217931 8.559231059726327 9.432214068619034
Be 10.252842542575323 10.815526640732166 8.411887862905687
Be 9.55585217794679 8.081620730363976 9.862243100191945
Be 9.147329755797307 11.403296335471547 10.02891662874975
Be 8.55787685250818 9.656933815392371 10.864641173995874
Be 8.293778139349254 11.330463562558291 8.08175837673245
Be 7.156159475342458 10.705193688264844 9.683826712281627
Be 11.6520365015971 7.994841497536622 10.395948200939463
Be 11.048727892792394 8.865713112754548 8.635696566142007
