12
Energy = -24.62821642 eV
Be 8.590738812106407 9.473263474547071 10.422216075056259
Be 10.567691656343191 10.162019690376209 10.633008568464593
Be 9.073460277547502 11.3507708940398 9.666319392178313
Be 10.106962129732628 8.210228288742615 11.063013842626653
Be 10.90837472969909 12.160898240247082 9.79509449380096
Be 11.280190248507974 8.570451318604137 9.427962348158628
Be 9.296104604064233 7.853904132387765 9.178469403469498
Be 10.778393337493155 10.43701862086507 8.559887470236495
Be 7.261636198679788 8.541881030180175 9.07956509149194
Be 10.373844234356222 8.654222068035283 7.599365061182035
Be 8.806666457833 9.773531619591715 8.354175019310428
Be 5.520333026162768 7.376206334909184 8.785318946550431
