15
Energy = -36.01410927 eV
Be 8.537869994297267 8.877497413038327 6.50619132499501
Be 7.7426426308300815 8.471469210503516 8.347942861748122
Be 10.15029943116141 9.781768682067385 7.3787275177399945
Be 9.659418383895966 7.855210654980706 7.890789011664757
Be 8.25120684429274 10.40564653438394 7.847601718906971
Be 9.931303195374998 11.272016390871842 8.915149031428722
Be 11.060119166257358 10.331524898655017 10.485172444943423
Be 9.392021491320529 9.395773848478633 9.404055736993563
Be 11.27283085079886 8.836384886059683 8.950689429714219
Be 7.529037687395523 10.0154665004158 9.837947977092746
Be 8.913139989639978 7.501139416218999 9.877733883698316
Be 9.148311158322839 10.94762082685478 10.909570014775017
Be 10.552212361560432 8.397638004301635 10.947750134104993
Be 10.230216744991344 9.903787679264994 12.306311635042134
Be 8.630272395214845 9.007957379258917 11.39526960250632
