19
Energy = -46.81600799 eV
Be 7.174292427015067 10.281694276166292 11.377060532556374
Be 6.993370419660122 8.448624251269349 10.434059583662263
Be 6.371852679998175 8.58312066587662 8.35234600245485
Be 10.999982573185212 7.1753766059696105 7.462257177327865
Be 8.989925041859639 9.373788972848628 10.72089232793338
Be 9.821931510545001 8.915096631102923 7.236313295493859
Be 8.659112714484927 8.379557639392884 5.561017635995072
Be 7.809971911273659 9.59532137690104 7.133772318353561
Be 7.273102303575714 6.819216297062108 9.071913479270737
Be 10.667379401618726 7.890750235512374 5.553878570474503
Be 10.351332151404419 8.291921710526012 9.198190965157222
Be 8.504836991082819 11.390984105065483 10.403922813785828
Be 8.8490747275233 7.313719513475686 10.368374465103841
Be 8.360038891643992 8.603122885832951 8.844420725817987
Be 7.143813834049265 10.31247851684384 9.23808482116633
Be 9.22965265649302 6.563530751095727 8.316402150109997
Be 9.430083429097767 6.492304560277804 6.200358347251469
Be 9.280499260073027 10.390144369608498 8.785952970694913
Be 7.696405803505477 7.366140431192832 7.062644135491725
