19
Energy = -47.37395079 eV
Be 7.361229582681235 10.76044397049503 11.422700662498778
Be 6.465429360678146 9.968951546326423 9.701108589659604
Be 9.497814752645368 10.18082025930419 11.592709932550372
Be 9.242392928263177 7.95150801057941 10.669292530162505
Be 8.841874735110704 8.418495717775391 8.525241903763922
Be 8.82776661710425 12.040828749211299 10.856204685834019
Be 7.015734659384918 11.86298139402184 9.731301046768072
Be 8.550296054282112 9.847645422892347 9.905092974261784
Be 10.24430991944284 6.958598955191296 9.113307477490833
Be 7.772302630214189 10.490273313485368 8.155935182927363
Be 11.367843025118551 7.324220013929943 10.764826209830035
Be 8.87660771431693 12.060446997458524 8.851162522039411
Be 10.808650351963273 8.265387815004509 7.702868536219389
Be 10.517851681016808 11.20609141023943 9.895326783542359
Be 10.646890957954154 9.19867751436107 10.050085131114948
Be 9.910714547168403 10.229999793989531 8.095732244519269
Be 12.718143688614447 8.863769780534987 10.330850126001529
Be 12.296199057986557 7.544449718839932 8.943691963238482
Be 11.93837969001987 9.726841570325279 8.592993451543391
