13
Energy = -29.51820162 eV
Be 10.646551267513882 8.731491198695016 8.288270013752376
Be 9.115575633500189 7.400505922345542 7.969246714141518
Be 9.851369440436107 10.52245754992 8.413144328160808
Be 9.065047808116235 9.218702228779039 6.8829827363699225
Be 8.979519163353213 8.866940028450767 9.538032279323614
Be 7.7165591827667415 5.835371430445965 7.8653709481376275
Be 8.235623604917324 6.844227048372884 9.705298816946366
Be 7.963145226264265 7.366140579083511 6.315944435347052
Be 7.858008613476935 10.238538062390093 8.298063585100369
Be 6.948176517598853 9.036003552387728 6.885994116724247
Be 7.043435407717612 8.38442062934097 8.86948401438335
Be 6.338282194507126 6.278746473103339 9.192957364001291
Be 6.16640199472288 7.134595635650529 7.308218948127501
