14
Energy = -32.84731786 eV
Be 10.495839174883454 9.289348374982495 8.804352609431998
Be 10.281556051245474 7.252177999999882 8.128764622647372
Be 10.577982917115692 8.796527356070259 6.882659157181626
Be 9.363139422643894 7.905043607712567 9.85164929260492
Be 8.730621084867073 9.653784717015947 7.395570328851205
Be 8.334719948479085 6.613315877332084 8.596272278464246
Be 8.573442760516398 9.703029058298666 9.497878002527278
Be 7.171415056874357 8.122293379258563 9.640759919087838
Be 6.146537873227463 6.437654981219458 8.924439187380454
Be 8.711320952953958 7.59088682592503 6.689401825885073
Be 6.8107945150383795 9.694800576919647 8.299735401920282
Be 5.533186936051765 8.077898705851494 8.007092983930628
Be 6.838703121521014 6.672881526338656 7.046518199146398
Be 6.942079973766146 8.671838151753999 6.591390700226946
