14
Energy = -31.86786143 eV
Be 6.630505823614836 9.435238219201285 7.185978215841668
Be 8.173998362466735 8.211865640883229 6.361454424760604
Be 8.559851638398797 9.70852688989991 7.944047357293145
Be 6.417570194700607 7.373521962117697 7.167390453295062
Be 10.035902394450748 8.244198097523627 7.220634402398747
Be 7.916675065271515 6.018594186608529 6.635934004086356
Be 6.478008616355611 8.417409072791642 9.047805964580176
Be 6.847622968289079 10.568723851710665 8.868133495462072
Be 8.00960494683765 9.52075653843427 10.076612439386146
Be 9.502850847656994 6.261046434965834 7.876326530365512
Be 7.669163478424827 7.5793083283086515 10.462018547462204
Be 9.11464996631701 7.98883472053694 9.05039578845602
Be 7.564110189029959 6.480554028437373 8.657212646461751
Be 9.665754186629245 6.711778513361174 5.889849666171177
