12
Energy = -25.07249075 eV
Be 9.427628391790543 6.00749988832622 9.477528536926034
Be 9.936743262843118 7.983457819287329 8.961038841763033
Be 11.15718171781686 11.83115089120327 7.788210376255047
Be 9.155851599306247 11.539374816452398 8.225727174912247
Be 9.29277048993783 7.515708550660112 10.921682316934907
Be 10.524407340238087 9.918486426277147 8.390738533112568
Be 9.999594820730753 9.535147609239655 10.433577087180463
Be 10.503851892135508 11.563283070205204 9.73696156731431
Be 7.929977855406373 7.463055944052527 9.427914707475944
Be 8.448920383369986 9.485222357773155 8.708423780658856
Be 8.559958599030278 11.005663492635087 10.152590079566718
Be 7.98959870262412 9.078434189117601 10.702092053129176
