15
Energy = -35.14051954 eV
Be 8.535889182901006 8.86596293898085 6.897839636374105
Be 7.936380031177611 6.7940325775533 6.984747461016824
Be 6.953189260851264 10.461340340529283 7.140860691262031
Be 6.538589591314181 8.482945892240922 6.5359617059996005
Be 8.816061811009217 11.000269948145053 7.432491125395612
Be 10.024645419185248 9.481192560095803 8.186909477799828
Be 9.759275195351934 7.390857685796947 7.9292824456743745
Be 9.212686668035085 5.337994497189389 7.967536942592348
Be 6.216313943673331 9.149709533484145 8.42966275868458
Be 8.115484913038147 9.903240310588538 9.03135637341577
Be 6.1183313490829585 7.078643793776063 7.946184093304579
Be 9.122644584501465 6.277449615533554 9.726141834690182
Be 9.562954525976703 8.33964705813893 9.767442230039485
Be 7.439470507902385 5.660761703552117 8.802572254379532
Be 7.656053329457996 7.78392185785348 9.228981282830002
