16
Energy = -38.92293482 eV
Be 7.810010183519601 10.03274300585718 7.2226735076029644
Be 7.147162077078217 8.194402872333827 8.253083392751297
Be 11.289708050612242 9.471771856138862 8.12192163264481
Be 9.789880178465882 10.75004223354248 7.317296102073831
Be 10.83334400388046 7.395030121728877 8.212827242994935
Be 8.367538383720182 11.48225731725392 8.548215072388965
Be 8.829993372632588 6.7808872094063055 8.078258504761159
Be 9.179006193128702 8.857407713896993 8.322720844977027
Be 6.680470011879587 10.13160020813172 8.897590363310746
Be 7.6892091406325385 6.8233154892547825 9.754482691862275
Be 10.230893481294427 10.715064364619876 9.316939784972693
Be 9.89888950370262 6.623676371218005 9.809163447083606
Be 10.804354554331532 8.601200841058501 9.898308560360203
Be 8.407811027245167 10.165143487391179 10.103677664288442
Be 6.976788227013392 8.673084577793404 10.32748217130573
Be 8.936713670616825 8.174144390128323 10.687131076375298
