11
Energy = -23.10143428 eV
Be 8.37060172612324 10.40536956039569 9.20238437236813
Be 9.680703101955467 8.683388791185008 9.137112028594851
Be 10.20017612674945 10.757040432499386 8.442630402392439
Be 9.853821065793879 9.208465533263096 7.114613976139999
Be 8.658271209548479 10.896128230088573 7.272728908534835
Be 9.215083674663164 7.297277458035805 7.707220563898527
Be 8.961060773286153 6.7506142634061055 9.65832360808879
Be 7.678896477669857 8.508359591688604 9.859338369036974
Be 7.8907215799306645 8.856834373146432 7.7596865776312764
Be 7.330086743643724 6.914362761059626 8.389272144282694
Be 7.077780292386992 6.639361776983231 10.373891820782916
