19
Energy = -49.3543818 eV
Be 9.558118317695103 9.603834821222119 6.652485739998904
Be 9.113657273187714 9.063130335266253 9.309495781165571
Be 11.271507968809242 9.790075846999509 7.769318300003787
Be 11.045618714326467 8.74405435437207 11.138891126452743
Be 9.679183114433123 10.292613318480855 11.485147326085915
Be 10.212106948437865 7.263531329256221 9.96384140705354
Be 8.529940924456566 11.050864602233682 9.915789771353573
Be 9.702487452330155 11.017230108083758 8.08572682500613
Be 6.750798200578727 8.284171622215903 8.357735599576737
Be 6.757964209182276 9.979782479676647 9.572491115013184
Be 10.207506635261938 7.843184259884772 7.8392449797543415
Be 7.8359303862317855 10.061731065861307 7.806716310727932
Be 8.361903493147976 7.067540646662849 8.775274240899703
Be 9.068108513707326 8.266659646166586 11.442981630973447
Be 8.272335094841646 8.0463390068062 7.009026598582515
Be 10.831037988311891 10.385158585821578 9.758399407356949
Be 7.70505434902302 9.863123878260282 11.382404116565214
Be 7.323632251487309 8.07246858993141 10.311828024244457
Be 11.701440188063989 8.417153692986304 9.223033119651813
