17
Energy = -41.55700971 eV
Be 9.016185918977857 9.475685065664182 11.77737743930475
Be 10.159965332570437 7.087273889624304 8.741214605768334
Be 9.135712912966097 9.547523290905568 9.699758104421191
Be 8.471063259619395 10.718874619398315 7.618580864291157
Be 11.350325398289407 8.714747008617113 9.462663887228198
Be 7.561202490456044 11.15947690723961 9.46936596259269
Be 8.952320695063701 11.453372176729701 11.006376976583711
Be 10.946700915030405 10.738274792216716 10.22581932229466
Be 7.304940173211927 9.346070666648043 8.48650983403267
Be 9.001488786266261 8.588778894512732 7.558564426125885
Be 10.44102105369402 10.88723839531266 12.239946070230404
Be 9.840059981768409 7.681504639760668 10.71114366317794
Be 10.437935640226414 10.208905360233459 8.136407153924655
Be 11.05067460952188 9.082881554906269 11.50927648884907
Be 11.044654774084076 8.344888164126592 7.449701461402461
Be 8.310046913902434 7.650855954515558 9.297050453172194
Be 9.49037131078587 11.828318786023255 9.124913453034658
