18
Energy = -43.95363799 eV
Be 9.190793046648048 6.182718300673894 7.9229107934673415
Be 11.502231441246426 10.16391025623174 12.082903148719478
Be 7.962231570965995 7.742601278159822 7.545973679903802
Be 9.49811938496765 7.769513748835135 9.201655395508178
Be 9.905976954696689 7.807181397526369 6.974371369726862
Be 8.91889335513498 9.639784568183364 7.413659987271832
Be 10.123645789746297 11.201847178216658 8.103339043332454
Be 10.816704240607956 8.729640731992447 10.750446168999533
Be 9.597907222749722 9.664543485393693 12.446182583120724
Be 8.312539511818166 10.643747273945579 10.96809785591204
Be 10.053801929466378 11.538364801387727 11.787810879854478
Be 8.70853804109466 8.522586359726134 11.031574704047213
Be 11.269485501043846 10.796922612623078 10.08648306604268
Be 9.575217582307555 9.85431854628693 9.608012211001526
Be 8.193273508128925 11.15995204603481 8.645474042269441
Be 10.82000876559572 9.153708749051601 8.23960550344202
Be 9.567599258264922 12.100695390372374 9.892737150050218
Be 7.77361338808139 9.118543767923722 9.089342909894997
