19
Energy = -48.15863348 eV
Be 10.938403007802252 8.139050887984057 10.241610218662977
Be 8.412339981128374 7.063352265452185 8.351461722889843
Be 9.801822600680524 12.21145874555682 9.05954805309662
Be 10.049773434435972 9.937633208485284 11.318052683285392
Be 11.00218512818033 8.862581771058082 8.040333851399025
Be 8.752352610415578 11.715316688760398 10.795243249840222
Be 9.261176758864424 8.055717080209815 11.504922447199212
Be 9.492378269183254 6.518479417387314 10.163047790350685
Be 9.310191019262438 8.972763566553818 9.297432226549496
Be 9.173772844241894 8.595372162783347 7.077859981883733
Be 8.21203460842219 10.872919892631058 8.965826724724348
Be 7.4232255297366665 8.914240702351144 8.42465026416011
Be 9.944631053397561 10.609064447198502 7.640937865684329
Be 10.85776331080727 10.40382228371608 9.474201130875672
Be 10.725636767804263 11.92486772219979 10.865341400972051
Be 7.97984235194639 9.804695408373517 10.767763277150067
Be 8.056678113392138 10.301853673593877 6.953741748850309
Be 10.39667415801236 6.992162163137553 8.452255950914026
Be 7.791883972722508 7.68741343300375 10.188534931947743
