19
Energy = -48.97024584 eV
Be 9.233971976773784 10.14553187398747 12.995562379203259
Be 12.405362855319732 9.984917204666173 10.392375628432466
Be 9.920547814893373 8.414550343356952 12.192969397290522
Be 11.215316775743194 8.23377269515655 10.583338986527055
Be 10.973755528980854 10.208569349141303 11.888756706418656
Be 11.973714197699534 8.865867558488928 8.696344422939676
Be 12.17932902143232 10.888214153495726 8.638077173830524
Be 11.154443983834025 11.804864673121662 10.303633062038934
Be 9.112814574772711 7.725057606432467 10.440556921341136
Be 9.25911201234499 11.437005144814606 11.410980941522052
Be 10.454843177213125 11.858317726720381 8.270660700165859
Be 9.084456135870443 12.459993127335993 9.624727646691426
Be 8.29450275928158 9.413468793994697 11.262220923264811
Be 10.108910616271777 7.979238306068354 8.696548020699861
Be 10.02961025424364 10.01176409541496 9.938394073333177
Be 10.301541550142272 9.818778683591864 7.791001058007181
Be 8.5702348644476 11.003008658595315 8.1542455236143
Be 7.7343522948480175 10.963393558327692 10.006835493513249
Be 8.313225770747444 9.10373261214988 9.032817106026267
