16
Energy = -37.68476765 eV
Be 10.803851781635327 13.386542350600086 11.187118917331823
Be 10.090972040392279 12.437311737418257 9.491783200525902
Be 10.764976888433281 9.059221337350001 8.668570668198319
Be 7.5613582160012625 7.48151584511761 8.918265719944147
Be 8.705811260260944 9.186175711253892 8.370952450867886
Be 10.331445474731519 7.994691180589759 10.411211585838982
Be 9.44249431624494 11.939492390979373 11.408068608289426
Be 11.45801026845594 11.43068985214613 11.199468780912536
Be 11.79848153399391 9.50687051715522 10.420002157021054
Be 8.67523465097707 6.667336804824396 10.325547647516046
Be 9.554087747460677 7.2621755461695034 8.595388636473482
Be 11.643933486766162 11.081335312887624 9.148007823659634
Be 8.720659852806866 10.779474188404148 9.795933164801069
Be 8.344655700648048 8.77791690115065 10.431255318338255
Be 9.927365794371646 10.878300609566558 8.082573863710842
Be 9.936779649809749 9.891068377376127 11.305970119560213
