16
Energy = -38.75601865 eV
Be 8.819307779583287 10.99440843741599 10.014779831759062
Be 6.724420230657367 10.97856192527072 9.727135085813334
Be 9.12722406377563 9.211517951875237 9.105607091661975
Be 7.872761575485894 11.086822170159543 8.05499242813632
Be 9.864258593273439 10.960755735074516 8.08139743674098
Be 7.51935993036714 9.403227952554236 10.680075030363831
Be 10.989380539492096 9.85653634398831 9.586262001876808
Be 9.545730209886855 9.03777647124281 11.11360438000657
Be 10.741716527139353 9.138882421881421 7.559752018191131
Be 7.103511485440127 9.203809578005293 8.653393010851923
Be 11.48933869716842 8.288890524334981 10.873739395648384
Be 8.696130507741538 9.50129909528134 7.105170643900649
Be 8.09390042316167 7.623116348330953 9.873191217073773
Be 11.48913545334649 7.8049451410108235 8.885938012340372
Be 10.036125803994304 7.0942374666117605 10.186399542138552
Be 9.550751937837294 7.47826619531216 8.1616166318471
