29
Energy = -79.84146822 eV
Be 10.875669665281453 9.68500273675956 12.094347062007387
Be 8.799136454537955 9.779044104167237 12.41090758905084
Be 11.839416915352867 9.884119721502028 10.223947459127977
Be 11.887289811238787 8.113630018317336 11.327080743418547
Be 9.734619708928385 10.636526468424572 10.621751258076225
Be 6.896117216169186 9.970636986240738 11.612402603337463
Be 9.885087858878554 7.830892205253857 12.18514231765954
Be 10.844895383604058 11.464401199769481 9.074172344617129
Be 8.081315655274029 11.570192931482705 11.335507795629203
Be 8.8299401984634 12.099386938462194 9.346199100121675
Be 11.49634893828325 9.568930604768422 8.237148194770848
Be 11.82948037048776 7.646690027792318 9.260888088493845
Be 7.805616018365503 8.06194713736819 11.962864629195119
Be 9.216682996818166 9.962640552766105 8.526896628728268
Be 11.549615523115852 11.326354000072252 7.188356595201173
Be 7.907937200995465 9.040657888629926 10.05272483992831
Be 10.062762925575141 8.608597244978172 9.904512311332308
Be 7.030532542999524 10.96174300908145 9.664967194967081
Be 7.159907351979337 9.57919467333114 7.9682124282742395
Be 9.581523951417779 11.85453255415466 7.3540754752861694
Be 7.512626036692197 11.651649869442865 7.791390288892901
Be 10.824119198203459 6.51076896055691 10.771532224793194
Be 8.795808012518517 6.9413743574236 10.51511841863291
Be 10.40803627933049 7.99299912894836 7.555580427034834
Be 10.0584724307968 6.4790806077364715 8.899548666473564
Be 10.252523496360823 9.879741131337795 6.498667112931372
Be 8.48169371992732 7.796207511952098 8.526383158785139
Be 8.590317888700387 8.605491539470952 6.693659938257424
Be 8.289488742881904 10.55532865310159 6.29646266150912
