23
Energy = -59.02566185 eV
Be 13.114280528005736 8.770418363555475 9.400304499993432
Be 6.636142519672717 11.324566327287142 9.428701893472445
Be 11.148494863319584 8.181070660483455 9.161066422894924
Be 10.168974926444868 9.931315765521822 9.825347671936992
Be 6.495197898110235 10.207812908026622 11.156718236559337
Be 8.590306517098936 12.2941547111332 9.75216343377466
Be 11.959417574490223 8.399093684914078 11.172629642877824
Be 13.618991180761089 11.638183855828018 11.148084009065196
Be 8.421882252974953 10.543748985122772 8.680083380205643
Be 10.307675964064492 11.744788912659033 8.803100605392299
Be 9.983625079915177 7.7569693428563635 10.770311991144244
Be 8.150142732762573 8.722287137289284 11.200513388863268
Be 8.884355531390678 8.376537867834625 9.179171177648449
Be 13.84115952175029 9.585657553324129 11.106002410869735
Be 11.887092239370048 10.420131427843183 11.134370953658934
Be 11.965990153487114 10.253030608666043 8.641374020149517
Be 10.325388100689862 11.786869241935259 10.92681129643221
Be 7.0385506524615336 9.275740477551585 9.446009949679048
Be 8.563817537381244 10.702255715214164 11.152196293641577
Be 12.10577009127832 11.994675527612898 9.730132991636662
Be 10.135931013730788 9.455551407519732 11.882316823525569
Be 13.865975776585742 10.716443481979981 9.381914092757262
Be 7.062168582508966 12.190027274096602 11.192006052075941
