28
Energy = -62.3317538 eV
Be 7.999894738883807 9.646702872334805 8.648168163511242
Be 12.347013264308005 16.71329478782361 11.683028576955161
Be 11.651969899244401 11.35218367301258 11.88860550132835
Be 8.629540335794227 10.975665469197576 10.232329087683404
Be 10.402871120237288 10.366446269402378 13.244809845432036
Be 10.46473853092743 7.547820757697752 10.095760257463027
Be 12.113538178778175 9.472487108741973 12.613156978149304
Be 10.534642254657175 9.784633202378231 10.930144912610064
Be 13.878224613888706 13.889688223924573 16.404532111232225
Be 12.35779794553371 11.096454461238997 13.962020391033034
Be 12.781892877785694 16.734863978698172 9.604451565710196
Be 13.65352795166685 16.772051659243825 7.615920979622319
Be 12.400078319157812 16.45737551108724 13.796706653493905
Be 10.708555321243317 11.610776445967062 9.955294145003347
Be 8.875850298268244 7.694367087671051 8.579923025390618
Be 10.801500546931996 7.711799749233221 7.993582613878221
Be 12.338363988366366 8.178041570567885 9.35179691107696
Be 10.243772446607501 8.399410028696932 12.329006097027493
Be 9.436049724897561 11.034283763940538 8.318144669028735
Be 13.477518085740847 12.082444140317712 15.423533058833014
Be 8.745311532294197 8.750612419829318 10.326442632772672
Be 12.10728586876523 7.929011405485058 11.32107406030402
Be 13.106117486080894 15.679143126665618 15.63111144006311
Be 12.533495937875188 9.903823578353299 10.515235947525362
Be 8.762661212957422 10.034115192824425 12.110156672934579
Be 9.665448490101959 11.83092015464273 11.806544688244566
Be 11.003311830085092 9.71225572266758 8.841164523793614
Be 9.496027861059478 9.156328300495376 7.2943551520387855
