20
Energy = -49.21640765 eV
Be 13.88930368056692 9.860540694713352 11.145364644969703
Be 7.9603641516433425 11.051228853837996 9.305183044449311
Be 12.774180937908639 11.286475387386083 10.044392850507306
Be 8.430304970792973 8.62120243440281 11.5913222487904
Be 11.880318904942785 10.232402252001958 11.68283956349411
Be 10.56481642920702 8.691577765296604 11.308314087071565
Be 9.327798687479032 12.558197005413843 9.09169019669468
Be 10.016793538059403 10.77039745318466 8.335140018272051
Be 7.498061205346822 10.552398582010856 11.368587711724526
Be 7.240499419984513 9.093712796563164 9.880826653462439
Be 11.363728449141512 12.378774815983757 8.810068991147482
Be 12.594992204629856 8.36161158574313 10.820956872311461
Be 9.273558767074698 9.53677556530529 9.853454899468234
Be 8.75477351506398 12.136080366115127 10.974319496090292
Be 12.22144383867792 10.690271718675163 8.157987370642413
Be 6.403911324427856 8.848152790802448 11.663869129365134
Be 11.304773130971158 9.323716021967018 9.403449949902123
Be 13.42495857283375 9.339925580266042 9.249518232709793
Be 9.551718470754578 10.39566321386582 11.974032253049343
Be 10.679201814857883 11.426397130829667 10.49418380024214
