27
Energy = -74.14597203 eV
Be 12.108166686471451 10.210336484184015 12.654131395076892
Be 11.98757243120759 9.674241986351529 10.638912108660046
Be 12.006896903195521 11.346071003691018 9.428676310339652
Be 11.053130290672694 11.413289052056559 11.379510236079527
Be 12.172065464473803 9.16825162055603 8.5498140031106
Be 10.953156404814306 8.009132434457296 10.09079162254313
Be 10.631088321728125 12.820377214175045 10.02529416997959
Be 10.237898463963466 9.9899976889783 8.964513257064255
Be 11.033994386098911 8.503333334442724 12.191144145197866
Be 9.101903019883027 11.909719784105194 11.896248373405374
Be 10.121601120342243 10.390756372746965 13.057809284195685
Be 9.604772756212633 9.743016092750516 10.928356734391562
Be 11.083402670429962 9.104561008201244 6.740285254946538
Be 8.983744063250546 11.653566466306144 9.826783611830198
Be 10.446406158705454 7.824066953661097 8.141330778468124
Be 8.037161145163362 10.30006216971241 12.680842284745275
Be 11.893876547510716 10.872988402312748 7.376481999652416
Be 7.3987440845231855 10.914723453196942 10.913004768124052
Be 9.058039220582957 8.560860985669756 12.899463398822975
Be 9.38274770278995 7.4074028621613355 11.312564622998389
Be 10.397100628088337 12.102809896074811 8.084143101108607
Be 7.966045951734081 9.807509542064823 9.313825013217176
Be 8.885801132105234 8.040262907784266 9.441338613143255
Be 7.687664380297649 8.743522631980278 11.196381448988296
Be 8.937498610760306 9.122760838085274 7.414529021811885
Be 8.483910054823589 11.191544554054834 7.897545198200293
Be 9.941973538229783 10.771196398298555 6.552641381957482
