26
Energy = -68.57575232 eV
Be 12.887877949879085 11.263241511582617 11.156477609317186
Be 12.718732920289725 9.467401175535011 10.240940442226828
Be 11.653237490530408 9.846590055346262 12.028091338076694
Be 10.956601638239258 11.928846789773312 11.43937147650643
Be 11.761711493214026 11.214935349650913 9.424742269824522
Be 11.27364509545047 8.151487950048578 10.81807299197672
Be 11.33230796226226 9.195977532671806 8.827243978563727
Be 10.218541381182977 10.240468551416347 10.466064570368328
Be 9.783704456854032 10.643389624137589 12.66002507690851
Be 9.939761388804108 12.292592722137652 9.590801378297389
Be 9.748805496280559 8.594036328247755 12.065242090460034
Be 11.261547206735024 7.200504409187317 8.994434372989671
Be 9.744348598440416 6.726261070364353 10.425885453494256
Be 9.590584744521117 8.266086482383974 7.8623757249681585
Be 9.855571500467411 10.484406263418137 8.342930817999298
Be 8.152254254160557 7.067093276257485 9.008018347076844
Be 8.806728064264519 11.891406119609048 11.263155616706582
Be 8.987447012142221 8.647433174369217 10.014693225784212
Be 8.832927786622497 12.174474494956096 7.699335235308979
Be 8.165861305473731 9.864987465779187 11.659939409375005
Be 9.722306621184675 6.009350394555323 8.502707584787789
Be 8.509904143257009 10.145302522553669 6.856470885111036
Be 7.871841973054119 12.60472771136593 9.416280567586389
Be 7.697968492547919 9.10098414197505 8.340974702832582
Be 8.178698340145857 10.602235050157626 9.717562379728493
Be 7.12151675022196 11.150213898745967 7.952596519950964
