22
Energy = -55.96054639 eV
Be 12.2515392450068 6.214040022988763 13.150626043697642
Be 11.248628612978363 7.363533781228841 11.641508867808584
Be 11.141068159112473 9.322995931917193 10.981348720103707
Be 9.403432500095409 8.565402688249529 11.481414951601382
Be 10.203262803716477 7.743303974352554 9.652164192501056
Be 11.854088973501584 9.10145131455972 9.116425131690542
Be 9.629448953193693 10.770736225014948 11.372100402377287
Be 11.024310634863278 10.387383688831843 7.7109536399581105
Be 11.261139627594234 11.008022784895575 9.899062415338088
Be 11.06975606816588 12.395273872760372 8.412441398973051
Be 9.468752778845243 9.794000156556834 9.362394717347541
Be 9.010185488375274 9.619719039443849 7.1019817385172095
Be 8.819339083738713 7.694491995015901 8.039138871613428
Be 7.720718230292782 9.652800861513432 11.533774589314486
Be 9.416390952989499 12.05127109635792 9.607763265612668
Be 10.658940704431247 8.34807506319548 7.632098701102855
Be 7.726697568573227 11.406451184615456 10.572477528183212
Be 9.434321966835206 11.6392525573232 7.506262066162734
Be 8.028402064356985 8.151172576492984 9.93518580985123
Be 7.757224388741062 10.979738576231435 8.44234362682822
Be 7.249658071306629 8.969643052388326 8.061880619719823
Be 6.644051585869358 9.842598018649793 9.808011164280416
