20
Energy = -49.16414083 eV
Be 12.534650997543164 12.259685948898229 8.31141846284721
Be 9.076959007504689 11.262871054931134 9.67592813722564
Be 12.216092421116885 12.952787842935308 10.168436863890854
Be 10.39131383914178 12.296562497131493 10.900520597404796
Be 7.587700311958334 10.190290097793573 8.636224929733336
Be 9.09743614747095 7.255857849400111 9.75393110613993
Be 10.567031034303241 12.530850630705622 8.879903113154235
Be 9.350947794755912 8.327238872417855 11.502148363191584
Be 7.578853683224075 8.120555129686034 8.580180483154441
Be 10.993077649636763 8.374330797628575 10.102911085164699
Be 10.000120594957451 10.303540838711438 11.338913852889341
Be 12.74253811338683 9.418337114099177 10.502755173249705
Be 6.229576731214206 9.109616932481147 9.654631527304232
Be 12.03388746550137 11.150713600033102 11.456095745591249
Be 11.242860501435548 10.486053633568282 9.348083365631835
Be 11.435648505062542 9.043338058089292 11.970725852321804
Be 7.930849874205402 9.86391907667837 10.768742714634106
Be 9.40966567997513 9.214587413401091 9.100942235375255
Be 13.353205627890134 11.25996749820756 9.83850183836953
Be 7.469936683120903 7.8212477766073345 10.751357216131382
