22
Energy = -56.6724605 eV
Be 9.991333833023354 12.041576035825518 8.564366885091744
Be 9.826166193248826 10.314839023010386 7.234473325595442
Be 11.434965781546905 10.521328298282379 8.819259602192025
Be 12.067382797977213 10.223435307196835 10.766474847287453
Be 11.39608408831698 8.518320257744143 9.788813897451202
Be 11.133183338491325 8.724135142657497 7.7541773484820355
Be 10.742398411307018 11.719472085053726 10.42049704441396
Be 8.20475987820618 11.36949746057156 8.048904986043341
Be 9.433141180385867 8.228972507572456 6.920366529554035
Be 7.806603753471833 9.381926894525005 7.658850857286004
Be 9.479313902535528 9.492952649433082 9.277495494305954
Be 9.925328765229898 7.276300216806994 8.843957503086559
Be 8.657141130449387 11.38940090979773 10.199328377704987
Be 9.946652541126372 10.04311740317838 11.343227933768036
Be 7.9225921353561874 7.3098121778252745 7.993784348235734
Be 7.0264942558544075 10.488147389633205 9.411955148838159
Be 11.386253779567776 8.626109072759789 11.851400345769981
Be 7.933357351552796 9.285149366444788 10.859266498532172
Be 9.69058376849877 8.001246833729919 10.93359475615797
Be 6.614740883103476 8.491578030570615 9.210459892246444
Be 8.08329940758199 7.274324978991292 10.045138955140395
Be 6.418542474393483 6.39867760961447 9.174525074041684
