21
Energy = -55.61276728 eV
Be 10.216627998449997 8.980563570850602 10.56800580908825
Be 6.9608243734545345 7.988513872892656 8.13226277900673
Be 9.678366867835262 10.969922121503144 10.976612680139393
Be 10.479544935617202 8.022065645129349 7.706342626449003
Be 9.524331128401114 9.897696782316306 6.9790944377372615
Be 8.659869315246251 7.511877304668688 10.595706979120257
Be 7.464290357429972 9.645662663289963 6.730922656099682
Be 6.534434453823401 9.961411562762482 8.591933628204314
Be 6.874096037587875 8.705551114079428 10.17790452915384
Be 8.737336885299415 6.81087819397292 8.533838032667974
Be 11.918483486031928 8.570660048617096 9.221056237075198
Be 11.386104888103562 9.981439131227095 7.942401436592457
Be 7.834006079194661 10.812217844226794 10.014385230550582
Be 8.595156488768414 7.959466256175673 6.852068686384799
Be 8.018126983699961 11.197965565590346 7.911398584020081
Be 8.744690540192034 9.032742818395857 8.931703799737504
Be 11.542349515922627 10.49389385570111 9.93029173722522
Be 9.75901399307535 10.956888259859575 8.9395978066974
Be 7.030664545678928 6.708718862796371 9.72277404520344
Be 8.341946898599659 9.421671600352836 11.423790437470206
Be 10.45434684502088 7.13489604296271 9.559863494472484
