23
Energy = -60.80062782 eV
Be 8.39208291256744 7.467158749819283 10.239174058304359
Be 6.608924242260498 8.535338535994134 9.90561124902636
Be 7.205022545297614 10.36614768141285 9.131974696105434
Be 6.892542602170867 5.735297739297188 7.645378337019616
Be 8.517052080785245 6.7790431754623715 6.554693803984563
Be 9.38863020341911 10.83985219539387 8.728303823751226
Be 10.536902795329262 9.580438044987384 9.875021958018783
Be 9.917473831045978 8.338354363612007 11.322230857320243
Be 7.983602539188631 8.879789729667987 6.459692066642982
Be 10.967527779517201 9.162546695163122 7.910155267397199
Be 9.957552902420344 8.355154592492196 6.16118481933645
Be 8.985175760020676 8.782929710698113 8.469583394264616
Be 7.762521570954269 10.761484731551228 7.286563125512069
Be 5.459688138691033 7.24855386160351 8.36788115181544
Be 8.882260069950746 6.121158599824945 8.714414972277712
Be 7.475188312954073 7.617773722249428 8.224825906929794
Be 10.423745691154615 7.478513652537887 9.49177605449388
Be 9.664843406607952 10.30078930190819 6.7347932833705535
Be 6.392238945513979 7.410165799928957 6.5066926448599025
Be 8.484528385051277 9.591353526765436 10.474129449701648
Be 6.754335522658964 6.285273317332502 9.613041074361803
Be 10.350437631184128 6.99289279381184 7.526327461574171
Be 6.212388266397292 9.248983901809359 7.690888972792316
