28
Energy = -76.80350057 eV
Be 11.592916231689717 10.55000035744535 10.012894670736852
Be 8.323056271117673 9.145318710648889 9.664111991119873
Be 9.649019399930816 10.684947328923974 8.79385168216131
Be 8.123107749073926 11.27956980896247 10.075094879613157
Be 8.415534502806281 11.626910755317759 12.121902173546895
Be 8.33856277631189 8.161040036232766 11.916887790241944
Be 11.5462579620198 8.390653005405193 10.829809619978812
Be 11.611963345754635 10.361993254098577 7.91641391945004
Be 11.85716080223754 12.146461231654273 11.87845780619604
Be 7.397582835961494 9.908798915778307 11.418837620314067
Be 10.37329186905369 8.815380703289431 8.965940811736495
Be 12.405941633611425 8.590669626739539 8.934270098044125
Be 10.878266113904877 12.415141271183106 8.728923397906438
Be 10.102083198695809 11.87030136645455 10.584919067116632
Be 9.948072110621045 13.016297853444351 12.468978864429154
Be 13.71273727016363 10.097599833603262 8.84021779819908
Be 12.048005076203934 10.023852055658944 12.057474586850965
Be 12.361794268472837 12.96511853546137 10.088659689460364
Be 8.659267293888757 13.284378048945628 10.873121491518221
Be 12.894137580960168 11.90934546085586 8.492446008139542
Be 10.69054240980974 13.860092973672284 10.733529525547699
Be 10.356931111879922 10.981400051362764 12.852233418849112
Be 8.649906637564108 9.797552566409134 13.090699715715234
Be 10.371256544342343 8.659389801006077 12.573348604941716
Be 13.43916230646585 9.239447329760843 10.64658824453726
Be 13.49574166017145 11.324517296316612 10.641654796117734
Be 9.668325488701939 7.691823505298688 10.511822383389857
Be 9.775985776643521 9.885376481254328 10.97490610256511
