23
Energy = -61.27590247 eV
Be 7.911571242160855 9.615511481385173 12.214237363958079
Be 12.22759979090412 10.997990984500378 10.24222073043501
Be 10.37497655337078 10.49317407579008 9.306373135249332
Be 10.003423926514802 12.04481148517661 7.918542595515783
Be 9.191892761463759 12.595297565122593 9.730248075178224
Be 11.337484764330357 9.984213110744896 12.065954255192866
Be 9.404609324150446 10.8926550595441 12.75030351339799
Be 8.267129001188414 10.91821472422961 8.85332899147164
Be 10.743557178157003 7.844493606828807 11.71612799183142
Be 10.849518065310287 10.141304196836252 7.273431570181002
Be 9.812879516093606 7.814372199283714 9.802156715885891
Be 11.059082684416923 8.370770812695 8.300825353332652
Be 8.282271803414835 11.28232800629798 10.982932990611717
Be 12.529178416524518 9.768917964197593 8.511288786734223
Be 12.060821260843788 11.675639948144026 8.01844777319633
Be 7.915716124789193 9.1916710136648 9.953760139634458
Be 8.708489347310278 7.800440865369701 11.596068992125184
Be 9.65279999096749 8.880123088063971 13.119244896317777
Be 11.214259155230161 12.742951323571484 9.514738667718078
Be 10.452797979302044 11.771602790056676 11.18276455967584
Be 9.07516385891245 9.090542977521467 8.230794718700558
Be 9.661726972600219 9.629185055928305 10.954400906179092
Be 11.715088604016836 8.905825987019794 10.213845599449566
