23
Energy = -59.81819395 eV
Be 6.470068610983083 8.594399904496662 10.304549472085501
Be 8.360342156493854 8.739152070665865 11.223523384859874
Be 10.378568194147539 9.08081292552506 11.042656935037522
Be 10.192348429011401 8.956534780386868 8.741491453775973
Be 11.984681379748457 8.750947929640366 9.598716877536814
Be 9.774495954103788 12.301906710337581 9.722477422997338
Be 8.542165275403281 12.055050066837081 8.172735577455176
Be 7.71475158385456 11.960774020182187 10.015379248590557
Be 7.768030671236398 8.332387627580793 7.277382872734529
Be 10.42633331555807 10.964539750261503 8.089030449457955
Be 11.493784829756011 7.3270791188598725 11.000134038622459
Be 9.61070335334601 7.222968204156199 10.230192448779754
Be 8.122584797813108 8.181312166328413 9.182460699313808
Be 11.283642240933508 6.514803641446436 9.170254857521671
Be 8.905608587730582 10.184231343565582 9.592255402003218
Be 9.160343779410512 10.88113904127644 11.408551248938904
Be 7.1160594377037185 10.335882192457593 11.056444783953541
Be 6.972211647026616 10.051002189036833 8.860377890168378
Be 8.647575148921604 10.143009131658854 7.489952496560278
Be 11.490035159717559 7.75727471838853 7.6900399678587235
Be 9.530930843024217 6.973786668923553 8.029636844641324
Be 10.98199600493175 10.694958448206279 10.06051585758212
Be 9.74702918038817 8.67033793102473 6.715530350767578
