23
Energy = -59.68736261 eV
Be 12.47988739945621 12.346284949219203 6.453467081177263
Be 10.877974566302541 10.928881401486727 9.611135214144246
Be 6.679116103304807 9.507946056150118 10.250249759808284
Be 8.539387412206793 7.769166235672159 7.851995131552126
Be 11.615711515625915 9.078701131017414 8.945264783413313
Be 8.194343040121165 9.772098977444248 7.23112538360765
Be 9.084773506683288 11.865713891721365 9.912399701429376
Be 11.566835985340223 10.799768560351929 7.622815892293621
Be 10.162688273083882 9.237912300083675 7.4413983287358425
Be 10.892272942891973 7.585279671954593 10.3562188207343
Be 9.014189909428008 7.212510552808289 11.273575984168305
Be 9.241481068154496 9.266711338947937 9.588761472393571
Be 10.13314849674623 8.647240106311374 12.131538875077782
Be 7.511980530858255 10.892713605216835 8.889026850258348
Be 9.489104012073886 11.147620378465248 8.032496668602759
Be 7.5234663640680495 7.635337489895495 9.876353147628967
Be 11.481104390277684 9.51607778299966 10.95307377078748
Be 7.718978181995196 11.01620251917577 11.080633507781393
Be 8.125967510165488 9.053936739835413 11.685886604169523
Be 10.591405688755398 7.421321008408843 8.276100193725503
Be 9.22154403587428 6.507853150016739 9.398057821762519
Be 9.752677880244429 10.627316598588948 11.503436455968453
Be 6.812664661144348 8.87410902902989 8.345692025581643
