23
Energy = -60.46951935 eV
Be 8.04293447990759 9.19087786810909 10.910748385006022
Be 8.700239467511294 7.199927870040279 10.277798661865546
Be 9.786712400369947 9.174399590057677 9.587393147192916
Be 6.5645584710105815 7.697844134026311 10.354906358021275
Be 8.186938213384588 10.647763315645904 9.316043525863652
Be 6.252749642869211 9.749179283501634 9.733261005083985
Be 7.762930857113654 8.669292182416905 9.008427359476418
Be 7.259352232053917 6.489810342797159 8.703338782526846
Be 9.067547519247741 9.791384623447405 7.546541817280655
Be 10.700510205575554 7.195094748129897 9.368868270329363
Be 9.250561692639748 5.680024278249347 8.795063266136202
Be 10.875407038815403 8.629506876703092 7.7605441470180185
Be 6.862163327294723 10.078670144375703 7.6481632563153
Be 9.141199710495183 7.638328463322835 8.209510351100706
Be 5.783957486495697 8.11621073238841 8.337083065843025
Be 10.522931919246536 6.5502355497172955 7.2632655012101965
Be 7.601480777907291 8.112055707848356 7.195061936589098
Be 7.860544633405879 9.559696323867925 5.761027198964423
Be 8.399526793450985 6.154070724260967 6.820533567811188
Be 6.248817913056929 6.6195799372712685 6.787478960220906
Be 9.476656817048761 8.119871030080958 6.1340028999542096
Be 5.947057435840656 8.669179429331235 6.209649196295915
Be 7.534189772066946 7.478142286515586 5.291026948506617
