24
Energy = -64.55989623 eV
Be 10.472487710994322 8.716357977291644 6.533041924670189
Be 8.887602914481757 7.766048873812715 11.463538443570632
Be 7.063559649808848 8.033017091701614 6.257061476290976
Be 7.423241244589437 9.285469883608666 11.288293732179513
Be 8.537786524785798 8.87478441798774 7.914481702707659
Be 8.502181605194123 11.00757473873624 10.541221723419286
Be 6.196983176420779 8.255947601937766 8.127692442749654
Be 9.009016393002769 6.768722050870034 9.624789573823255
Be 10.1591769915503 7.361902155540202 8.069477714711663
Be 9.068023252329398 9.115970673969754 9.81444709754269
Be 9.760285487922191 10.53769707707957 7.1655122699454195
Be 7.793924017831423 6.853258748775907 7.922340687289593
Be 10.0810041454714 11.150169741985488 9.09280381863099
Be 7.273195779507171 7.785177517435702 9.826197753214831
Be 8.190308139544193 11.105531007940598 8.437497217437349
Be 10.746532647694949 8.482065734476334 12.10511793764082
Be 8.98998889437837 7.275851305612903 6.265478955399098
Be 6.942001401130022 9.94681539845981 7.100629673763536
Be 10.773377649568088 9.957160196059842 10.701372419378222
Be 8.597465077067321 9.290829254090589 5.745313447818736
Be 10.74916807276192 7.809062650465825 10.088473083579899
Be 10.892220254856346 9.29080898390705 8.545693692067383
Be 9.234295308369502 9.793540152793724 12.126012591489475
Be 6.936269625401555 9.828690385818073 9.316424484967884
