20
Energy = -52.84240518 eV
Be 9.735480873053394 12.11402581119097 9.218424532644098
Be 10.988184161258232 10.409564638273869 9.245458407821712
Be 9.41701205147738 10.657049252983535 10.649104573663484
Be 9.574051342627964 10.723644522018908 7.69639619766909
Be 10.642400739411572 8.879372086683544 10.676297055230137
Be 7.953672848489204 11.08093349497387 9.09983559553567
Be 12.133858292253182 8.634886421541548 9.26803992760583
Be 8.791810587007246 8.930925542646555 11.723007715693013
Be 10.799184404119954 8.941929616808684 7.72154111508513
Be 9.073018445108808 9.085778305395468 9.115263961684557
Be 7.547155572621364 10.10239318862324 7.365597123004655
Be 10.539182826036193 7.329994388644211 9.155536087896886
Be 6.895567929724255 8.985300535845118 8.99985949605674
Be 7.369979632982819 10.029892441247682 10.739876085153584
Be 9.066720058626531 9.042544375636423 6.4967645472090885
Be 9.321911224059766 7.193238328555898 10.777855665641688
Be 9.498399925940099 7.262480735336365 7.410546239415118
Be 7.517776002794683 7.99060050625193 7.282254819006228
Be 7.337309683412828 7.917975647752502 10.730641964045628
Be 8.197353101928687 7.087499862523961 9.027728592871943
