21
Energy = -53.73189229 eV
Be 10.700404670867139 7.805395950357145 10.191233103763079
Be 10.725597009566835 8.506075204589198 8.321183973924773
Be 9.680614461662573 6.639677302176586 8.763196451876652
Be 10.980293803745704 9.237074837850585 6.4218358027178315
Be 8.758749678605474 7.506682849277966 10.54148211993817
Be 9.437451115346935 9.44860892331597 9.811846686377192
Be 9.812692256976867 7.479349313793595 6.7013132070143655
Be 7.53373077012492 6.3184902995889125 9.275716287273882
Be 8.24180817969383 6.199974444734864 7.290243875011574
Be 9.132312739696104 9.329858098388739 5.7436303564656805
Be 6.827842256575527 7.125750115355215 11.113823916686709
Be 9.578021614152131 10.18614387847469 7.71159131739774
Be 7.772457090636135 7.837225185189547 6.115135330421203
Be 8.30599189302777 8.305232032810146 8.297781992901218
Be 7.298627602516404 9.029645779132679 10.287443408028935
Be 7.585874666186754 9.993477613324153 6.91977526546416
Be 7.868040987101072 10.517123002808695 8.901980121456981
Be 6.435085347005808 7.15589075762103 7.6247262543144165
Be 5.795455168015693 7.633412249740487 9.513328734257785
Be 6.001246097083741 8.785914434911044 6.475266626068689
Be 6.2475899056030135 9.315109818480655 8.43089483888862
