20
Energy = -50.66242618 eV
Be 11.973722544452958 10.675177717413726 9.869785024499631
Be 11.789086000559038 9.806845679808754 11.693213606411167
Be 10.970775092259393 11.680141283528803 11.403033601520221
Be 10.816303235102389 9.845705942037652 7.9853333632197785
Be 10.901017078517588 8.84025339558936 9.902342776242572
Be 8.251903015775222 6.58705437835467 8.554888469431122
Be 10.26448216798301 8.439075410128224 11.837461055092566
Be 9.962767622946396 10.999866452493848 9.617574377795304
Be 9.914178837428361 10.33148245304756 12.55429554641919
Be 9.915404682632166 7.660318974068909 7.896900402893448
Be 9.216527680549765 7.544367224958865 10.097592926726584
Be 8.891372614827521 11.538512080498084 11.287047217649908
Be 9.300086893545862 9.245988955825382 6.599937471448973
Be 7.900303389947397 7.828806669057836 7.025951116770917
Be 9.068736848428577 11.030813541670565 7.626691671468649
Be 7.321536709836053 8.380377319606751 9.073864631758035
Be 8.71457722694039 9.456483296044725 10.90253352552445
Be 7.8343756796748325 10.679852547078342 9.342191093720949
Be 9.100452679367567 9.205123083342373 8.82405613263736
Be 7.435970748927643 9.767334345147427 7.448886738470367
