20
Energy = -50.95989154 eV
Be 9.036616884484086 12.201608817641993 9.768805709133806
Be 10.572002185959764 10.797233663191156 10.180849848364813
Be 9.993912923691918 10.906062701195276 8.145034236446254
Be 8.413318705354628 12.203861326301487 7.845808485309581
Be 7.231841111744392 11.454216276339976 9.29532381749412
Be 8.36548117768443 10.412497039871948 10.75611993549639
Be 11.703692053871888 9.083796899551968 10.550683875862587
Be 9.401142685671998 9.045188544703558 9.292465331069632
Be 9.966320969115786 9.26603436389767 11.509885546121492
Be 11.990717416408433 7.489736773923118 9.257901837468772
Be 11.374948260436941 9.284696520325344 8.531273329591384
Be 10.302387136108809 7.447127746381261 10.493787037712464
Be 8.072745268549088 10.103677068292273 7.639688385755177
Be 7.145108710853311 9.391800952692718 9.349229298581445
Be 9.801082059891728 9.03526250413365 7.159110561664326
Be 8.229973712312658 8.212338178473793 10.852538021989176
Be 10.251433250289413 7.316597261032864 8.238787662493115
Be 8.113757609337325 7.937790785585106 7.871555966926398
Be 6.873996909903572 7.357867051749605 9.431739945750184
Be 8.754665936933787 6.647750493318532 9.42455613537325
