29
Energy = -79.74635898 eV
Be 10.692849391115617 9.962776381224588 6.924572259631962
Be 8.418902605939909 10.989155673472766 11.490243451512379
Be 10.736478047450655 7.3205280555657986 10.27582403567275
Be 9.50567136232571 10.209707108150027 9.033527363239694
Be 9.87208155196286 9.128153396349294 11.074181678693765
Be 7.234633021547053 7.29638478892138 9.41019321617505
Be 5.967138407466346 9.390328776906198 9.71559108065652
Be 11.868946485664704 8.116595424591663 6.926461065397404
Be 7.989187824869555 9.34460635420106 10.065933672704054
Be 9.071321800034262 6.234100992059316 9.354131020587165
Be 8.166248516972107 9.05549887714079 12.31158040929505
Be 12.458824167099165 9.731591877236877 8.072113103020131
Be 7.3756104131353615 10.708940534077872 8.296112240824343
Be 6.982135311576963 8.707839665374943 7.979545146467964
Be 6.496619360610438 10.025404961822847 11.761549152806891
Be 11.140482404941885 11.282678061756581 8.58980247620931
Be 9.913873782732475 8.025963436949713 6.494304460842675
Be 10.620660932021725 6.676077097717217 7.970560960236435
Be 10.363993396962213 11.11256935574495 10.672530912652507
Be 6.759003947393299 11.305956357251459 10.172119275201434
Be 6.651828619345385 8.040702586462151 11.285233902945986
Be 8.658860675614557 11.965285883808106 9.583831799614126
Be 8.671590040542775 7.424999911614384 11.001562058493494
Be 8.590658462813927 9.471074768754542 7.0213474482362175
Be 9.398271168579772 8.259643665331165 8.921396643680673
Be 8.35889850238158 7.145716790382419 7.525725398918299
Be 12.217473492291566 7.788217113519656 8.893898093997736
Be 11.56089344001829 9.494837248745501 9.944119576754542
Be 9.217023680585593 11.421555406793935 7.473620852153187
