27
Energy = -73.74546043 eV
Be 12.213977158814648 7.927398460830012 11.73146352039481
Be 13.265543745483821 8.723681333893792 10.036924297229161
Be 10.150341216349112 12.95836418301036 10.103728222117024
Be 9.588951410920163 10.453499232354835 12.408382006932948
Be 9.51630110156386 10.827750028296611 10.143428678483174
Be 6.593495371462967 11.001499580779617 9.643629389613153
Be 10.968151290765885 11.828311985117985 11.729092536012866
Be 9.775741494507407 10.1959136214017 8.041379441190392
Be 8.054865995876945 12.488245868044993 9.815989012263728
Be 12.20800999607866 12.656240077009038 10.262001879715745
Be 10.324734358341273 7.391983199575005 11.003696125531247
Be 7.977786133244466 9.519720100512016 9.33361801493837
Be 11.290470581591189 11.459034476876951 8.90215521182629
Be 8.879828240302908 8.93293297747043 11.16714616423905
Be 13.496830796007742 9.603905385593395 11.787745586801332
Be 11.798207531524632 10.154166900460313 12.86232408446778
Be 9.490565341965882 12.346621085289911 8.261480295777524
Be 9.909985440368418 8.577552018517697 9.347197684653416
Be 13.098391685513244 10.798274714063584 9.875883352588865
Be 10.392684803092612 8.553856352462448 12.620977781977926
Be 7.887212183143849 11.167379628985106 8.087655456547813
Be 11.22818644901736 9.765901252159196 10.780072657821163
Be 13.04931410836882 11.53616788505485 11.833004542904934
Be 11.776997819639995 9.469911395704905 8.631043630955835
Be 8.918801426459023 12.31867980815366 11.692407725440576
Be 7.708165573660396 10.688646165091475 11.306990124571522
Be 11.712489356940601 7.564145929531684 9.581559527389082
