25
Energy = -66.29227435 eV
Be 7.801342210538687 7.811072517803219 7.7162746554929615
Be 10.773205127048529 9.52293139770169 7.203394097713456
Be 9.914077933409324 11.191122444701284 8.08730637905513
Be 9.711248183894506 7.8228226918650865 7.081157251878029
Be 9.297621880222877 7.0725081368781035 8.99259621154146
Be 12.696372773235286 8.854865578232856 7.582821864834089
Be 7.798522796897956 11.17735584023077 8.269274456874308
Be 11.305968931743216 7.549110357627683 8.353295777431017
Be 6.769051519222031 9.410360845116964 8.387691717151634
Be 8.642993303415064 9.661897962106478 7.1820676353944215
Be 12.633762277430469 8.64836900700096 9.554248019131105
Be 12.006957237628308 10.473282484139698 8.651855769058004
Be 10.8992878610052 11.791823083455418 9.825078222188894
Be 8.849493682033675 11.756834411491598 9.95896351579125
Be 10.842979338420129 7.902969064994024 10.409465986197834
Be 8.926673706929865 9.403510040256462 9.524367475774374
Be 5.822383177658192 8.976749092703376 10.147149150758034
Be 6.958885652157774 10.648211260474612 10.109119178453069
Be 7.2926769496625266 7.6651730696114155 9.668399212217611
Be 8.86704320671188 7.484953632916873 10.97186002289657
Be 11.501464097205934 9.930208408774421 10.684887962723003
Be 10.16479260641321 11.220059500923984 11.606071381863115
Be 7.4490273933577535 8.900348102676034 11.390290149772264
Be 8.217655965116526 10.741372633610938 11.710639866475011
Be 9.686249731967852 9.211825978031715 11.761461582659335
