24
Energy = -60.82054951 eV
Be 9.482437604026424 10.231253297794515 6.74206191991324
Be 7.69032795506005 10.642440580504099 7.8006457170206644
Be 11.271095554981754 10.117556099042654 7.7132711988675196
Be 10.467752175426849 8.326707795765374 6.923881359172502
Be 7.661050344232362 10.27194747889646 5.7907231920744815
Be 9.620780618796388 10.804478357222733 8.8205789035189
Be 7.685401598549882 10.637637410732385 9.858281954942182
Be 8.373505069904946 8.394644331663955 6.332289806631955
Be 12.172847070572534 8.360566536628015 8.064054535097908
Be 10.871817939364664 9.129008545435784 9.52165487201264
Be 9.335305057003453 9.781538398451763 10.72551941419859
Be 6.489086785788752 9.138073574659328 6.989459189212687
Be 8.765441461003224 8.731217145546896 8.588342040554311
Be 7.703608614855991 10.357109796137996 11.934608400837877
Be 6.588713706800648 8.894525929430253 9.127431121561557
Be 10.696639924318633 7.1438416931700575 8.811612078884185
Be 9.111554606762128 6.717243084142255 7.482370334841551
Be 6.022963732776996 9.827148214744632 11.000607316094454
Be 7.05958777435164 7.312073371452003 7.652165194032247
Be 9.546346582325643 7.65996310497636 10.481832926337633
Be 7.632508765316314 8.573385741796448 10.997341115021507
Be 7.62504036822359 7.006442690313271 9.654275885612094
Be 9.281747040746332 5.769880581422696 9.424031317105678
Be 7.6753311066347605 5.408183472752124 8.294782110938026
