22
Energy = -58.09999008 eV
Be 10.809221510274194 10.532953757791166 8.363687859650726
Be 8.853727021422385 10.4852514118681 7.48483201351446
Be 9.405318211867302 7.081659234060387 10.022734350117064
Be 8.51805005210666 8.9666949412547 6.129577631404237
Be 8.01358602542037 8.30854487845525 11.138003508934856
Be 9.978579509206249 8.741323401966445 11.18790555929571
Be 9.121083102090912 9.469978526863834 9.369983448268693
Be 8.20728994908074 6.10652565763295 8.164046067855557
Be 9.347600546061999 11.646170119424049 9.311794114666899
Be 7.276247595071081 7.3905614258165375 6.540311106894269
Be 10.96919969198032 8.475215487605174 9.328030783473817
Be 7.337858398244417 6.859994212660933 9.944209379043611
Be 6.929434583974584 9.436940469421298 7.57566463914825
Be 8.433973657326915 8.10267331829522 8.21491051604651
Be 8.28157570326394 10.422446320106403 10.907213954427561
Be 7.43643622855934 10.919223751969813 8.977183536747201
Be 10.298193233779019 8.82207798443558 7.302438209032417
Be 6.806378010443139 9.076895313275173 9.689471424265582
Be 9.296608727174565 7.070658254918739 6.443226139684339
Be 6.350079003796139 7.510068427673938 8.357415399374478
Be 10.300069306789586 6.8583058067771185 8.197237083417942
Be 10.673342388727827 10.535983984976196 10.3741212674762
