24
Energy = -63.02837883 eV
Be 8.036090596769611 11.070371770922986 7.371653230530838
Be 8.964144774192219 9.710360121454807 6.013554397479338
Be 9.113615423177832 11.142423570718337 9.283784995695472
Be 10.180114427039543 10.91444614683049 7.367622060832959
Be 7.213433358343392 10.003557960985175 9.071247516356562
Be 7.095317290996032 9.102611653926528 7.124507571557277
Be 6.000478119352321 8.254499995855463 8.820212481226667
Be 6.891582039300075 6.8491318631416895 7.495701478796336
Be 6.999534559444833 6.489709937687424 9.627873162323787
Be 7.169582746669484 8.487099805224195 10.675906801450681
Be 8.024487986640493 7.937046608281062 8.777841013318286
Be 8.737640219908421 7.683329126475034 6.7380688405233515
Be 9.060107091327229 9.12499197045901 9.960690492795978
Be 8.021543899219099 10.468569406689532 11.05644192933551
Be 9.081268289849099 9.4136200047511 8.031819350876658
Be 10.899408113303952 9.715749835837366 9.070530403543557
Be 10.6867505405919 8.76374584126904 6.994439022631826
Be 10.185226878655644 10.45060704868085 11.022113448105701
Be 10.23592317887895 7.669573706702511 8.85664492592284
Be 10.406889061263037 6.640091999594019 7.10709586089044
Be 10.7154083794283 8.364584603893867 10.865734476134406
Be 8.890980224214 8.697751496187417 11.955357172662858
Be 8.940788262343215 7.036742309420332 10.470014856776196
Be 8.758052418714994 6.097607410094155 8.372176426034653
