22
Energy = -56.9528273 eV
Be 10.984759219212775 9.813229009350136 10.921268397843136
Be 9.974192761354747 7.7614381095409595 7.479165205327039
Be 6.03930184335323 7.158842985187004 8.966954633499288
Be 7.956608895882235 6.945470381903569 7.700598789302822
Be 9.340374174914182 8.583392590270197 10.903030558796528
Be 8.19725028209884 8.65612749179026 6.499256895143389
Be 12.175397645749975 10.109858073405906 9.334134708298336
Be 9.292398719912262 6.964707000340113 9.406507260282018
Be 9.172229916664444 10.517344765202061 7.292354101589707
Be 11.107363144311313 9.588178883876568 7.65175930823233
Be 10.072816151119792 9.187374242307119 5.982999049366734
Be 7.484997966049371 9.707383245392741 10.80927233476287
Be 7.914014842139054 10.94108399657061 9.199734384330071
Be 8.701825357137656 8.949058352314765 8.797551683282071
Be 10.156010537154742 10.772012116192201 9.162801878632335
Be 9.158599690941548 10.765422815875393 10.944617090498292
Be 7.504310191119184 7.7146852217828386 10.331323553049662
Be 6.3468504987521355 8.221289389047648 7.303186450427405
Be 6.349051509101699 9.212352331411626 9.151059824952185
Be 7.54721927710111 5.843859822039451 9.375303208458455
Be 7.130014141236186 10.167189531282173 7.419158614167214
Be 10.871904858643777 8.394487532580088 9.378060050068736
