29
Energy = -77.37099055 eV
Be 14.04747923088284 7.351951890416863 9.372121933246527
Be 12.635017965996667 7.031113570173408 10.803804875989854
Be 7.975714976827175 9.566448528763786 12.471770824116108
Be 12.175907111089732 11.312666029617592 10.384339589903435
Be 11.831283333327963 13.395145691223957 10.194746341752426
Be 12.06792860096835 10.360097840920586 8.580448167598975
Be 10.669798078535127 7.279636173443226 10.160728173936524
Be 7.485102068572178 10.248251642698529 9.201922080130627
Be 10.229740336467396 12.01336751946684 11.082620435536127
Be 9.152849386216255 8.60411315631242 9.472521252665604
Be 12.833177142194245 9.097637051275779 10.133994763088577
Be 9.916789735696975 10.424983199303046 8.578087837853204
Be 7.508596126326606 8.630884664109118 10.726137392689207
Be 10.833606675423306 9.76020733176962 10.393445115008697
Be 8.225066755050777 11.697990956361789 12.068516908174125
Be 9.98676791276393 13.95087990864775 9.466354201131265
Be 11.508201476126612 8.436603040201359 11.798194316427743
Be 8.84484860909729 12.182187389328856 9.101346852219072
Be 10.405307331415482 14.13966890468371 11.429512930364481
Be 7.147374527943067 12.06368498265282 10.262080991210173
Be 12.246517984861686 6.766423836833276 8.784852114305295
Be 11.085317199004006 8.535709109231563 8.54132268011296
Be 9.977272034308715 10.160966318568248 12.295168660651218
Be 9.440840944909171 8.3262703060864 11.556995648212432
Be 6.602010890011081 10.385721598749445 11.247874128973645
Be 13.116758034076906 8.585405847502662 8.072605616890636
Be 10.974791198968424 12.208172580303192 8.78828740507946
Be 8.55306544353068 13.400318398307997 10.860061346554762
Be 8.908443198754638 10.46906684239273 10.55571172552427
