25
Energy = -67.40352413 eV
Be 9.440338940824073 10.247600908669472 10.60060931619821
Be 9.826384821582353 11.590907865339103 8.591663562612885
Be 9.734202130082002 12.34392210462042 10.750648844955663
Be 8.043986118997685 11.82054999605011 9.521415599985263
Be 10.709060125773739 9.137723788482445 6.183904138627113
Be 7.865992800999035 11.595775320322176 11.541534934489302
Be 11.573010495555629 9.334393076248961 10.992965809919776
Be 9.147337921192253 8.450685669095073 7.36126385907912
Be 8.292599447635132 8.384595952885753 9.352791256254685
Be 7.767003339565132 8.052876657980338 11.26547998316839
Be 9.815619590905662 8.111395010962939 10.99067725537325
Be 11.387873447184703 11.10498171815933 9.80936896017459
Be 10.222364215724422 9.356322385707022 9.009921345677403
Be 7.305596952569744 9.930335051346137 10.337066922214722
Be 8.122441671167453 10.132628331644254 8.356676722278296
Be 12.41330917354534 9.377108800374954 9.081471639938588
Be 10.262057826598452 9.435298099393767 12.624429169328733
Be 11.378292633375603 8.00934524865314 7.756111013272771
Be 9.865969791665542 7.1486800575432925 8.949316086338179
Be 11.598044437184205 7.659462652354567 9.891011262396727
Be 11.421543138329259 10.47273441378756 7.616520542457367
Be 9.443412230505327 10.530670423055014 6.883775493938346
Be 8.243580914260036 9.704611930377398 12.352013896342847
Be 9.421549158913635 11.392672326091144 12.80962780679111
Be 11.183817481241903 11.16011101623363 11.855123383565127
