25
Energy = -67.55326627 eV
Be 10.388085078885203 8.612313308294661 7.85063833105546
Be 11.485822901546324 10.279907781015915 7.629195341660496
Be 8.612661572673074 8.797948270716965 6.831859973027959
Be 9.42405236614289 10.5259475973 7.649963054547061
Be 7.103153910253316 7.889768072596659 7.8763503999199225
Be 6.149520484069285 8.578101320734591 9.510083489795925
Be 8.965319257089723 7.137624047870508 8.123012551638057
Be 7.216373700714044 10.014890486603067 7.896682247098335
Be 12.584533595149178 10.902674342655102 9.176415012470228
Be 10.694839209141815 11.844059190667013 8.878111591026512
Be 12.052388766257364 8.753769825679264 9.11702588137865
Be 8.547321967761308 9.116289197138276 9.24648069409386
Be 8.534161737558822 11.388506873610178 9.238996934279704
Be 13.135331951484954 9.594740203316421 10.670394371570847
Be 9.810924580179165 11.844324750998434 10.794312365907473
Be 10.220742765503838 7.625593198769936 9.724114546407728
Be 6.738624435035368 10.4422719437442 9.952124130836054
Be 7.133090818432585 8.76841785426344 11.23735605056007
Be 10.330789921888835 9.916908602515244 9.751059842910589
Be 7.861866608521057 7.258946978069891 9.920074448567375
Be 9.201097246335957 8.41702276360135 11.321410922287749
Be 11.357160717967261 8.65601239020685 11.197338902293376
Be 11.726415231284726 10.999126422366436 11.033466104109129
Be 8.399916389911581 10.393273108691476 11.133905182646988
Be 10.174615934694295 10.090372617056568 12.088438778393533
