24
Energy = -61.78369306 eV
Be 6.833833264448408 8.786055750772402 11.916302957477242
Be 11.20093750476373 8.88969079522649 8.312510199591474
Be 11.84408697991046 10.006413801141177 6.723736837610157
Be 8.077962765836757 7.978217694647074 10.271797284175054
Be 10.613675229063496 11.583145476156718 6.771668365284662
Be 9.34194104534704 6.876770130552046 11.570085700629907
Be 10.525286302682856 11.347413713271822 8.87421041034503
Be 12.465293663714917 11.596563933586188 7.844172735687404
Be 10.202437715961782 8.750096525994875 11.723939578657392
Be 6.847832205245697 11.165412649296217 8.609533374276443
Be 7.065648285724905 9.813718752330987 10.108388248876896
Be 10.207581275424085 7.695220496633978 9.849628309320268
Be 11.724171965128816 9.09951484445416 10.282972109350455
Be 13.034534681433103 9.760199863308213 8.53296920563325
Be 8.52243089366902 8.267685525920578 13.00552982031769
Be 9.709890402059425 9.672214565824426 7.0909538181727445
Be 7.700937568230285 9.367494605618433 8.213057044756734
Be 8.604147102324253 11.362652502805256 9.894476060784587
Be 7.412155979368024 6.864302493583017 12.23380947306398
Be 8.70724324629904 11.238862025367888 7.809805419103363
Be 12.344843602706343 11.107753233674503 9.863753245208835
Be 8.515515028806854 9.945342600579206 11.558919473239978
Be 10.442427489163205 10.631895070476517 10.876409392931196
Be 9.361554831734063 9.499731977823192 9.367739964551282
