23
Energy = -59.21805418 eV
Be 12.887462725319603 11.377947405670023 10.704487558446102
Be 9.410348921809934 8.13389246509905 8.15267123263548
Be 10.346480535582543 11.349577094782129 9.469950634250601
Be 7.753673847121633 8.160894982682237 11.120741183729656
Be 10.36728241738084 10.461143386861458 12.552692536525214
Be 11.101564019150453 8.426240664748844 9.45925095612239
Be 11.100905857550597 12.062029785032628 11.36623086666568
Be 10.627616148957582 9.819976542191045 8.046056243333606
Be 8.492611457180319 10.094232986884794 8.511004903139035
Be 9.150353247275916 11.445763265208418 11.22751639680102
Be 6.5515977744028255 8.896686111666648 9.408081393403757
Be 11.743868982061693 12.959763900610962 9.590728745404641
Be 9.905564363923984 8.471598391624736 11.853690815100952
Be 7.421318288065295 8.493016693136692 7.6254138130585645
Be 8.433824862745212 9.781810971324195 12.333803054856242
Be 7.546100842874572 10.199593508766704 10.54990144056437
Be 12.405305398828506 10.12364765059098 9.091742245498127
Be 13.394288487448616 12.106353597684697 8.866743771916418
Be 7.567590269480706 7.200267458020586 9.13264972613688
Be 11.624235926508161 11.76175553769319 7.909772902240103
Be 9.322293010235121 7.388572051297705 10.085085234515937
Be 9.543307043828122 9.593448581499004 10.204506854615476
Be 11.491462566623435 9.880843961279226 10.926334485394712
