29
Energy = -77.78985303 eV
Be 6.462092360174794 7.762325768208519 6.980596923074161
Be 8.495294486876343 6.764612038231391 10.13255339622823
Be 8.56780795584007 8.70721846640291 11.181184863999903
Be 6.788335651123758 8.143499334779454 10.06179345503666
Be 12.820685227267322 10.394776944303725 11.070057146877199
Be 11.259470039477963 12.944249243596044 9.617732140985014
Be 11.037389159641155 11.133816865155278 10.487246600722017
Be 8.352080555763706 8.523667023686153 6.978339887781598
Be 11.653459595275654 13.20441731426835 11.675675447696214
Be 7.648893592270323 10.23615490717826 9.993057653948345
Be 12.617619798636792 11.160390278243847 8.992851051311836
Be 9.113556991939134 11.780236397799156 9.555647574935918
Be 9.123061798299133 10.703438764528347 11.522740630714916
Be 11.747317185331234 9.348611804241676 9.386046650769268
Be 6.780682221113075 9.333468661686732 8.245027012157799
Be 13.064970467809289 11.9385468793547 12.463055676128661
Be 8.65767914465197 10.390707273305438 8.028855761088897
Be 11.068446048130273 11.304291844987269 12.49735842540221
Be 9.25104354495373 6.877121316455397 8.077295574394203
Be 9.739920054049012 12.651097810407915 11.351793971153377
Be 10.824949419747474 9.234186063476125 11.433151244715702
Be 8.504815011685974 8.48997087279235 9.03634076209345
Be 10.278218158431464 8.892964345996967 7.872573364753858
Be 10.672995604841063 10.982264855463821 8.288721486868003
Be 13.118884840981469 12.448230306146055 10.4756409846836
Be 10.419377624673842 7.756151280364026 9.68907391407575
Be 7.229484924016281 6.799315345697712 8.539298473240505
Be 9.757397794502856 9.810563062888932 9.759136529076786
Be 9.935901101849932 7.275535289709382 11.598983755441141
