25
Energy = -67.35552095 eV
Be 10.46453568543931 10.873381590484565 7.860653885243
Be 8.503094553013014 10.879933819507041 8.694878404631666
Be 8.926313209245322 9.266394772001448 7.370282792520833
Be 6.9398189001254496 9.59906832127188 7.873260671084616
Be 10.92273512650294 8.885617467587561 7.414472587613502
Be 7.682349216782679 7.6235360390892675 7.6796682572395545
Be 12.341689022981166 9.913551890191751 8.431084768924935
Be 10.217108474722234 9.881031703477394 9.839298541188949
Be 8.396206210394162 8.860808944474307 9.58738521594161
Be 9.761629147982829 7.353036670056857 8.229178946802602
Be 11.574611329266359 8.166323946992822 9.277477315499086
Be 6.808033589425451 10.28991653473361 9.820420240940305
Be 12.288414444968046 9.941332982729667 10.5420372895482
Be 11.920930426837613 11.643398192645584 9.319734684744672
Be 10.125819497690365 6.9759994187009955 10.216004872595908
Be 6.461599970227306 8.17672340004988 9.174954742300494
Be 9.958208281578655 12.068519973239217 9.737545140483183
Be 8.154130149028132 6.840933977699933 9.545909734068616
Be 8.561752823351428 10.331093560160149 11.120742954708762
Be 7.941380352290638 12.028480791452287 10.319132864455442
Be 9.248235280065458 8.350405307287238 11.446036537577283
Be 11.480753519186532 11.721508472616842 11.308723996982893
Be 11.268562490965195 8.290413185719911 11.359356645208793
Be 9.562274359321535 11.98538118621177 11.80260257198518
Be 10.5397196940426 10.103113607053494 12.079062093145087
