29
Energy = -80.89229475 eV
Be 10.928036969275738 7.508451448706743 12.366914858372128
Be 11.856625724221844 10.668535245372103 11.031874951325719
Be 9.825320749948311 10.990332796241821 9.898960578011152
Be 8.544044239465137 9.016294773369866 6.542778256816778
Be 8.581531859860844 10.89669399992925 7.532116071625542
Be 11.160737413414845 8.11748947753522 8.881039550396864
Be 8.386307567334887 9.770024112975197 11.157081256960009
Be 9.877128453771906 10.889770891668425 12.108277422522411
Be 7.829244550714913 7.590310715566967 7.780879789537696
Be 10.0506857253265 13.360219856203138 9.598305756364404
Be 9.287397050541484 7.095378984288986 9.250225567913324
Be 9.229805478655935 9.265808796931504 8.863774897036881
Be 10.378948710403622 11.815540691005582 7.99564663121425
Be 8.973650143110493 7.555674620927932 11.244666302201736
Be 10.451532015887453 9.77558073421216 7.247029956165333
Be 7.107108129973976 9.494267441368311 7.997241508449098
Be 9.878189984056522 7.684732238068017 7.333864639003979
Be 10.817262193757571 12.563069926506227 11.324493565878697
Be 8.418020168416517 12.5516420253057 8.794585163618848
Be 12.230443321006568 8.476884700085533 10.869525098577505
Be 10.949024139519958 6.832596674149856 10.490994867300904
Be 8.643525496500997 12.291582725838575 10.886683396337112
Be 11.732255228560623 12.186740763267968 9.588009386618667
Be 11.540851345548138 10.135620602120614 9.02850973091367
Be 10.329259833869386 9.11464215273023 10.642822513358427
Be 7.57530816484323 8.37110119820278 9.794658057237287
Be 9.505849270035254 8.940672150699822 12.765073412250706
Be 11.43446195794784 9.481620042951205 12.677501284138058
Be 7.676343412978805 10.757619512719577 9.50536482880197
