29
Energy = -79.36521418 eV
Be 11.625714578810205 10.9286313825804 11.610033737984745
Be 12.504051649014718 10.22016803123805 9.931821121569344
Be 9.734888877198273 11.62928025358326 11.536318423009648
Be 11.002961670392208 11.691638606710193 9.648808950377589
Be 12.430309784302827 8.269578114851074 9.259195197796748
Be 11.571142801140189 9.971280365418643 8.152689110778065
Be 9.981159814401716 10.038230563729275 10.165920414974993
Be 8.515266935657632 11.504903362330872 9.774790272747506
Be 9.600274752656258 10.768332164660345 8.134876982118106
Be 10.160384693121493 9.733941694062574 12.328581023195834
Be 11.452338299449 7.727368357837779 7.590608199660825
Be 8.322537955691237 10.30160601060558 6.580102111266353
Be 10.048923258670628 9.116348383069148 6.849049031030508
Be 8.280422558718898 9.261400689671948 8.952622384828423
Be 8.272813707380644 8.268941928929024 6.18738608749733
Be 7.145252935270394 10.93885883794375 8.207347830686697
Be 11.456102198557856 8.693691603705744 11.036320714347067
Be 8.276721421995363 10.080447471200866 11.471796157693925
Be 6.7211450572435 10.521366191506916 10.202312105379388
Be 10.16588395885258 8.536899480180193 8.935576549688074
Be 7.250898195530848 7.467803966333884 7.831252343105502
Be 9.363228421845104 8.152050765688896 11.09895737875668
Be 10.773118496228118 6.934160614746594 9.829276736645392
Be 9.352443101253147 7.162185165323803 7.618110691734959
Be 6.629624047927736 9.29932159447282 6.98426253476036
Be 8.507121258311193 7.074355057738127 9.564778420670502
Be 7.206809106065088 8.480084858883867 10.774533272703685
Be 6.07613172933811 8.999326524357038 8.960335838357976
Be 6.393610742552133 7.049079966217236 9.60361838421199
