21
Energy = -54.92941821 eV
Be 9.091843528733262 5.650131913273091 8.334899077847417
Be 8.662677502490265 5.778420496761463 5.960844633916078
Be 10.325431357433452 6.710443782028334 6.891652536163373
Be 6.721254738851147 5.965880030218653 7.085144818996728
Be 8.6119191622539 7.078048657598952 9.962386487216385
Be 10.249760786047236 7.416814935299686 8.85781098506523
Be 9.262407881176586 7.77645868924258 5.432033635086703
Be 7.164633493845437 5.96431243469215 9.139081733779951
Be 7.257156834125319 7.237575694926371 5.432797450459623
Be 8.343337006413392 7.241116628116215 7.331041387299729
Be 9.787497100609398 8.787070344589115 7.307935195856398
Be 7.432395431096164 8.377456057281325 8.525488215938774
Be 6.024142875145036 8.092868236703739 6.908784447184996
Be 5.4696474719083525 6.872980010584793 8.517467037761486
Be 7.846017626472531 9.130080036048449 6.238306813444042
Be 9.177864886904295 9.08053235337115 9.44788722651011
Be 6.529179490453251 7.705730161164338 10.197966230494817
Be 8.452157269605584 10.294565771911628 7.888673657911295
Be 5.405141556988328 8.940774002013285 8.82390527217797
Be 6.435885768716954 10.11518736769614 7.443058173633822
Be 7.0935983303248795 10.093598612468993 9.483080214349732
