23
Energy = -60.8064334 eV
Be 10.983834348105026 9.277294755189596 10.696188990632237
Be 10.459585784233859 7.758495629702693 7.409116480893272
Be 10.826689584852083 9.446216422659557 8.607108639400701
Be 10.310758304149658 7.640650605512471 9.511305341370065
Be 10.026534879200355 8.442901109418003 5.484105129948414
Be 9.814112387934557 7.863529921081321 11.585399768629172
Be 8.935236032441424 6.936387741833101 6.319133692025016
Be 9.097470067674196 9.519539587501317 10.001526218903225
Be 9.936471250241798 9.963283805623027 6.843340600983438
Be 8.650914953460648 8.687865341830957 8.151701103154517
Be 9.46471935146173 11.018115770478534 8.588423199960467
Be 9.377466693696865 9.707804606640575 12.215290360656523
Be 8.107199817650475 8.890890856814488 6.047963705368384
Be 8.348267369099595 7.280551218646388 10.289756010921042
Be 8.02685445979254 10.726576827109174 7.073210115834439
Be 7.635771445002157 10.493295406349775 11.0638844029386
Be 8.814215926523552 6.526778094750604 8.334401096808492
Be 7.788368141615975 8.55700115406957 11.798947748520938
Be 6.58718566449036 9.156830601158838 7.7328438104028825
Be 7.456025749814161 10.675459389890358 8.964511489409556
Be 7.0632309302568235 7.309630987467285 6.914184958504577
Be 6.947741020838694 8.907433930427322 9.820977968889373
Be 6.837632585923814 7.113048109458832 8.853624519978052
