24
Energy = -64.28736283 eV
Be 10.019363001772918 8.30477022844551 11.668343116357736
Be 11.189617892924856 9.087811420278175 10.135924447598699
Be 8.989309526570873 5.7333364334279056 9.712240289745257
Be 7.679667231534525 10.524824975702364 6.242843792213945
Be 8.175929198208983 9.25147117749862 11.497395517003488
Be 8.278074954575844 8.825873967527087 5.334107600383943
Be 7.567763599526676 6.965983714164685 8.910882094950471
Be 10.715124109755076 8.53017861536328 8.122900367601723
Be 9.762466649969829 7.911823558075368 6.352056822767081
Be 7.7258014123683925 7.166280931307916 6.7273143455740225
Be 9.838540719838498 10.349680042555146 11.00878022979158
Be 6.6227420739803495 10.184454876738933 8.204480657917074
Be 9.823206041452668 10.004677753097397 6.75231182822893
Be 6.464619827330387 8.918647607595224 6.14628164006261
Be 9.442931903685317 6.863029886623385 8.067490065620905
Be 8.504455638830954 11.221484667525456 7.959068243496962
Be 8.304694162086307 8.893379435410774 7.804310157139668
Be 9.114025305573099 8.603855075959023 9.624058266336046
Be 10.534847422152865 7.099009731188445 9.929648161599015
Be 8.053219943020691 10.528367094346946 9.816831561556832
Be 6.172665427401022 8.115531953343268 7.974692184023863
Be 10.132107031818846 10.412827457706419 8.879182103751178
Be 8.266482193851786 7.225074062317775 10.951555823090589
Be 6.929717307311025 8.740374720171715 9.83186149274415
