20
Energy = -51.27387424 eV
Be 10.791720006765116 7.942661678021703 10.277050922360157
Be 9.418471741804396 6.463131703901041 9.53720147806562
Be 11.133749344468747 7.114384390526938 8.36760616287017
Be 8.777245752326175 8.011802387549583 10.796666765204137
Be 10.025825603034686 9.921860302612343 10.522710059961415
Be 9.226211339193789 6.719992168831175 7.402953450278359
Be 11.275757460667059 9.504013607906057 8.68393543303263
Be 7.715448822896421 7.354968265268087 8.653640386906908
Be 9.633926161004375 8.401160603866616 8.613790614461207
Be 10.404870182237088 8.27989660258083 6.706426064548191
Be 9.863633462840905 10.216843590770296 7.08429929795872
Be 8.32684613407332 8.773919213938635 6.965019972172766
Be 10.019052063562144 11.165646324659871 8.818552003761043
Be 8.300886902701677 9.529778998852915 9.308266849094652
Be 6.7612907665650575 8.355498831221746 10.236626613778402
Be 7.913718419533791 9.797674216881626 11.360376006066424
Be 8.505057008488736 11.39521285665877 10.169467640807717
Be 6.600237225704722 9.056295843327284 8.202497286222354
Be 8.013768215243594 10.8332601725858 7.844393309966266
Be 6.602753627128202 10.472468480278039 9.758989922722852
