22
Energy = -56.34042716 eV
Be 10.967168106700266 8.690468751109162 7.701092908547648
Be 12.328782803508378 9.22626429831302 9.137966400332845
Be 12.195216857878073 8.744593448047151 11.085882598534983
Be 10.629295056185294 8.155291969007544 9.79448711135251
Be 9.193180941721517 8.645299671285322 6.617396871425972
Be 12.134237138063224 10.809108011056397 10.561290267113609
Be 11.083484894655914 10.743929215413123 8.513077818733924
Be 10.264043665478882 10.383794735144532 6.606113902626389
Be 11.941521868353485 10.11945136166157 12.539338660410502
Be 10.29056291545261 8.73090423692053 11.987172889719842
Be 10.252721436457714 10.098280714539072 10.379094528383439
Be 8.247901906665678 10.383118649230967 7.172850570083582
Be 9.213465567197389 9.230207319422014 8.658811266982589
Be 10.271811903811784 9.95327715838333 13.709774715052614
Be 10.527987493755228 11.45171041234198 11.994153786970934
Be 8.45745654929627 9.174102076444806 10.700105992071741
Be 9.452378397767852 11.85029859121634 7.858750914823964
Be 9.988667913873863 12.043630627692078 9.90741844339573
Be 8.484086098692114 9.614979866406415 12.728563238809958
Be 8.525284760987486 11.252814528368706 11.345889914175716
Be 8.270182265272274 10.94459223750292 9.29661104967274
Be 8.959068251271733 11.432388913540473 13.382662943825954
