27
Energy = -72.82275842 eV
Be 7.158280430724336 8.33829185107039 7.806000046486074
Be 10.990701119217093 8.583980902669344 9.334069554131581
Be 10.235956682324213 7.067512401498368 7.822948536939578
Be 8.808972554545965 7.8083880140668285 6.479516632637119
Be 10.407424347982946 9.044541372938106 7.177029615615679
Be 10.14573049036922 11.09963906427166 6.656008692052629
Be 10.146085139243128 12.533931657865782 8.277732064851484
Be 11.337874515003632 10.746236560652248 10.255918476157927
Be 11.514260329935034 9.405526504995862 11.767945158279202
Be 10.666162050192371 7.597824896519911 11.311638815693865
Be 7.441351224090822 7.2013883286540885 9.632836140454742
Be 8.469484708356633 9.857407367460757 6.854384991257277
Be 9.48437105167718 6.903398871573262 9.749508126524153
Be 8.279942276103327 6.503059418181751 7.903039840566798
Be 8.918172328789426 8.700783465683939 8.71476549661587
Be 10.036515458334923 10.494028101489953 8.666120985235196
Be 8.460550538147631 11.97523666203423 7.221588011606631
Be 9.875832012084505 12.132968406886462 10.34601401603761
Be 9.98665806002857 10.863116704874157 12.105356165915307
Be 8.50644318971845 7.72713360484329 11.437755385848686
Be 7.39147592298593 9.160367113157946 10.270937816308175
Be 9.524050462612301 9.527342487285754 10.51206592423648
Be 8.269373419346207 12.552956161899685 9.23061902140133
Be 7.784340434046326 10.561921129202752 8.708741219761569
Be 8.104746366017544 11.150149568037872 10.773569497008891
Be 8.215437706389766 9.652923322715717 12.229137725662575
Be 9.902563740362279 8.765116410071212 12.79518659995533
