23
Energy = -61.487079 eV
Be 6.180930165869813 6.873865416123137 8.8193437445686
Be 8.733267796286253 11.638847099886092 8.021358175028665
Be 8.01141472631564 9.150996499816694 10.571478063300793
Be 7.861921245953518 6.325033601971789 7.5605111142004455
Be 10.213435466086844 10.953983929649901 6.903019144830996
Be 10.646345845468506 7.648022928670832 9.206742827191361
Be 7.982162132533968 10.15117873595231 6.661432749960816
Be 9.831754535183455 7.394663545097191 7.351409294786178
Be 7.026898656383597 7.246400946526923 10.775097573209571
Be 8.789376471864825 10.952624998521694 9.973806863578046
Be 7.250319668026551 10.262536232457988 8.759406310837413
Be 10.58248700390702 10.973249823452962 8.926489605238347
Be 9.13347556145512 9.425956814292249 8.273713781318598
Be 9.171472515551653 7.262254574009554 10.669057209998078
Be 8.134548446885296 8.055312905568204 6.422094049573801
Be 11.125450957837135 9.169348038111481 7.859612361387945
Be 9.497570855155699 6.003409372706167 8.866677081772618
Be 7.652399127265789 5.720546412631827 9.685976936227519
Be 6.17876157759293 8.771892152579214 9.667935383318571
Be 6.611702972337648 8.640072582305185 7.577729778300851
Be 8.160082095438293 7.845935089991189 8.907895950125784
Be 10.09037903630909 9.270941942818238 10.233368090386344
Be 9.864556245075239 9.090991937588726 6.149394073047995
