25
Energy = -63.60282988 eV
Be 9.691927959551135 6.712718777509041 10.786914182536613
Be 11.065977951163715 7.6961464273961155 7.5877139434568965
Be 5.802201570792995 10.738953956294012 10.297472148914641
Be 9.559041053971582 8.904012536097941 10.710324004549133
Be 10.319341433400258 9.52843242264429 6.412886026405131
Be 9.770775533373728 11.091628080988947 9.744609406138014
Be 8.474534372658779 10.462046119859313 7.006766168477694
Be 8.201937076915291 9.518844000308318 9.017583753655817
Be 6.181483629838008 8.876722569897838 9.548318706856582
Be 7.756400938435015 7.7561909388823755 10.446791235070785
Be 9.3196227494186 7.620974317804127 9.042814802930062
Be 10.045129300425542 7.593152039398269 5.7844164949495855
Be 9.361221871387695 6.459629607897802 7.387460519011458
Be 7.370550459304942 7.480007258485074 8.43799589935398
Be 8.710485126997877 8.395932129525303 7.128109180026067
Be 6.687036679715476 10.827060892530476 8.476904109377127
Be 10.211476246625887 11.303217998840458 7.647354258844473
Be 8.94424927468202 10.727050541080475 11.587462925269179
Be 11.668302965860327 6.500911229727925 10.937221059600178
Be 8.39618711929673 11.981502212057968 8.379462023774135
Be 10.312439216017824 9.448849071689509 8.523017637565985
Be 7.312328127715201 9.630277870926527 11.159244559015097
Be 7.683544724668045 11.596388289937384 10.25293606860695
Be 11.352502453108334 8.08442817673483 9.76065349222345
Be 10.920341594339071 6.18396196314933 9.054606823054609
