24
Energy = -61.61872002 eV
Be 11.460240717532722 8.38285974452958 6.0306910726316705
Be 8.59379235218768 9.328598768948396 8.894946413828173
Be 11.78127225869678 9.096036048819006 9.311952396749659
Be 12.04781746233267 9.801196727684548 7.38731465890732
Be 10.149928234777242 12.249688154216166 9.497058067624359
Be 10.267558308680151 8.46768471160633 7.751650571644802
Be 11.97296330029787 11.117619449356342 9.187802058113055
Be 11.94836297613149 10.072356841854956 12.707236194926056
Be 6.964557603593049 10.550027836476545 9.577335473725668
Be 12.708666259904936 10.08373091060952 10.864224597378414
Be 10.094016881320409 10.170071576658284 10.37048466707411
Be 8.076467855221521 12.203187653032703 10.138426564547395
Be 11.243969657749929 8.61884208930415 11.430310889782382
Be 10.879011645210221 11.730733410340163 13.078044289197935
Be 7.167253123751066 8.76700110944415 10.507491055847781
Be 10.211814719054473 7.931697790930165 9.714232961174384
Be 8.428950929562653 11.420011632398264 8.36725661855341
Be 9.493174372959933 11.961064457718402 11.588133521300009
Be 11.543261113842812 11.80734937869253 11.144363119107455
Be 9.052404621014746 8.426991023505666 11.32553257457037
Be 9.86278412877513 10.02516029933404 12.561039569895934
Be 8.306443521689395 7.406511640629201 9.571833460434425
Be 10.27915586096301 10.571292356719123 8.169978388985077
Be 8.049334013827592 10.39348830626868 11.405862733077635
