26
Energy = -70.24496362 eV
Be 5.903595725819665 7.492069167333523 6.964303909780848
Be 6.992422048475365 5.861048228785438 6.816088656530466
Be 7.465672623562672 7.34263052722116 5.356859366748733
Be 6.7285984979469236 9.36245097199447 6.859734186523962
Be 5.400929674922635 8.648345684747234 8.687542230891255
Be 8.94471375237135 6.015387476593251 6.201695234172969
Be 6.239729433579379 6.475120717432665 8.73142977516637
Be 8.24808671457292 7.897411347412328 7.101832866591887
Be 8.63115907520213 9.367702226132943 5.690746897652858
Be 8.463099594126337 6.195252358730267 8.347142069000583
Be 6.718416343051656 10.463102181290605 8.635565651365441
Be 9.75719581051973 7.692372454500551 5.486413223402205
Be 7.3805384854266185 8.304384924507204 8.899230933804649
Be 10.283475354166198 7.069048557745825 7.500481373168076
Be 6.124821373165958 7.659580585858894 10.488035448628493
Be 8.517254919416363 10.21174567373256 7.603575668606769
Be 10.376956152263517 9.162894263202526 6.896650589983486
Be 7.771700586381702 6.481036562921042 10.283612864765347
Be 6.562334579063409 9.603992335145472 10.478533153871142
Be 9.30645368350798 8.613937493014348 8.656444258565168
Be 10.380280251312355 10.368140208491853 8.795080457894507
Be 8.465273842782304 10.265765195300835 9.842725400295178
Be 9.764252407979512 7.088803732540116 9.857743047724396
Be 8.264482776616049 8.438726897057812 10.947926857305232
Be 11.301089192424737 8.536851909839886 8.769811681960718
Be 10.21420818464243 9.207368602478496 10.468456101288927
