28
Energy = -77.31681624 eV
Be 7.486258863517384 11.198079449688846 9.091988072903321
Be 8.970430531600329 9.915102624327302 8.094530338869541
Be 12.786539507557306 10.036625550085862 10.862156391187288
Be 10.475418268200073 10.437340539165191 13.5739459668826
Be 7.021141994656089 10.470881260362907 10.982747540283551
Be 11.033688848114705 10.411958132220462 9.437641137031633
Be 10.920142191632014 8.934501101120784 7.938233943145403
Be 13.477088692249525 11.110884504665778 8.951426203214208
Be 8.50384612525474 10.629971874477361 12.56781456741708
Be 8.375007870728304 12.183785940711259 10.990737675579028
Be 9.470021668601989 8.797259203032233 13.162952914308342
Be 9.915736136560017 12.142119053376629 12.482342181303373
Be 11.689325698805376 12.196415114131804 8.495622355771953
Be 10.462025050088888 9.982738478912873 11.380638892001057
Be 11.665938929377322 8.959111906415906 12.594189367492662
Be 10.510415620379408 12.141334430885601 10.556306798766819
Be 9.056075609278714 10.495655728113604 10.156725333519464
Be 8.296207277056135 8.77692926574888 11.4533961022834
Be 9.607049012423253 8.54690550460602 9.624375462214111
Be 11.586274806808737 8.408848225408494 10.27575343332516
Be 12.886597145971152 9.178297783534017 8.863969581009107
Be 10.105342830610892 7.743714686771145 11.556117946629183
Be 9.470621205297611 11.966566441557708 8.741805546607864
Be 12.545223936996779 12.101446157795161 10.443372973286618
Be 11.87739695957153 11.315378880066 12.242725265582235
Be 7.510674256550096 9.151820057545702 9.527480920000663
Be 12.41218688564839 10.394882346912048 7.348824109993169
Be 10.503308920434021 10.991430602331292 7.222163823362814
