29
Energy = -78.77700119 eV
Be 10.147456385424894 9.638128325131458 9.055412825977529
Be 8.20983870888965 6.729518856901577 7.35478491207
Be 9.087190511170988 10.086454528006222 11.069552509771205
Be 10.280964924358452 6.490654736826044 8.59609465737358
Be 10.795720466181995 9.024859137777892 11.351101397358395
Be 9.784728303966368 10.799911291351323 5.895773580555894
Be 7.029187454048403 9.4300346982845 11.719547173745534
Be 7.263712334279014 8.668746405403073 7.235046869983816
Be 6.793846858930497 10.55026050115955 8.5127107965923
Be 9.051989623362184 8.869952757830799 5.9389193621594725
Be 9.806509978884328 7.87448844370935 9.931103845004287
Be 8.86510394611137 11.274295617569353 9.357906867780736
Be 5.670360344933536 8.837026021214012 8.594768491475788
Be 12.10525137049935 10.324776687333962 8.422262967270704
Be 11.693341173158007 7.361663177906988 10.280574582900675
Be 6.47335310743174 7.837952136090332 10.364911163669483
Be 8.050048292387455 9.012103920682154 9.329340719244339
Be 8.447757881187044 8.059156917850096 11.355287068051844
Be 12.35001728641693 9.322781222425984 10.163722202769456
Be 9.450918956868959 8.197607413009713 7.804365509941063
Be 7.23461439096113 11.080128263685575 10.581083464065369
Be 10.987024043337097 11.045669190898337 10.17937368416468
Be 10.869227777104257 9.540411708388186 6.944681521765014
Be 8.678690200023631 10.22381806289228 7.56087668231926
Be 10.43367425567724 11.397807108082144 7.928122606708166
Be 11.605394451565981 8.214669018378142 8.43196649685212
Be 5.646702626974259 9.885762342526773 10.319450715526694
Be 6.48593644086218 7.0302372556723025 8.384867098318756
Be 8.187515166445326 6.748076230302102 9.447889864006262
