23
Energy = -59.73796924 eV
Be 7.786847953138274 8.893798483655525 6.617204655284468
Be 10.684106666483903 11.014858838028578 7.163287479680386
Be 6.757622960318957 10.696295383196189 6.161814239935468
Be 5.859339185823628 9.356494190586897 7.366270738930684
Be 8.735261634555105 10.814663095771234 6.720303466930393
Be 9.334852337590998 11.197500730622147 8.732849292688892
Be 7.235467434940464 10.905995319984305 8.181439219135806
Be 8.587880093583346 9.21454086984475 8.557851872512003
Be 9.957482316511792 9.08961655001934 6.895542878469969
Be 7.982798123735426 6.329794058203473 9.284676042852137
Be 11.004913063164581 9.750326740636954 8.693637986737755
Be 10.465168619901371 6.869598803641351 11.614519162463234
Be 6.920716733778245 7.767947054704635 8.218509416534115
Be 8.921795553826671 7.215021101518361 7.655323069669928
Be 10.91008352195797 8.289961181641655 10.21320930271539
Be 7.968298947984478 10.203688802918197 10.357354226958153
Be 10.033347681666104 10.17968126496867 10.417676879140577
Be 10.8688871242881 7.7525196049746095 8.216208815273399
Be 6.337025837202354 9.439761952300945 9.32237908105018
Be 7.428639101106882 8.07739308675758 10.343823107615398
Be 9.137661552788888 8.609484332226938 11.494303114692713
Be 10.033244819343388 6.391916786275964 9.59811479117331
Be 8.590947177062896 6.555055563897197 11.215725361765756
