25
Energy = -67.62215069 eV
Be 9.543909372090031 8.815313959840315 10.037586157431337
Be 11.0795743221227 7.068550506036417 8.913732013263031
Be 8.564670868393845 10.64889554271261 11.039091004112066
Be 11.231691236041723 9.317029271197203 8.58473056278745
Be 10.147041945075177 10.34800702598781 7.103140819397452
Be 9.096396269043543 8.423036882435362 12.150686968775789
Be 8.38524198489286 12.255100468926507 9.432130935134882
Be 8.656401174939315 9.049114024493695 7.985583542099063
Be 11.311504100123718 11.633314450385852 8.724490800876803
Be 10.164836535937244 11.930559239696363 10.749375885736743
Be 9.069223169654657 7.001326222544659 8.814806198859602
Be 9.721843129093866 12.388233910476606 7.471401302513408
Be 9.622212528245038 10.588817125532698 9.146923333011506
Be 7.301755625470334 8.088866855929613 9.193246505785623
Be 10.164512807275994 13.311729295964021 9.17023079105193
Be 10.258512018393592 8.041257456730985 7.314214209978194
Be 11.929061705850042 8.2801624815908 10.235554517497773
Be 7.530541107387475 10.1687182412337 9.333439104670529
Be 10.309153624218698 6.938610801999769 10.86483243217007
Be 8.224926841207814 7.065295193548725 10.76066264328579
Be 11.313417433165817 10.224216579693833 10.519796525385283
Be 7.378945060360329 8.95459913985373 11.051925065933005
Be 8.195561319587167 11.106439765540886 7.573192360575715
Be 11.113788991817247 8.511517704193759 12.027421160287238
Be 10.1244832981832 10.280494322025516 12.241011627952055
