21
Energy = -56.21474819 eV
Be 9.062786087164739 7.9395781864376245 11.206091688256468
Be 9.683642894906896 10.903636261933162 9.60336566280316
Be 9.631208342998345 6.158533436525735 8.120286890151085
Be 6.37756878884923 7.379923646979645 9.08902455230042
Be 8.286847812132219 9.386148489303904 6.185180801217244
Be 7.236708201654242 8.61127484737365 10.509142665658729
Be 8.236955926490836 6.676370640477979 9.750977843468743
Be 7.033027722721314 10.356482580407198 7.511192444219748
Be 8.993947201260967 7.5148192389201185 6.683579195591993
Be 8.673614697442785 8.682354636823375 8.674294882179298
Be 7.651526157249597 10.625679664772143 9.454374835973924
Be 7.640397403790089 6.390150398505993 7.762309984842341
Be 10.26851294456464 9.152849945353575 6.52643279352548
Be 9.099540475306812 10.709204060433605 7.597288840906326
Be 6.870305832140645 8.274772925310671 7.261677123058017
Be 6.048584568117268 9.382923228052189 8.99340832562331
Be 10.784800671599049 7.883253481083128 8.09205233866193
Be 8.718314264371257 9.939606296684806 11.104133651210674
Be 10.477114983302462 9.024807214449064 10.111720636296544
Be 10.31372792470201 6.9497621607920825 9.86797256573521
Be 10.92912429874594 9.93033699312487 8.275307202875595
