23
Energy = -56.23793166 eV
Be 10.930912566571262 12.43041199874713 10.381833672791688
Be 8.89681872791996 12.294882238050612 10.674561021852503
Be 7.437690617186777 8.582482628331705 8.923370987086283
Be 11.731301285727806 12.190846599831124 8.539743058905163
Be 8.829966337099163 6.354293166864613 6.927427312732291
Be 7.947815868175442 10.662044818998183 9.742447685857865
Be 6.005725374674318 7.087080881515574 9.375700539342686
Be 10.949258154226191 8.866435290600124 9.609794039212806
Be 6.969673389474754 6.652573284972997 6.202260648485297
Be 8.10542997674178 8.28571934293879 6.919709196490847
Be 9.213943482800966 5.787734357078751 8.81119439520776
Be 9.950411775959493 7.155443458652708 10.179914990161976
Be 12.077629284748765 10.715898662554672 9.790498680162496
Be 10.171895409096537 10.487308029913192 10.695994071126249
Be 7.152981783173992 5.903647319393661 8.198197397680573
Be 9.894524914174557 7.813283513467919 8.12286248884621
Be 9.656718826920196 11.71498109857774 8.831401475820533
Be 8.807205817462886 8.829755642943718 10.501527690945336
Be 11.077790832832552 10.212375798066153 8.069828145445264
Be 6.04816154627336 7.794464132495285 7.50780737302299
Be 8.336772199511197 10.65042872693376 11.694986959820161
Be 7.930359366117261 6.752378765149313 10.114157531449878
Be 9.115945382163256 9.703765006670139 8.378918700235065
