21
Energy = -56.25035951 eV
Be 6.364071640452942 7.301098578032099 9.685315420253158
Be 8.20430425247723 6.418012054652666 9.461257180276421
Be 6.707877567198009 6.256831079109696 7.944580321252108
Be 9.745331304851414 7.948614078293829 10.11845961895701
Be 6.953721382576851 9.314243452779396 6.152677442504038
Be 11.112130746771692 8.334169295674775 8.56869621187109
Be 6.20482692409017 8.301412404746534 7.84638991874945
Be 8.121370669364225 10.97567839554284 9.148037201461939
Be 10.124469804544706 6.551202864977278 8.6350960341879
Be 9.915353438688634 10.027853607788968 8.899252385714782
Be 7.874755549878883 7.9181067199550315 10.943212831952719
Be 10.415817897083008 7.338672771380421 6.776177699767347
Be 8.618412930307601 6.35357847256154 7.22634997982537
Be 8.840337428070447 9.723247289651171 10.629862873878707
Be 8.523831030285125 10.390694693943354 7.132212973053277
Be 10.345468372976393 9.36539061850109 6.986389119069153
Be 6.92336594626221 9.32510111651015 9.69041462292324
Be 6.6170455419478955 10.358519744106074 7.8913157918284105
Be 8.786639147263068 8.422599564893305 6.009158298004271
Be 8.47929648317761 8.375587616221093 8.268375201278209
Be 7.0997552405011355 7.249664897846035 6.169482912843243
