23
Energy = -60.1764694 eV
Be 9.226906662565673 5.190080027337549 8.314865291774524
Be 10.04487267541245 6.880201053861284 7.532617239748783
Be 10.9223226569457 8.541471395302546 6.748255075306311
Be 9.65451608873044 6.7810860926297645 9.630507939022696
Be 10.993626363172085 8.251725609827725 8.929092590166485
Be 9.812246885764742 8.46288745234595 10.73208302044482
Be 7.887825436784129 6.540867329420551 7.5789175057385485
Be 11.07287171924784 10.147071503354788 7.909290780362016
Be 7.761531704987498 5.961035464563831 9.572496944439749
Be 8.7804327372628 8.086447920815706 6.314674240598624
Be 10.315482407569817 10.167414908989793 9.830407914050886
Be 8.546477627023643 8.40470984206968 8.545893209739523
Be 8.956842412628896 10.621701069109431 8.317272188702228
Be 6.675229935856319 8.214151451483746 7.123804917462413
Be 7.881899980863991 7.701376748466196 10.62410124271896
Be 6.319105223582705 7.297843079040631 9.05919846859434
Be 9.74386346652675 10.096044980636979 6.336157198217473
Be 8.267394898290114 9.77683847995964 10.327590908846156
Be 7.775236147584679 9.920038468208363 6.690188464788736
Be 6.236723828457843 8.932156340162768 10.29413889400877
Be 5.152807290356255 8.898153749088413 8.522602366277543
Be 6.9517842529206915 10.046915447516982 8.666926051011218
Be 5.712721033160943 10.00680652121552 6.948002410904908
