29
Energy = -79.46362033 eV
Be 11.17979303438949 6.362830640994253 12.242753332557134
Be 9.34235010344564 9.986787372592893 9.829854193098162
Be 9.848951102011343 9.101602653938004 7.6750763499735974
Be 7.704264112745194 10.657394504668053 11.235135777969727
Be 8.51351113619932 8.570264456770097 11.20547448444109
Be 8.42584027099642 10.533491092248664 7.938368001570483
Be 9.032327125031983 12.24287749045566 11.126411399204434
Be 7.338467265859199 9.6011663917893 9.544830855065092
Be 12.691401507110259 9.136671001813175 10.549952837842532
Be 11.946685223609917 11.902121565620234 8.820487493212827
Be 8.80494954988192 8.046540022233854 9.194371061000803
Be 10.739594370809877 11.997124523642695 12.180679974544026
Be 11.615333626099575 9.877730846623862 12.42751377590733
Be 10.188674146931904 8.167900237536456 12.620730031994293
Be 10.701485772801565 8.840089624217521 10.751363907072594
Be 8.996910443467847 13.59842170329411 9.443672709608999
Be 8.76016350456878 12.583891310129323 7.662644737585293
Be 9.932741682770073 11.705621743302245 9.208695381463723
Be 10.823809527675488 7.731326315456525 8.943478468842601
Be 11.427157103279491 9.822604522109565 8.826988789806624
Be 7.753450190801344 11.749823817542376 9.435576831513703
Be 10.937887170378048 13.093667668217222 10.338785114853923
Be 9.822385592201853 6.918870490266149 10.733638028849496
Be 11.416473389362753 10.897098615287074 10.602330226529602
Be 10.439541897511841 11.108274293062172 7.326868102002972
Be 12.369854191308644 8.007013568791738 12.303743650922002
Be 9.577831783831499 10.259738673844636 12.069120309205427
Be 12.022940059239913 7.085811975483874 10.540427540325528
Be 10.59902536455325 13.367043126942558 8.174826881910828
