21
Energy = -55.02482941 eV
Be 7.73309069381484 8.987588301356146 6.482976039197296
Be 10.471452851376828 9.298458313704998 9.683742930350194
Be 11.062850974827034 8.905164056819595 7.696974898863906
Be 8.013236545401643 7.469769394615106 11.4876866799596
Be 8.566572065373084 8.611740421366779 8.578501355352838
Be 6.266961286892431 9.075535189198 8.139786464944958
Be 7.023430639749601 10.194481402320013 9.690520961918224
Be 9.593331695351514 7.85898671743126 6.666902669636325
Be 8.91654585711252 6.170557919653468 7.653012064914136
Be 10.80110158348247 10.862769679421662 8.315491286638183
Be 6.038065513191513 7.832349025671646 6.490522326684223
Be 8.598349478253366 9.304680574757555 10.742643909428455
Be 6.997966633242118 6.990285907099327 8.140391555144115
Be 8.98920869554496 10.786854928907049 9.252361278810554
Be 10.368350436535453 7.253528303358483 8.711035226614085
Be 8.442281977258975 6.595565901077054 9.639874505502739
Be 7.800824176306147 6.908201915772906 6.116627139222493
Be 9.872221995482164 7.605543213913171 10.688563843876377
Be 9.429344668187163 10.02275819241676 7.099293359122399
Be 7.5517836090182175 10.695899356586494 7.765619727778469
Be 6.869646651857662 8.14506303285625 9.928495425251372
