22
Energy = -57.87357418 eV
Be 9.299477982497756 9.970068599675775 6.9041257436829655
Be 8.237179418299268 11.298483080740327 7.964700402449218
Be 6.406593083847335 9.649531628559506 10.595152757214098
Be 8.810539597242517 8.810942416239971 8.782563507630806
Be 10.09427413081953 9.370431055200351 10.570983666179938
Be 10.143201089093665 6.639455278066764 7.711221221868197
Be 10.811530763535343 8.52504239088596 7.342897428404181
Be 5.925854107131132 8.908087539714597 8.86080631840935
Be 8.805450423842665 7.96644164512204 6.672365191352703
Be 11.177426255205111 10.581511868997131 7.376222823751473
Be 8.285337303398082 6.035451820527112 7.198255852513143
Be 10.648410744773532 7.638592023283934 9.39752659533267
Be 8.196206281882723 9.181768360980497 11.502759152160964
Be 8.692506074527195 6.586006089633819 9.19319603888716
Be 8.220732266277754 10.669196211977344 10.074916304859125
Be 9.210278473653013 7.521060089036267 10.929659454692079
Be 7.14783482910516 7.5336529342283365 7.974938601962522
Be 7.251404924126387 9.492921336572161 7.225146519341551
Be 6.472746430250001 10.847939994034993 8.844736723932575
Be 7.187020004935078 7.6857283858648895 10.178208038554276
Be 11.605830240783835 9.421072390097931 9.04069280253743
Be 9.940080408500846 10.709282818914962 8.944781893184022
