28
Energy = -75.52459768 eV
Be 9.567368840436151 7.6586407935629195 11.70791057655734
Be 6.411397797780865 7.633429187858012 9.887631297489332
Be 11.884052052160035 8.296156619597829 9.338774653216085
Be 7.655735688583535 11.667221229988868 9.061781542556446
Be 11.608356042392003 10.273726296101357 10.256925900207792
Be 10.859162861340979 10.711669987224408 6.685965984976195
Be 9.092538190061164 9.314182234129381 6.978629886474962
Be 8.63779825507223 7.108463979554822 6.792123414378881
Be 9.367935453180772 11.54703293544129 7.787443469843068
Be 7.087186978275787 8.335640157606125 6.5840506991581425
Be 11.322233540801381 11.691282909747033 8.485470993288951
Be 10.331371720530793 7.723033154642243 7.925610914796548
Be 10.71192480721488 9.725141648664936 8.40411980160635
Be 8.744364756174315 10.06174266073317 9.068926055805724
Be 6.649471395613672 9.850212998665137 9.644612342216499
Be 9.892816181109191 11.55641471446079 9.971839925370734
Be 9.765553125649129 8.49664359641858 9.817867756184807
Be 9.88652077421829 9.877130788209495 11.488075903145507
Be 7.901320310118851 8.688817778190973 10.933313677142241
Be 8.090314930241446 8.242118498735765 8.64702129009947
Be 9.0981622282958 6.152875058057617 8.508851497607758
Be 5.836568809805086 8.529403601075085 8.141861559244019
Be 8.308560652120228 6.723018312411519 10.2598665417825
Be 10.564701881022355 6.659576132995759 9.991913072599077
Be 8.105512481989912 10.740145637327261 10.943077282933443
Be 6.959352052649058 6.6019707970837525 8.117220776653042
Be 11.447125108921801 8.428245834328713 11.25372342079663
Be 7.109317767610624 10.152818869951531 7.600716470362962
