21
Energy = -53.48595286 eV
Be 11.137835191125035 12.670301452238647 8.609776394723186
Be 9.76454841915735 9.520525029325405 7.426687623868569
Be 11.731502639839961 11.313425099741796 9.945643844537337
Be 12.491881678436982 9.461990776991295 9.04289295451916
Be 10.000174268125908 10.542585564424396 11.309195069692413
Be 8.402167677008705 9.62767910816237 9.025584851354548
Be 6.461604787704668 7.146052241140846 9.9946380513457
Be 8.046288771335407 9.815580318254582 11.657063238294601
Be 9.497558714578183 11.398303152398105 8.451091811797596
Be 6.748353140812777 9.226890724490865 10.144348795151107
Be 9.42663093972979 8.459346453953174 10.72511284750872
Be 11.439622809992457 10.732608442901215 7.797381365857793
Be 10.438183273276167 9.777046084787518 9.473176894259588
Be 11.257374108905006 7.828638156196055 9.615434724723642
Be 7.501019742915116 7.906293577912421 8.444317686865512
Be 8.281312460234426 11.249583011845381 10.240715928304322
Be 7.609450694887449 7.812698651963506 11.533457972945133
Be 11.4563712054687 8.469150963182837 7.661383932008236
Be 8.505061891297583 6.749481448026521 9.932153499571267
Be 10.032542722327923 12.37063419248713 10.317711948881747
Be 9.582928002844891 7.73359868958043 8.464643703794183
