25
Energy = -67.87872402 eV
Be 7.995091245715361 7.260929035177229 11.193424407466704
Be 8.426410891342885 11.524199770649323 10.336071511688186
Be 8.7126071543101 8.65748890737689 12.471552184237176
Be 11.381133915755631 10.45092334716056 11.111699792284549
Be 11.545443488505052 10.914114742785358 7.574296305941045
Be 10.122783180355036 7.227851850937988 11.6475352141823
Be 9.361409436002099 10.551242974403351 11.960213057682102
Be 7.516840684539678 8.072415388564044 9.37724550383536
Be 9.451274176259956 10.4241572745569 7.137978108934654
Be 11.812434557142552 8.392669098918539 11.03293719783731
Be 9.738577102125388 13.076875547886603 9.362612351476496
Be 7.681924641564744 9.594947533807172 10.827632826314346
Be 10.016897081581982 10.589242960766995 9.21044382196729
Be 11.00476385491374 8.977923731802461 7.539385938200324
Be 9.693288643141232 8.958145984189821 10.404081428947118
Be 8.46507669281126 12.003859477396208 8.219216036241573
Be 10.305207514362461 12.46609182924859 7.529666199078489
Be 11.982843608983817 9.624750507685677 9.305801426119185
Be 11.613388676950553 11.961856649627295 9.397652982703763
Be 9.19033287782205 6.855650721273342 9.651932470783121
Be 10.314278868584013 12.162045651879284 11.073184011773055
Be 10.687768940173072 9.05199298253412 12.586899105852691
Be 7.904498216568934 10.057616666815786 8.725309776189262
Be 11.017166390384334 7.767112553833537 9.202569020358487
Be 9.195491903283601 8.512828553902269 8.257593063085046
