23
Energy = -60.75896183 eV
Be 12.069169280427506 9.017024555034043 8.5382389914921
Be 6.935106780798617 9.70145758386695 7.787079157910161
Be 6.530413075271805 8.792896884026105 9.71176933121422
Be 9.901211839021043 7.062815981997973 10.300478081759824
Be 9.492262114549902 11.43019751151919 8.806350362214678
Be 9.069838154891928 6.975046061744873 8.370457077960124
Be 8.849926984262718 7.6160274419811955 11.935075360490792
Be 7.070239277776751 7.572525451754582 8.249587180060715
Be 11.021745345452587 10.379839464968747 9.860293174044987
Be 8.899894616513842 10.24930090892679 7.071279393585559
Be 10.91977559926613 10.475251166943314 7.768808029594812
Be 11.138256349509032 7.251172301254394 8.673231048668745
Be 7.88161970311358 9.324024799288383 11.23046717357636
Be 8.135376198177518 12.502339407270767 9.835802795377399
Be 10.013383621637448 9.146820348891383 11.32248454292797
Be 7.263340607145976 10.679174204228868 9.697327112661823
Be 8.22930902630558 8.299030735614721 6.816720997281865
Be 9.141117685483064 10.940912805135532 10.797831113802188
Be 7.817169424025129 7.238303895769656 10.17929807154309
Be 7.650180528212503 11.63193991010974 7.941056807030313
Be 11.600364917421375 8.314417290304151 10.386818563206509
Be 10.228862505530689 8.554647083715574 7.293476707857453
Be 9.011437634876234 9.21113570068108 9.216014225371291
