24
Energy = -61.82930379 eV
Be 6.928369063646974 6.052153105430113 10.782926020225213
Be 11.587812864776195 8.581360329103623 10.089634412452883
Be 9.707227675754766 9.896861218936706 9.718872047624188
Be 8.553980006763274 6.594151261610114 9.64651712234973
Be 9.974298761434392 12.05602770422172 9.835358333057135
Be 9.10796897838484 9.491626540698682 7.6042714022526114
Be 10.068483193655377 7.971414679268916 8.62308270372117
Be 10.687335000006989 9.246787215660198 11.768117440733743
Be 8.14330153225436 11.487977410140644 10.764194943272761
Be 9.867658281156558 7.668961884458151 10.726676212621978
Be 11.421149681882078 9.776902733655689 8.47892238701447
Be 8.069888070192224 10.986625077462564 8.752357137376993
Be 10.894235160151755 8.83039969003378 6.733502962924537
Be 6.874724728696651 10.072534427308648 10.135768631569
Be 6.778492955305502 8.051665779307537 10.778410180725857
Be 8.0871823639391 8.620764357087312 9.256590034733545
Be 8.4769521397433 9.307222420841278 11.45128841689744
Be 8.248383798586588 7.127990155538944 11.872673047287167
Be 11.665708233686527 11.84714712040707 8.634418913992993
Be 9.88185576102352 11.085315772703817 11.635862607156126
Be 9.895908939769333 10.376377232893383 5.876834158411423
Be 11.595799128037445 10.697951204031801 10.46381665257798
Be 11.648026386156697 10.801795901625791 6.684946700249229
Be 9.895971245505716 11.430700728084217 7.745671481281978
