25
Energy = -66.4966144 eV
Be 7.440745349480013 7.883173972464651 5.9713326055643385
Be 8.801392915769108 9.400953325103897 6.250632752856923
Be 7.505209586117768 6.184587277523136 7.137425568569702
Be 6.855992555245805 9.51815502397224 7.1764672964077185
Be 6.049966928062097 7.58239058922236 7.477504865305804
Be 8.066856804929063 11.205131982699724 6.971187608316367
Be 9.285181281307946 7.322210300478749 6.8265895583095
Be 10.075125720776983 10.957131781207647 7.006231164961998
Be 10.610249871489726 8.953768386220462 7.227967751542511
Be 8.876471977545819 6.002619414386416 8.66269369760253
Be 10.752468523187954 10.395767625907895 8.891618098438354
Be 8.58727431975382 8.52653621276658 8.639426283005093
Be 10.596934719569775 7.2190346096048215 8.449650357486714
Be 11.948370862792833 8.717674361026829 8.730303568082098
Be 7.308020572120266 10.673997474803748 8.905951188210919
Be 6.196646982971866 8.8441388693777 9.067140571451212
Be 6.746443160209226 6.4571915004690235 9.098613526749325
Be 9.120612123751313 11.692787009548866 8.686764364481949
Be 9.95743130378813 6.712492113522835 10.296238746529966
Be 10.489033365439738 8.70268736659104 10.122485229330417
Be 9.111379020564728 10.285487476680464 10.239063570478253
Be 8.655510116704104 8.231020871229676 11.033293427563136
Be 6.633515392923494 7.6407369388187005 10.749110985629542
Be 7.199118095041521 9.655111818031223 10.68525619415414
Be 8.056989172454717 6.162154420338987 10.623991740969027
