20
Energy = -48.3192758 eV
Be 9.741985196011434 14.72327805249272 14.203717749593057
Be 11.111573767167139 10.976258597211649 9.711553415546662
Be 9.958250476038826 9.09029918469439 9.852571317794037
Be 10.628330511202002 11.174811062975236 12.691351605747238
Be 9.617654438002974 10.55766340770692 8.141229452246932
Be 12.224577575555115 9.098206688115047 10.054567664831247
Be 9.615711520144204 7.150202862163203 8.840376340286173
Be 11.082150586202713 7.416973713718693 10.466046811557392
Be 8.431866977191934 10.748004224881084 9.75606419045918
Be 9.319635059909272 10.139469740653857 11.514552145111702
Be 11.557769109395993 7.563023803985683 8.555742103481343
Be 11.42077806976127 9.513692663788722 8.175591276972437
Be 10.965776948840528 12.52999127300939 11.098575333758564
Be 8.897871954663085 12.135114622327334 11.417502313627777
Be 12.23401673025044 10.861480160513661 11.462076594500044
Be 9.571630746484027 12.363692907199518 9.498125735467594
Be 8.36541181684607 8.93531678324282 8.49385742550027
Be 11.152671666968146 9.223339062347854 11.757021341978232
Be 10.049048071729427 13.19512324061385 12.81395455311116
Be 9.92520282788675 8.475971998608834 7.36743667867927
