27
Energy = -72.19789842 eV
Be 10.815847920935756 8.68252811067649 9.70607695535788
Be 11.169628369427937 6.787705901164296 10.228384314112372
Be 10.739843876736247 10.650340225924603 9.34228990731377
Be 9.578900068526085 5.960696226370154 9.397744667065616
Be 9.06870906271259 9.727345343183892 10.284881744871415
Be 10.974346561701699 7.200363642548103 8.171036928124794
Be 10.799937583485024 9.244774910021613 7.717785546057938
Be 9.364700677932465 7.68601064274691 10.83899267246403
Be 9.087635422834028 10.488974161575594 8.303154892312646
Be 9.793913773767086 7.827161727723221 6.413632070506863
Be 9.562274746032253 5.973369283566876 7.34719991908731
Be 7.377344309999529 8.46251771361403 10.469342396962272
Be 7.811274816522533 6.453257197456438 10.336879733279465
Be 7.759668280113661 5.823267374865023 8.37010109679395
Be 8.692442855890281 8.157024827579825 8.494549382073364
Be 6.252367876697217 7.112502858708859 9.138246133229387
Be 5.620107125170765 9.008014513640495 9.488745706471857
Be 7.2728365605204965 10.24978534461164 9.277842389978792
Be 9.372422035939449 9.838625741909278 6.395952949209467
Be 7.92760103303538 6.676911467112565 6.354900941068526
Be 7.861634250576645 8.659761217687612 5.637966002246045
Be 7.449579679740788 10.369293385516553 7.054770433846893
Be 6.068302508676658 6.286841113644581 7.253262763459747
Be 5.0970780627298815 8.157850497641665 7.562588188205317
Be 5.581074952250083 10.213053362530397 7.890447447067616
Be 6.084064253517968 7.518007416229083 5.67551256980589
Be 5.898555048315946 9.48856591381269 5.965247238190893
