29
Energy = -79.87873904 eV
Be 9.770253339436378 6.427935246662819 7.008963602057636
Be 10.438836453452346 6.463362604538031 8.976533400844716
Be 7.650120764042906 7.058346610407507 7.133595955764774
Be 8.758525389369904 7.995078053414073 8.781446419213335
Be 12.004592352417907 10.150385599412651 10.357543481209559
Be 9.712810523094744 10.051081216438295 7.05351952417827
Be 6.73197030537132 7.56884048337368 10.464449535627345
Be 10.162254803133749 7.5494904964892005 10.740696373622326
Be 8.500694705958729 6.378554680705768 10.289851016451633
Be 6.409970365251502 8.250792960851367 8.485298025159631
Be 11.427326497459626 8.391588333777435 9.475760038465754
Be 11.927599917135366 11.855471393077504 9.307752765597563
Be 8.452114104747862 10.796934551714797 11.062228865398183
Be 7.06881050457084 11.610627057328115 9.694284320842778
Be 10.26340398385472 9.529771830515955 11.308916234017413
Be 10.250442906066437 11.711055767590993 8.193566622421026
Be 8.418926625248476 8.595603085801747 10.971699596754638
Be 10.45053428945008 11.492762739345121 10.685282298740939
Be 6.956686716390725 6.2655691011536465 8.948937996037488
Be 8.939061782832468 12.345101469354134 9.607561655213514
Be 6.717711189133778 9.634303699138302 10.25521193171557
Be 6.370664655022004 10.32955023527252 8.314733510989063
Be 8.188641916216731 11.347596285606446 7.862702496099911
Be 9.56069306521745 9.914927451919977 9.27822798373972
Be 11.648304135026834 10.092643130768295 8.241144187268274
Be 7.664103848129764 9.293562709652097 7.114115703576544
Be 8.72005834714634 5.457325027558966 8.36689914645059
Be 10.725893871853675 8.239649314683877 7.5604326557908195
Be 9.157897733257917 8.205443454941474 6.2701941510478
