27
Energy = -73.86794968 eV
Be 12.867818376446959 12.99803711146038 9.811613584721156
Be 13.562349758010065 9.752884126442284 10.090877179409718
Be 8.434164063550217 11.925901069770264 12.7468450707597
Be 13.523429430274165 11.529756443189084 11.31862984248818
Be 12.605288633183187 9.903541638892339 8.304751207209033
Be 9.712551089272761 8.116262263110743 9.582793389265088
Be 10.560612168220237 9.87489568700872 8.50556463015057
Be 10.397986125354272 11.439159033419775 11.686579522242054
Be 10.862046218164721 9.601491018179265 13.26439267383757
Be 12.163664813236618 9.628399845758546 11.72790598081233
Be 10.349911410731105 8.207158931351666 11.757066562748129
Be 10.10869250363038 9.84090061266079 10.62493475239609
Be 8.879679945729759 9.825202147908412 12.714343993640414
Be 8.507625168041969 9.740882159925325 9.24265567275611
Be 8.341143246044515 8.670962584681304 11.000477528631519
Be 8.855813014391172 12.830606735399602 10.92368743975715
Be 8.142383621456538 10.862230779450787 10.987762525030826
Be 11.73327637120658 11.02506838854868 10.215508206203957
Be 9.670059928705603 11.581338852988646 9.4471052989875
Be 12.07986935926422 11.395586671816993 12.970517744937508
Be 12.183969284784027 13.022294073928123 11.755024530819133
Be 10.234905528557501 13.163037665952416 12.670000139075313
Be 13.755922492970466 11.432323336543142 8.98994416286318
Be 10.817161239535292 13.118906999248297 10.215716314119998
Be 11.725088380251652 8.67065147369867 9.912746101423636
Be 10.01159086329943 11.386941450065573 13.832272736451875
Be 11.676734696427134 11.893309044191534 8.368165343657544
