23
Energy = -60.42882934 eV
Be 7.749474773180171 11.23694096440127 10.57223698880843
Be 11.694471968833929 8.344966649585617 9.30193244804547
Be 10.329946591355553 10.076104931367134 12.567760032577159
Be 10.117122771522165 9.960892012654442 10.089770629260464
Be 12.697034806583995 10.003721294987315 9.966536955074377
Be 8.105287932409794 8.325042093057036 8.758000217749371
Be 9.183459897817272 12.178213488860006 9.537655723628905
Be 9.977933210899105 9.009828313314419 8.080381831543082
Be 9.845239755635971 7.4876994466292 9.612923219485165
Be 12.032028881404406 11.815911383792708 9.284809809180006
Be 11.87966771468841 10.041291083488558 8.111840845861023
Be 10.839897693841369 12.938789635289655 10.56138969691582
Be 11.651558148809958 11.211887111883367 11.38033764700369
Be 9.509478812113327 11.69960386119955 11.610381921253524
Be 7.065640719966882 9.39097142229904 10.120100455524126
Be 11.340649176593873 7.1020609405130966 10.893205278912529
Be 8.147221675628296 7.801788759636001 10.763470080173905
Be 9.867105401882485 8.16224080858984 11.804688899927772
Be 11.745525140605134 9.03328013887324 11.476536901384033
Be 8.323368612419246 10.434457853043643 8.667908706072852
Be 10.204546769714439 11.149561724152592 8.002059730011531
Be 8.42168056165047 9.746716734979731 11.788265913185695
Be 10.708419851293431 13.107043253543987 8.5251028965112
