28
Energy = -77.34576697 eV
Be 11.66021815638336 11.937007086997921 11.280263804484044
Be 7.90473809746464 10.456518883166007 12.192204045256842
Be 7.961551864130287 8.456770786379218 12.500612010420452
Be 10.865555079726837 11.136048295466725 7.258044051153698
Be 8.958393365021589 10.68384425164541 6.874263071007247
Be 10.059061531073265 7.949663430563557 11.831063479673904
Be 11.790185958779384 11.968190166191215 9.016967572627827
Be 9.76165724224967 11.500548228098696 12.0549484740018
Be 11.98473332244594 9.859206159820642 8.325556476160529
Be 10.03759721501777 12.716538103645085 10.36967606085807
Be 11.288275823438475 7.901424005954902 8.12307827202366
Be 9.546492226561805 9.612856614615033 13.072617786661457
Be 12.60331169296549 10.450826587629503 10.250392878510675
Be 9.31846044745704 11.807850999492045 8.548361777579231
Be 9.81465595869905 9.347622829160569 8.586861352006974
Be 8.360439625828544 11.407193175501373 10.406875379643282
Be 8.230231675005369 8.806584343312817 7.023552430402761
Be 11.181108830990786 9.875053693510871 11.837544385786966
Be 9.159754874629504 9.344799256017582 10.584471247695026
Be 7.12028066782891 9.161887795886125 10.616902648010988
Be 10.37584474427701 9.073231808475791 6.57188784937009
Be 7.927020027686018 8.034005431974485 8.92890629365476
Be 10.473604650373664 10.726220216609233 9.945464954513744
Be 8.213809062063373 7.321112392195337 10.872838156095757
Be 7.870500999752656 10.175777436217952 8.77760730968347
Be 9.86913558957788 7.369422556001532 9.650445601741646
Be 11.370462758489044 8.744343800084252 10.075017131034626
Be 9.438816937355238 7.321350090658429 7.569473925212653
