25
Energy = -65.0976332 eV
Be 6.804418735816125 9.98503192746786 9.961665741708718
Be 13.282188991418895 8.207822597571674 10.221293215411858
Be 9.75865078028719 12.11263693741317 8.918453095478238
Be 8.62005640451095 10.207870990107875 8.89987815364113
Be 13.221695648516015 11.334541892353863 10.46292163701402
Be 14.607188715431104 9.70128510385648 10.235226676114346
Be 11.461615306794544 9.364357096793146 10.632041248793028
Be 10.699283879857296 10.08974849642051 8.421336760202365
Be 10.45715675490559 12.63198371569116 12.45517995346766
Be 7.79498915626754 8.306855415960694 9.321985234972633
Be 7.940169891322477 11.751290655748344 10.166185374172711
Be 9.208974683029528 8.95777254364406 11.066526655466646
Be 9.86324017254076 8.433067572116006 9.22826535238119
Be 8.501602693942234 12.189092103748644 12.240586687072232
Be 13.302670665577065 9.586204991138542 11.718551247666927
Be 9.878810107908878 10.580950164810384 12.580739541447262
Be 9.471659324796276 13.15476063740103 10.726881679691722
Be 11.492701882986877 12.697070630023944 10.641674387815183
Be 7.885436365749799 10.328835999901306 11.760605253330047
Be 11.83494391960489 11.636253867924061 9.012461871975995
Be 12.997807846829964 9.948526063017598 8.86564948827339
Be 10.029982786555854 10.863661727706411 10.513779838341694
Be 7.1748655257059735 8.43162064022528 11.198321664133841
Be 11.838536296629883 8.299118647392211 8.727584104064164
Be 11.88109259660988 11.209378715161778 12.031944270958872
