23
Energy = -60.90214004 eV
Be 9.423918283395388 7.186509239716806 5.983029600565131
Be 7.483081384387394 6.472413714538447 5.874000523849083
Be 9.657106429966694 9.421620550014875 6.198294540565528
Be 7.822070423958792 8.586588031485341 6.241966956323623
Be 8.834546293806813 5.312880861280487 7.043310217345834
Be 6.311312942072689 9.707256575821189 7.03669016162908
Be 10.356183968307368 8.133111804611802 7.6066342262690245
Be 6.1780475234633725 7.506622975782056 7.134886754122971
Be 8.217028350990864 10.638113675421435 7.257304481120527
Be 8.332783506364473 7.082420263578154 7.797127271568305
Be 6.764574232840736 5.5492918952493495 7.632812719352166
Be 10.090156859077101 10.168851108616417 8.070932133251398
Be 8.112231904395525 8.894196866417245 8.435796042242554
Be 5.667644141380379 8.760670979820793 8.720739178007141
Be 9.961884268777997 6.617905891518666 8.978692497256127
Be 6.755373993284492 10.564435557335047 8.86749309059072
Be 8.162802070640344 5.523582185764426 9.14578454176772
Be 6.659481955798505 7.038431045925521 9.283653967955749
Be 8.71306502158514 10.568720292692218 9.572939156593153
Be 7.040915998438975 8.999303650339478 10.277552325123168
Be 10.101553025576399 8.701005820633082 9.552151318390829
Be 8.49290260204975 7.3493317694208375 10.224256698965277
Be 8.887758760874167 9.243159185449517 11.090375538577927
