20
Energy = -48.87514145 eV
Be 13.501175121231496 12.10878541131879 7.600607870022543
Be 12.457731610105295 12.630198823634169 9.227190443305872
Be 11.81827426154996 11.018770140614958 10.434979147027027
Be 9.828846796613773 11.058446376803362 10.976577316670296
Be 10.369831778214984 12.08964775584997 9.245295550203366
Be 10.650784788371263 9.282360122993369 11.39390874689127
Be 11.854848604771814 11.025259416046104 8.16958367193172
Be 8.46796633906811 9.460548744956819 11.967878267668835
Be 10.89945445380926 9.546802971297144 9.244785315885103
Be 8.441440822790094 11.26043623051144 9.39761866359288
Be 7.018066505214687 9.589598005951585 10.092973642079098
Be 8.995267492912367 9.29015612106247 10.028521287462462
Be 9.40892744597666 7.631093735467852 11.903210691674786
Be 9.726502371553638 10.589908664504115 7.817873914926908
Be 7.4179133693365165 7.9125406035775825 11.208457759362334
Be 7.824640646153458 9.732119535878878 8.158937704273741
Be 9.459471533908774 8.529020954748741 8.057407609662796
Be 7.778800748175936 7.774736555312404 9.128148650199119
Be 10.067784327136392 7.591898553842304 9.93757958857132
Be 8.507013181328617 6.3724134738503535 10.503206356810647
