28
Energy = -76.32512008 eV
Be 7.852073239179982 11.168645013912357 14.042432255767201
Be 9.678225676381668 10.39170575278956 14.37650324117387
Be 10.561773228010539 9.771099530998386 12.591855044204651
Be 9.694096431928864 12.279817786055775 13.157786923850521
Be 11.500580691693239 11.23789730646543 13.79820200324664
Be 11.832159158665139 13.20075800756976 13.249829465125854
Be 13.498145768162395 11.825399318396366 13.664947493198213
Be 12.673975157938937 10.184730545548401 12.454212754911351
Be 12.485825961606093 14.257521485586683 11.496197005724628
Be 11.202900233012382 13.340721931329309 10.03438016834238
Be 10.431483374339923 11.471178570223806 9.5825279177889
Be 9.350397148033672 10.46211129425715 11.077349295798522
Be 10.486338201271383 13.917058053843578 11.894601276664114
Be 9.294859200304726 12.629847137573261 10.835012674525144
Be 7.940017504705321 11.642058154098484 12.05643749786936
Be 8.411376068779298 9.704635809900447 12.868420358082107
Be 11.458715118076647 9.946279425104413 10.647212919384897
Be 11.235558264255697 11.821845324555426 11.639710092006363
Be 12.467650469037258 11.548539448325945 9.5696794075581
Be 13.258090342134935 13.442024616569553 9.75196077248155
Be 13.801208674059856 13.877065086356987 13.068073912459305
Be 15.36365211544777 12.610007606272795 13.058379708178823
Be 16.160622600147843 12.088980041725502 11.32158380973342
Be 13.248439937579732 12.229129551306112 11.597146265504318
Be 13.537764796696498 10.16665271109588 10.597324147391827
Be 14.800765188355092 10.800200267744613 12.17766825235164
Be 14.783114608088573 13.724553721358484 11.226952119821156
Be 14.595560106931046 11.848486809490428 9.996633907087222
