25
Energy = -65.09759312 eV
Be 8.50831144419836 12.085588739167108 11.166792049574859
Be 9.827456202402965 11.11220950693634 12.430850612366173
Be 10.456747221125589 12.631466954406092 11.179353411092878
Be 8.155475974403652 10.081580487586951 11.800546298331778
Be 7.874955160449751 10.829437180538084 9.689803259303304
Be 9.583084312693112 12.300828846382121 9.266782144689302
Be 11.503056730801413 10.733794202554243 11.229699158158352
Be 10.106517842760645 9.113474954125913 11.992314733989941
Be 11.695982059690591 12.108059902268987 9.687090109190878
Be 8.332540780707998 8.027267200552906 11.686173134827637
Be 7.108212357735739 9.038766627023634 10.367197606637953
Be 9.950221736321199 9.870783668352018 9.593655391859759
Be 11.038842311089024 11.406328558018517 7.9682727504496045
Be 8.889328044729922 6.112444740199182 11.176122224177158
Be 8.957481196345306 10.792825764690832 7.881483673315363
Be 7.888180152957028 9.027961319494658 8.436571294136797
Be 12.232188427892497 10.12374914818794 9.227230019702594
Be 11.922661965751411 8.76693344464824 10.884541160659154
Be 10.168518550988145 10.709553913222086 6.267361880328473
Be 10.164325888012419 7.581951359471038 10.471375969755055
Be 8.066548694008292 7.347256966456516 9.699223353081171
Be 9.165935901913405 8.980949000327948 6.830028200112498
Be 11.647317575219153 8.065381544198878 9.068318843500508
Be 11.062281956645768 9.339033934417044 7.59026729328497
Be 9.678535943042917 7.797080468658329 8.393653859360564
