31
Energy = -85.00549575 eV
Be 9.875075810189866 14.587420342421831 10.33646508872133
Be 9.003237048654041 12.721856320113986 10.241985570646648
Be 10.218287060877515 7.989813795395081 13.003804263343477
Be 12.133305375771972 8.15031075939457 12.066124233487617
Be 9.2103327367836 13.760266514284792 8.54137424363657
Be 12.967334811432325 9.710890479818385 10.87983930091035
Be 8.658868046596451 7.861587163281605 11.734956971832712
Be 11.199350555179972 12.0614993137236 10.66162366229357
Be 11.659994928207805 8.280113443462993 10.035634066722883
Be 12.135969350560805 13.044968949421476 12.713588946733134
Be 10.684638550351519 11.643502422210437 13.296710713259772
Be 11.82277651185058 14.301882767530577 10.951164253277451
Be 11.40609106711799 9.62507391688453 13.573909350014452
Be 9.568845314326639 8.647291155564824 9.949231373819872
Be 13.36206257321882 9.601785140412192 12.914191459008466
Be 11.509158487414917 10.304269602947349 9.355100634665806
Be 9.499785958257926 10.754625927684689 9.939938332413242
Be 12.672181528949585 11.34239275305599 13.81391456660653
Be 10.769330805650862 9.90344384003018 11.438069234119656
Be 13.18169919629328 13.529209747330365 9.467321186165846
Be 9.33559496356435 9.894254097936201 13.146545399435194
Be 10.4930056303695 7.133584967588869 11.194617105459331
Be 12.263030436505206 12.04117635106203 8.354433870683021
Be 10.246898162249979 11.921297320833967 8.479860995488428
Be 11.225488904622045 13.793241740727968 8.9060746636709
Be 13.723691391771192 11.427192529593933 12.057961960163038
Be 10.15344751438394 13.43173579242888 12.072933106831563
Be 13.466448913418283 11.539316626088498 9.973327214667481
Be 9.241956045517098 11.5465255830901 11.904365450995495
Be 8.341562671279991 9.780283692696454 11.269986934831321
Be 13.636575298482546 13.335212592834075 11.390971495944475
