39
Energy = -110.95525149 eV
Be 12.029894461964634 12.331160958854522 7.498168360009587
Be 10.234565081104545 13.093901057270653 8.072902547617664
Be 11.747312390615022 12.917513047207285 9.50126397281198
Be 10.214604747381216 11.409508959207415 6.708628213346705
Be 9.790474558350855 12.49325513776482 10.112299035252162
Be 12.177390338193051 10.282002449999696 7.2046273392825295
Be 8.511428846935056 11.891523531327822 7.967268192012795
Be 10.144169141132132 10.77197415842723 8.758817312068985
Be 10.698589219634432 11.96283180239534 12.024713937283117
Be 12.997153472178505 11.209197633072195 8.953891341904777
Be 8.59882986004964 9.926252003775963 7.288241597674553
Be 11.682296378830308 11.131553181769593 10.480386154156369
Be 10.477165007668107 9.34896000090851 6.814142780011779
Be 6.899962811477466 10.402506669187954 8.30777888731578
Be 8.674044352709227 11.985206439248373 11.875328155469393
Be 8.002833864941968 11.327625549017235 9.934917035100153
Be 13.499916317676345 9.294111310039167 8.48138710986072
Be 9.786152649092772 10.28834029718709 10.809563706927396
Be 8.305508625820828 9.254696918421931 9.640690482527242
Be 9.556141342800403 10.518350885341007 13.081154544896869
Be 5.631511411378247 8.847480616075124 8.678541571950863
Be 11.885466357864049 8.108444186051736 7.708752109382457
Be 6.292169104040972 9.925865916000852 10.238882137800923
Be 13.003864689946269 7.686982775837646 9.616911537534012
Be 7.837506652252703 10.088554458669982 11.664409435151219
Be 11.346793472529429 9.268438322374328 9.44316792592332
Be 9.69135784871232 8.141563131999279 8.266113971383211
Be 8.111539887454322 7.510912413908587 11.582806733518064
Be 11.4835088354325 9.92982261798596 12.167147939118038
Be 13.164075881677894 9.591600752344611 10.582088484388812
Be 9.952185369848983 8.528768390128144 12.545653008773586
Be 7.484276667220947 8.223313219137887 8.014079165251104
Be 6.389436347722469 8.563551112750353 11.82824084609706
Be 11.796187600193669 8.086009767084409 11.280918314236104
Be 11.101927150476723 7.011488992838501 9.358027589938505
Be 9.836778042690275 8.073580654698159 10.557395124994132
Be 8.485044545277495 7.003142014040863 9.473314251640275
Be 6.611080870272178 7.638659903980016 10.012517644303568
Be 8.050825849212254 8.825934158373904 13.223592190862687
