32
Energy = -88.79669424 eV
Be 6.184747109944081 13.397690639345411 9.548496113154025
Be 11.043817823545824 11.316187316902404 8.751181822252832
Be 13.521886690175332 9.145622712961707 12.37452707162879
Be 11.406415584966378 11.892363360735068 12.655698691374882
Be 9.046787690716949 8.047797295165703 7.44727000511947
Be 11.45965985502229 12.268426553170388 10.625180807046917
Be 9.707800895968635 10.721748503157071 12.5460533005436
Be 7.982136577469614 13.315900718192264 10.671150938611056
Be 9.642958225874455 12.68184546380566 11.679291816807567
Be 11.153557698023056 9.862679315414505 10.80060731773852
Be 9.70010108538975 12.950236903107525 9.530374771982581
Be 8.728752121075026 9.284812392332434 11.291714159656888
Be 11.944796998547325 8.000131759877073 11.773142186409304
Be 11.077242843034794 7.940843022576723 7.615582103961332
Be 9.9018498135515 6.9087922536783095 8.90829329356525
Be 8.200856664722595 8.105177361322191 9.455297046481702
Be 8.094953781827357 9.801935683769013 7.979389994732244
Be 10.220662728364236 9.870296423210108 7.236076045784642
Be 9.185187498810553 11.506300338926426 7.979033506661744
Be 12.897280930124678 11.077993579561587 9.66536805209893
Be 11.732543091255595 7.77945883882713 9.676323476844127
Be 9.968652835447797 7.697138309595435 10.838221628923765
Be 13.225142077408156 9.127454807916616 10.35817956815236
Be 7.9110103055819945 11.389126183138051 11.504182917400499
Be 9.93461826831762 9.27077778278487 9.232154669938264
Be 7.448748251815492 9.997442887245628 9.88619965337153
Be 10.176404084952612 8.682639356267838 12.663145714343601
Be 11.745949328260528 9.8863374456462 13.036663195201852
Be 7.647256074173059 11.918147407096454 9.234024951600949
Be 9.45659207775755 11.030550781510511 10.213246405470983
Be 12.055582586744935 9.533944705094251 8.542521632642114
Be 12.986335584186577 10.980487080721947 11.671694323554316
