38
Energy = -109.05049443 eV
Be 13.326580740949264 9.346781359980797 8.014404632184803
Be 12.886414033177795 11.271716181630858 7.680089180237914
Be 13.03763633309471 10.651772717814335 9.707514686354823
Be 12.903642796346212 8.466880950422324 9.824356087944441
Be 11.645395460598762 9.82793701393504 6.758029346980041
Be 11.957307149169633 7.814561422113392 7.887650820614182
Be 11.97755548564426 12.417992709778199 9.08202177212176
Be 11.228392298439463 9.713625099843913 8.897680091349766
Be 10.762786918440957 11.726211831346443 7.506994672608373
Be 10.227636694232185 8.341490228594072 6.962848016600103
Be 11.782729726740193 6.697889343433883 9.636897708545124
Be 11.819548781364077 7.602124612045537 11.513735828930654
Be 9.284318566649546 8.864230924866098 8.750394720096336
Be 9.437744136540337 10.204039969629923 6.947402014252465
Be 11.982490064684253 9.625621550109475 11.322348085937852
Be 10.058524628819463 6.940521971761361 8.531495951382574
Be 9.892965551101492 12.726311309403801 9.35178739070738
Be 9.945471796803767 7.029771139928477 10.699743041915415
Be 8.678350949222887 12.057552643004795 7.65354665624784
Be 9.867242543687361 9.420830383012483 10.6787657009998
Be 11.068152642586087 11.33886313209919 10.550836731852522
Be 10.454726055135243 10.529247428382384 12.428692661571649
Be 7.531387357510697 10.319016588727665 7.986379295783933
Be 9.451975269852126 10.795638949651057 9.122235545645061
Be 10.186168885937278 8.446951422030446 12.489506090525527
Be 7.978669593237987 8.317234307688482 7.421382779651707
Be 7.712413694903423 11.909292171686918 9.506560405963924
Be 8.066948622477234 7.409377017392379 9.514230291348705
Be 8.991496690581137 11.520405865700097 11.120553867486246
Be 8.347967722327681 8.038313568473809 11.55848240466127
Be 7.872842220155312 9.699373913362882 10.149735235140767
Be 8.47858225286842 9.953669779126749 12.370575528018382
Be 6.048851531296555 10.756373515334007 9.36080781215257
Be 6.453131719366858 8.674286700726128 8.859136532659061
Be 6.826795672627043 11.071047010616136 11.389960464093123
Be 6.621377119346171 9.034616761396732 12.28856422020225
Be 6.4103635620037895 7.669309210355325 10.744922376781437
Be 5.402428640360978 9.436400751642312 10.737820106906556
