34
Energy = -95.75776894 eV
Be 11.388180799252881 11.896150117703577 11.147762764348172
Be 10.429969208066064 9.442519536502493 7.62604955094735
Be 6.328783421707317 10.27261171725566 10.354120470055074
Be 10.40403152150883 8.833781228619305 9.80555527410639
Be 7.037232562367959 10.666198006642283 8.473334136033165
Be 9.850080186970244 7.303475464868322 7.878943095186768
Be 8.370645485858597 12.287996411209235 8.166748908694462
Be 9.879091613735454 12.541481670696074 9.651792368032087
Be 12.440046695538157 9.72228730759481 8.34929107826708
Be 10.27765420595282 11.567399810972617 7.665228017937739
Be 8.55135996826786 10.505018587360992 7.031583287450335
Be 11.670384516999452 9.728793968269354 11.616783446475347
Be 8.86901834252202 8.452101058508173 6.434441944064447
Be 12.945592362078278 10.511748102712248 10.313517783911285
Be 6.471443710216957 8.604904606427851 9.079879797487337
Be 11.086830477662655 6.747493024718123 9.711124994888113
Be 9.199059540165669 5.94812188932519 9.202443034299314
Be 7.739213589778139 7.084671933715115 7.706113239867864
Be 7.699417367317169 7.126831959238655 9.781190099844798
Be 9.83431464954639 10.54489150677314 11.126344829797715
Be 11.334536001179938 7.650184724962812 11.576074572454205
Be 7.839616435267095 10.610334502526939 11.722564433096437
Be 11.785635786826973 7.835274824672934 8.099732872841775
Be 12.553138543773322 8.421442285172905 9.998556093454566
Be 6.996157744040022 9.034175654023693 7.044990803145172
Be 9.063461888032304 10.603744775270306 9.242288547339205
Be 8.478558059079706 8.972079619530776 10.589483674951621
Be 9.760091884218836 8.766960866591102 12.167366486364568
Be 8.512177006321059 8.847303404916705 8.517949827122298
Be 11.137421343353946 10.822621507098798 9.396993373962122
Be 9.122767567804916 12.417490945033881 11.503660493694642
Be 7.6172688401196265 11.999764464152342 10.139992302670215
Be 6.716126299107381 8.453316882964842 11.21914090852837
Be 9.415290547677817 6.981417364522459 11.089830972872855
