31
Energy = -87.31451242 eV
Be 9.339139415092657 11.213364360440618 7.115536550686381
Be 11.389098661774744 10.679939349688988 7.320381851192094
Be 11.190045889381691 7.726142879894458 9.413088376904632
Be 8.19994049756747 9.65183540364083 10.366964033809792
Be 9.696760715523125 9.369768623756672 8.546339043252217
Be 5.147075577245687 10.122356941112239 7.647783538510748
Be 7.635104125916051 9.15323389029511 8.380070896098882
Be 10.065239356927918 8.844619890416958 10.720693182641885
Be 6.284527968421492 10.413608294930686 9.341536208862982
Be 10.374299368084761 7.359827903882147 7.564612070403231
Be 8.545971189007757 8.009861978002853 6.855742377414473
Be 10.151492752212185 6.802986489881748 10.951285128527346
Be 8.786686096198363 7.601510820281638 9.18706121190681
Be 8.476911520191912 5.73181601149655 10.788836231204582
Be 6.930668859697549 7.014294566236763 7.878215298855538
Be 6.753254734042102 6.62212316874984 9.95156226070759
Be 5.491848514527208 8.34357376124857 8.63626763202488
Be 9.807781715837322 10.89256415602769 10.44292447565094
Be 11.580272497408227 10.023313006907006 9.475570719271312
Be 6.422267005067634 8.811825634547933 6.703576918395567
Be 8.214651414415147 7.727820189987983 11.342361155390995
Be 8.777639877560912 6.0401672981495675 7.320828713303414
Be 7.906678254289835 5.262120115599659 8.892507596504752
Be 6.981208459086279 11.03191542966546 7.316135115829089
Be 8.182033935008045 9.873421269232928 6.178196847682248
Be 10.22724172979063 9.240680838136107 6.363869139558691
Be 11.844745397283502 8.790420487290163 7.757781384761538
Be 6.5168534097521675 8.564213674373777 10.343847727748821
Be 9.993419843912244 5.747543874548032 9.112444896917523
Be 8.292926986728542 11.26433771448303 8.951871679480524
Be 10.458700150877894 11.733277895925196 8.79659365533263
