33
Energy = -90.49087322 eV
Be 13.421836474664323 8.761747281410061 7.516893238903415
Be 9.405681166485957 10.311753343035697 10.514061283678842
Be 11.384949822245066 10.88983299677137 10.967184277506579
Be 10.906378955187249 9.742187131214594 9.097076148617553
Be 10.647870879204984 12.12392599230349 9.647082284571471
Be 8.356920204830965 9.391113964213297 8.554762381700803
Be 10.88902596732618 10.10545687389372 12.701712970359104
Be 7.370353444712256 9.732365730948054 13.015287547463124
Be 9.277154792591348 7.583591115307342 11.051552268755042
Be 9.196475256231965 11.335923794245062 8.425414917068233
Be 7.8829630003215305 13.110179563715967 12.070007144712545
Be 12.686686237243464 11.423291679313763 9.477364170408546
Be 7.636568372689051 11.113791761917545 11.59824112818775
Be 11.451816219470526 8.056148964959437 7.5301142867888835
Be 9.939510357665686 9.847132382910546 7.112070844393553
Be 8.6684706709464 12.43449618980325 10.219405059542309
Be 7.660769693306115 9.02144005553119 10.814947150989704
Be 13.351168961534123 10.86857458791486 7.5909916504282
Be 8.903053707160375 12.855891359072496 13.76033315300866
Be 9.827413443446293 12.035793250931773 11.967458792709406
Be 9.433464508308084 7.925405938043578 7.580419369904811
Be 7.483825297537554 10.873610007223416 9.604272576370773
Be 12.923797255583771 9.685994070674168 10.910079598239005
Be 14.01470343387787 9.805118433814163 9.18030661410875
Be 11.315739252776144 11.485613169985895 7.701768583592267
Be 11.932419516644762 9.787014300285353 6.534368419302764
Be 8.34726922499895 7.512864940868925 9.310677031051245
Be 10.99655505660568 8.732109254510279 11.096600917870767
Be 10.470340278495858 7.43776378625687 9.314724730497797
Be 7.228775073112097 11.817109241682253 13.526865082647179
Be 9.065081548316012 10.774933409498647 13.578449960616787
Be 12.518320000282943 8.21693371177531 9.389124287743645
Be 9.20455543995944 9.000805229730508 12.440295642023505
