32
Energy = -89.04132232 eV
Be 7.358221127068859 11.51994981255887 9.100623925752316
Be 8.756081326947841 9.300218059552263 11.75443828401991
Be 10.215896139526864 6.261900205954705 10.6660824123743
Be 8.043491709437331 6.3111161091127155 9.921087905473797
Be 10.07360683712054 11.165327508857347 7.173684143383297
Be 10.461359209896987 8.014946686745835 11.983930311605187
Be 11.246508627135881 6.4739271854421565 8.862088629045628
Be 8.26890721349439 8.128705841081244 8.425331098696304
Be 6.248216688035727 7.824520838338049 7.104582598019403
Be 11.158162582585677 8.367181052512016 8.24645896874573
Be 9.441667273499737 5.609700764115346 8.700663153497468
Be 8.089942601267792 8.154893755086778 6.26753230430842
Be 7.9582926097437054 9.768411768144475 9.934497371740127
Be 10.682535374392268 9.900947180127838 11.029414196735036
Be 8.109511070448196 10.085389856171673 7.862497097021851
Be 9.883780395041207 9.080879829108378 6.827739724807702
Be 6.3304087705757315 7.040936006398022 8.989945515396213
Be 6.349990877727677 9.178532134006689 8.677907428395024
Be 11.995158932374041 9.863436707716245 9.455394766650295
Be 11.658220196038505 7.985448742391325 10.29360284980505
Be 9.079978098331813 11.334584140364816 10.618464986651173
Be 9.82524515584031 7.018625112435401 7.231641209945541
Be 10.906308062845461 11.645493063602993 9.672543818787723
Be 8.60665439160286 7.163071833749967 11.777942607606498
Be 9.17865601820903 12.265238735956606 8.72355097962834
Be 7.184277869086546 8.073039676488454 10.574725875467216
Be 8.053644648859338 11.904680238006852 7.001800554903912
Be 8.611389404216027 10.265636162550607 5.802049362956894
Be 7.746518945512551 6.308429981810836 7.577372853487122
Be 9.907082456638523 9.976533942066641 8.89661044721017
Be 9.531935810166758 8.174810693010738 9.989555835290899
Be 6.677702335504518 9.771636516464337 6.51640705546908
