35
Energy = -98.21829407 eV
Be 12.011775515030326 10.276416484611769 7.008725728886533
Be 12.070405598800729 10.579829884036798 11.05955205447356
Be 8.913810588998846 11.268075835588984 12.756819418798283
Be 8.938230439929303 12.14315549562332 9.127988990123297
Be 7.037621703379289 11.130459330890806 8.719485528779732
Be 7.831500809189 11.273502268531843 10.662309095901627
Be 10.81340216646663 9.787486066484771 12.963891152267042
Be 8.731517582847346 9.293299785152985 13.266588857737528
Be 9.768293163509883 7.953312070056601 8.084011003439196
Be 10.886006651709984 11.938234040691842 9.986795775079411
Be 8.032084617657414 8.341101708286205 11.368525068053993
Be 9.933879496071379 8.014269669998287 12.262043706848274
Be 11.762129712419014 7.65702040586008 9.101855524769656
Be 7.814633615309093 7.923228876803301 9.191341045135179
Be 9.710568381752049 8.02236597058248 10.116037300665706
Be 12.585704682877603 10.876282190323256 13.094682980815056
Be 8.63121128837512 11.225138058195187 7.245043843814337
Be 11.552000718760496 8.290666502732758 7.076113521364238
Be 10.94472537148619 9.623939516200393 9.20366291050237
Be 12.613623123688182 10.881622558232607 8.946520501777812
Be 10.004774465589847 9.72728258107294 6.890638190095366
Be 10.629001521272789 11.491158379421995 7.965989779308901
Be 9.736942584818236 10.104167834113808 11.037458821095054
Be 6.8539173456703395 10.3942420710586 6.732021577507895
Be 13.13200210722064 9.083148407509098 10.113111923995879
Be 7.222753607910618 10.115796330787967 12.250151812502585
Be 6.768181035210158 9.546095953422848 10.191729156038518
Be 6.41250326269699 9.124478364873466 8.238059171737735
Be 9.299469667543333 12.56812935611633 11.184849030859018
Be 11.425360648199698 8.539717025320233 11.007606568742121
Be 10.883741134024376 11.862119107627747 12.208063763256803
Be 12.698110656703928 8.983179252761005 12.424449450445472
Be 8.105933750297694 8.843240507159901 7.128780828000716
Be 13.157484447682544 8.988811934580498 8.10205615204789
Be 8.827531000184717 9.869858638573218 9.023872228417003
