37
Energy = -105.68260644 eV
Be 8.37439630930064 8.257230341084606 12.213185611676906
Be 7.734187567702623 8.045858088499621 10.266859869952505
Be 6.360760062977012 6.950108459343121 9.281921719104036
Be 7.476939110711145 6.118197635993132 7.78070922184495
Be 8.423910306067983 6.172879843337284 9.707118643956788
Be 9.785500048913214 7.317582603070655 10.947807255532755
Be 9.399935624515322 5.185874058095972 8.152940829984667
Be 10.407951031025608 8.72749491411344 12.303160893855463
Be 7.331694741156228 9.912587311777983 11.187699344611323
Be 5.974758998329853 9.059135531694396 9.73644227776804
Be 8.900991741095115 10.222665988578758 12.495602010531952
Be 5.885630440605489 8.319517019325733 7.799411342067208
Be 10.753211699311384 5.9210997200566045 9.600057823490676
Be 9.326694660730016 9.34164429420779 10.301506537208834
Be 8.009425125172397 8.175384491602383 8.158607212227452
Be 7.317326995137656 7.6751556467414215 6.3342281900190835
Be 6.6741271453967475 11.5228662393591 9.724028209312673
Be 5.62651542027376 10.424554923778162 8.212142792497772
Be 7.036132412904867 11.73789716319981 7.624978092076616
Be 10.667132556237704 10.575063545502564 11.470134903550354
Be 9.882429887453661 7.708013320273163 8.895769673907678
Be 9.25769360863402 6.849728365199313 6.828363752446053
Be 7.12276955166058 9.77240132034938 6.822222669182526
Be 7.7860094757996485 10.016213999384371 9.03782353846378
Be 11.341936971976185 8.978284979085293 10.15308606531453
Be 11.118299562120203 6.160472490916473 7.61462424947992
Be 8.768501108455377 11.365030447295627 10.62991540551018
Be 9.706420886827598 9.684805023137189 8.15790737291342
Be 9.038383379879756 8.920102887304106 6.282290278202087
Be 12.052900347933447 7.612421833092634 8.729190780299437
Be 10.59561651547613 11.033053174748078 9.506113359519643
Be 10.97822334501811 8.14602536617381 6.9565782651239365
Be 8.84167456294602 11.084477987976726 6.6307637154227566
Be 11.876294605307667 9.724447188628858 8.192961349306131
Be 8.851075591077144 11.91066762715074 8.6136944466961
Be 10.806401108440452 10.11056763695077 6.298150104063407
Be 10.681322269136894 11.618524862317889 7.563266221072613
