31
Energy = -86.70747432 eV
Be 7.145104637735214 11.394372478089707 8.431307777961885
Be 6.241859433518756 7.453469797977991 8.286109625687295
Be 9.266901328178546 11.264582403661192 8.511334296575471
Be 8.964091602162489 6.959405997811204 6.023189130442879
Be 11.524332058897189 10.743449227863843 8.878867653045944
Be 6.983191460960727 10.025085035535955 11.429188157990417
Be 10.26330797592108 9.989610187175614 7.1655907123504585
Be 10.962091936670344 8.418639981440304 11.313026855785374
Be 5.9479399687310135 10.595311278087689 9.802629463776054
Be 9.208167313177375 9.815757635138096 11.393029227754283
Be 7.676394737461343 8.155948071567853 11.47977943988851
Be 11.084601969020888 7.294887782713407 9.409106307477698
Be 10.106169206519565 9.416222622502328 9.408027586309647
Be 8.006084751249006 6.274036271361705 7.731771474947132
Be 8.947387367440431 8.988021843684233 5.7078688987198705
Be 9.288379477155859 7.77236796094944 10.375750064347873
Be 6.156217714130101 9.517575157440355 8.037328067884992
Be 10.690994440940704 8.117209065945666 6.192614453130295
Be 7.303630398592609 8.122214375692602 6.676267028046872
Be 9.161615030130644 8.145167968455315 8.09314293944159
Be 11.643473674868755 8.646102415556015 7.952943241182259
Be 8.140996788094709 9.983576956584514 7.309703505289866
Be 12.342837273585411 8.96243470256044 9.888654156808416
Be 9.370941672047973 6.053170206536623 9.28715180230619
Be 7.983556438621331 9.31577499998115 9.438462716208408
Be 6.0365876046954785 8.52529270213751 10.140222119394416
Be 8.041709162984024 11.402703542345613 10.316439214749913
Be 11.512315207447848 10.336816022669458 11.139075438718274
Be 7.517944616289641 6.939550488277332 9.755201403335368
Be 10.41341305398532 6.484273543113358 7.5338219906264925
Be 10.123387369956244 11.518281423261813 10.336714070487455
