33
Energy = -92.8253414 eV
Be 8.882409826549697 11.351064714662982 8.325297204502286
Be 11.993938961110345 11.753134700481093 11.631145159429622
Be 13.223268027261303 10.098948475256647 11.482534004188494
Be 11.289370127406327 9.931203374357677 10.550398638270027
Be 9.986249713040259 8.04514152517971 12.500708195115942
Be 9.30373202020166 9.391012600648551 9.164967020871927
Be 11.279883460871687 12.655410665006961 9.893476094622159
Be 9.780835782412298 9.771776006013122 7.150359303518905
Be 7.754213488979554 10.761023521487807 10.160423291069305
Be 7.979304748483994 10.535312055539281 12.300773245049152
Be 10.343873835890328 11.578630581982388 6.507827334182966
Be 12.809385997221442 8.84856187707676 9.830315382976252
Be 11.263660705744275 8.78885002941108 8.430044460776065
Be 13.008920900701082 9.957261354459334 8.082249477317898
Be 10.522854682568893 10.641066717700477 14.649943175663816
Be 9.084251499657329 11.8016318961065 13.512801516912933
Be 11.071307178332335 8.796354436792463 14.017037923691971
Be 10.55817867431816 8.024295453068246 10.38674194929134
Be 10.163345091104013 12.794226885972122 11.787200842403763
Be 9.699509316306232 11.161603224173607 10.47537121043618
Be 11.16695503574954 12.188009710151787 13.492586399928257
Be 9.067575862467665 9.492383958693988 13.787415369530155
Be 10.918121804144103 10.854808220170582 8.712675670779612
Be 8.880804008205637 9.157336619992304 11.15093804013626
Be 12.85711458370936 11.156220312393792 9.704335840641535
Be 12.241240439543368 10.346234874186173 13.339098143425147
Be 12.257170241701528 11.912829764522392 7.59123014429123
Be 11.942157466387528 8.565561855545633 12.088629626955722
Be 9.095350703576921 12.92016360790955 9.709258939316715
Be 10.295334626966898 10.407471808708694 12.34237248018316
Be 8.180817766796094 12.335377124033942 11.601608891011242
Be 10.354330912485704 12.872721673187423 8.051629831300966
Be 11.70135659245325 10.061194457475887 6.545429274558273
