36
Energy = -102.02568549 eV
Be 6.018027620363727 9.514264412843215 9.726595374229515
Be 9.203135352671145 7.537704348481209 10.222599471653504
Be 7.464745262961759 6.279605670033255 10.745031341092838
Be 7.941795297242922 8.84332155837578 8.922523640339023
Be 9.174818598977218 5.189258835094435 9.97295180764313
Be 9.368473365224151 5.667319464933138 11.88563863799176
Be 11.12340615657833 9.376765755562062 11.214763405551395
Be 8.120093265320035 6.4882571844726415 8.719997034704916
Be 10.910947710125056 11.504407725193401 8.650327459519639
Be 9.267446167568805 7.8794157373217315 7.5852922143271915
Be 11.50048959646417 8.22241813898034 7.9261590843457315
Be 10.988072323934922 5.914251145873987 10.64977821120665
Be 8.95089925227211 10.545379016490946 8.063007408963221
Be 10.223407943178534 9.47609600028231 6.588747220686127
Be 12.022503819865655 10.185292910624941 7.451083072753188
Be 10.515223375378422 7.536508342711826 11.969323623194633
Be 10.759351063839125 11.475659587390801 6.492359917444771
Be 7.229686538032184 8.38244324984206 10.946477784308303
Be 6.813870357229009 11.076937222997305 8.614883136867313
Be 7.6546179103276355 12.552611805544638 7.391169698824684
Be 6.7347401328258645 10.93974314686016 6.573039655432931
Be 10.072344711442645 9.175542818152753 9.221343560045815
Be 9.654542163114625 12.782625697746854 7.505323129881565
Be 12.059672816458136 9.837104817502349 9.440951643371827
Be 10.393737068708727 6.55352750813353 8.734296325026984
Be 7.970194985042084 9.30030474322079 6.599010613353744
Be 8.672269508672796 12.264048281334873 9.251322370721095
Be 8.43750371383466 7.406668537822021 12.293400497520302
Be 9.111395963069457 9.295577555183435 11.568816217916886
Be 6.08101984686767 9.218282715660184 7.701493684342426
Be 9.919636142753005 10.95940561486933 10.440409232656137
Be 11.630638016227936 7.797413394577656 10.05128503353395
Be 6.289022792571679 7.493499252214071 9.21028805060092
Be 8.750067075787115 11.302051283752839 6.0417031069991705
Be 7.860283880479285 10.501640847794976 10.361948524120317
Be 7.114691902166871 7.527417369702993 7.269430506406541
