32
Energy = -89.74169056 eV
Be 8.722406744554274 6.656574107350941 10.823474819445272
Be 10.84973245857718 6.654807942324573 11.072978693998682
Be 10.082069631264323 6.047265687682519 9.324764953838685
Be 9.715274751855533 7.946080213849499 12.191925727295661
Be 11.425930304670578 8.672416518523676 11.264676239517712
Be 7.367797184055921 8.135926080596297 10.000482811960547
Be 8.33069570068854 6.969566357932184 8.65624066373368
Be 11.642454964317398 7.645486819600916 9.320570502191924
Be 9.613035785528908 8.310656489509276 9.91139263535057
Be 9.973807991750887 10.051057095040754 12.390835131701174
Be 8.226932361563788 9.193557119792892 11.483209001523042
Be 10.2186361730463 7.2827571573370795 7.639583208622997
Be 6.956119424974531 8.730257165708128 8.109064120277965
Be 6.400828795967619 10.020427169740389 9.989834239522978
Be 12.079616852046547 9.805485450799742 9.580142984530692
Be 11.922227853140829 10.699745059006641 11.541207199715283
Be 10.135631494204768 10.236718559517373 10.37426541283558
Be 11.327360324729463 9.106810954713726 7.6921909742061905
Be 11.567042025021808 11.921165605367156 9.982311838262707
Be 8.379023821832991 11.283744130394664 11.343927917224871
Be 10.516666483870665 10.945121818968232 8.441309157954061
Be 8.2441758395842 7.750506315596621 6.740653106044648
Be 10.342660603362935 12.09821172012688 11.599017538244171
Be 6.624363687920793 10.74885101606107 8.02860106825993
Be 9.213659934612435 9.174514871245766 8.036955614352415
Be 7.300753126556962 11.960429727641653 9.553256396268488
Be 9.907474074440291 8.70296802990385 6.054121910958504
Be 7.907990697900522 9.904449263512003 6.497394749738559
Be 9.400288966268398 12.239059791891638 9.706429123141273
Be 8.325585927917627 10.126572394899629 9.543862435037358
Be 9.929491149216119 10.638910112691347 6.505759754296727
Be 8.555436777840578 11.545071165956914 7.804731983230553
