30
Energy = -80.68969127 eV
Be 13.267377631417759 8.429560126050944 9.112369563809121
Be 8.156537557216677 8.302909571723198 11.731631978657385
Be 11.559640128493303 12.540880829486998 12.39016615696108
Be 9.767523191663289 11.617202191911181 11.364560065691904
Be 13.532476915967742 9.831855401639787 10.762908752888203
Be 15.183261437720889 9.35982163495196 9.384480820764258
Be 8.070954827221557 12.194841332538479 13.087923362509901
Be 8.275013348133458 10.267577493454414 12.482860707361098
Be 6.918551411138613 9.830391940877181 11.05594404870339
Be 14.669464243400615 11.278679777833768 9.58486168989657
Be 12.629562322125503 11.236466606900983 9.136718402184673
Be 11.48558328882676 12.583323016919428 10.252941409931605
Be 9.87386531606929 9.4816364217314 11.415039694527316
Be 8.405803507692099 13.677212722705718 11.716904240689917
Be 8.524682902403544 10.519159209873845 9.839863010469692
Be 11.644029168661529 8.826530028706006 10.496845278568927
Be 13.23331051105215 11.91492228236134 11.07737207867102
Be 9.717706985036573 7.642771248797872 10.427801201057747
Be 7.569647344177984 11.865958022949354 11.06940383523188
Be 11.816229289966083 9.568043441537009 8.162206282282844
Be 9.751203961169622 9.051579798163027 8.898536389967955
Be 10.604740712678886 10.820240969848758 9.512038365906818
Be 13.949202691266507 10.074026231733216 8.005194492053555
Be 7.897645113531712 8.482695287914092 9.774217063349505
Be 9.809982181022022 13.275985801537374 13.203335337710211
Be 10.072018351209392 11.171125147620648 13.291347340409416
Be 11.682379156700295 10.633249920861692 11.582725017421872
Be 9.215963488828194 12.837515620133496 9.901090318410825
Be 11.261581984760477 7.700496737266368 8.886394079269175
Be 10.398237205015105 13.927517356538692 11.336495189209938
