38
Energy = -101.74462954 eV
Be 16.432208538974034 17.279687814317704 15.27315530203907
Be 17.121209722696122 13.690055345211158 11.18348932918427
Be 16.31767125201448 16.28851226212019 12.371046118699303
Be 14.338956963471615 17.841828417651428 15.575274128397083
Be 15.150948125960538 15.643055455435471 18.086551165409915
Be 14.699664722353928 15.74161950411796 15.511044333027588
Be 15.11637573465521 17.058110505407292 13.771275750928844
Be 18.309246154793318 8.830769622600368 17.603926288200668
Be 15.82023411457794 17.38225020873591 17.19259219427098
Be 12.165780648323175 15.85642747337595 12.477703365614785
Be 11.790516029676876 13.909418644265362 12.94302674881091
Be 20.28425809339769 8.676739795344895 17.951261027107865
Be 13.827807790071054 17.096180142392424 17.44566663590471
Be 15.088092476348008 13.304942222868647 11.661242979841397
Be 15.384447799818078 15.186327181565069 10.84129545386732
Be 17.45701414572895 15.555902336727032 10.71026283380357
Be 12.535730884172457 16.37067990111542 15.98926012412922
Be 15.575702842519403 13.799394472341703 15.083229608087311
Be 13.277362419908457 14.234944791742235 15.089342654762717
Be 13.203029137208715 12.698160968248663 12.221293069998172
Be 14.611405207739946 14.886102644316415 13.441214665666019
Be 15.016895089336556 13.900435441520528 17.028684234754685
Be 11.959293917980355 12.278855627331458 16.153043832055022
Be 13.26262856697211 15.10485338694278 17.48491453034602
Be 10.930480851835695 13.405204291168953 14.785391384802569
Be 16.49570482227232 13.593240988589887 13.205476099261531
Be 11.428223179019547 15.377554149885484 14.464942653292669
Be 16.54067371640488 15.434759205262505 16.499659052496234
Be 14.071046401877956 12.308179230323887 15.800629004451302
Be 11.552897133722674 14.368816598578153 16.513624520741175
Be 16.637584261465467 15.470720674407834 14.286523497838004
Be 12.579413237523122 12.295718604804433 14.16288605350378
Be 13.182798013181023 16.562653102644855 14.07892331859298
Be 13.120232997510437 13.114584193897917 17.515287747668527
Be 14.138309727840532 16.476522011399453 12.006339648336494
Be 14.650874252962677 12.610699774074416 13.71440678079779
Be 13.365712163266416 14.594083674233318 11.382842506637516
Be 17.96209210067907 14.91896814282455 12.598620633609375
