39
Energy = -109.96882432 eV
Be 12.94877797432674 16.07053198886343 14.405321087899821
Be 12.76601656026694 16.611180738065702 17.885413542789006
Be 14.87895583645674 14.839108809752613 14.307426532334397
Be 17.981153993737056 11.148643813942881 13.082590646032449
Be 14.825499300876618 12.70125604712106 13.950885371848726
Be 18.58117911681893 12.892704796163938 13.886529555521182
Be 18.47117495257928 12.676068629240149 11.840784069571852
Be 12.449181790269256 14.514543856908015 17.22498590681301
Be 15.252622035706322 18.758526682545543 16.231791132403377
Be 11.843764784934097 14.459073986620583 15.182775043331581
Be 16.83417873344818 17.557570904104267 15.38905429447113
Be 16.24915824038216 12.203868843106896 12.425499450608937
Be 16.05693344497363 14.855020960269114 17.584421230952657
Be 14.833675385635917 17.00435037324498 14.827540891653056
Be 16.470452346015232 15.648897257410624 12.27117766367006
Be 15.442167045381531 18.845214605461923 18.413615440441184
Be 13.19275672584861 14.110297450598747 13.530386492460023
Be 17.501815010971857 16.35396249846001 16.972986590547908
Be 14.278999012474149 15.403366364874957 18.47760702937812
Be 13.591899914527687 18.619252231837425 17.688609814777124
Be 14.40742692949187 13.598387963107417 17.426155475107905
Be 14.311811483471748 17.353158966510616 19.1530623230981
Be 17.054695887385204 18.290701459021207 17.309801988242658
Be 16.869187182800253 13.80229976790388 11.31575723709516
Be 13.502548541422696 13.346837693188911 15.532053058750108
Be 16.683664446023997 11.949300274207996 14.460923980650582
Be 16.34723839547985 16.78352138358732 18.711529416024167
Be 16.26833089901349 15.46692354116362 15.643267642907393
Be 18.28866994628399 14.595600164972726 12.573501730254481
Be 14.44951373756175 16.14992885643171 12.810493446725468
Be 13.24206048542772 17.56362187540418 15.985473928944067
Be 14.091729374006382 15.36170600401373 16.1672041829542
Be 11.728291718531638 16.221866506585183 16.157967937712865
Be 15.149452831404833 16.866039543141692 17.000465829567943
Be 16.76951096664246 13.96134858825006 13.918243088360741
Be 16.165139936907448 17.35573800927187 13.349839725912481
Be 15.696011178191483 13.439628239735505 15.795729286108852
Be 17.598863890302855 15.994448623102405 14.127366166272905
Be 15.065152713942243 14.023485889151585 12.311820766816192
