36
Energy = -102.09158785 eV
Be 5.921462279431816 8.249431702651249 10.175574750100328
Be 5.777976593778807 7.410179529666517 8.167652626574178
Be 7.380433117048329 6.9608333055025895 11.1264143093952
Be 6.415595218230788 6.111486398972876 9.56238922281015
Be 6.286719390018395 10.448961850835254 10.468492770275228
Be 7.743131519862588 9.033889075736772 11.10499089666601
Be 6.04111652132313 9.4248383955148 8.398580548351042
Be 8.731940863795346 10.894688077509622 11.040895102203393
Be 7.768928073189556 8.059873559296248 9.139313610349179
Be 8.427491528824984 5.829757162583754 9.723390288044925
Be 9.47619573032088 7.3975731725435345 10.65527818518433
Be 7.548811673065076 6.371055433237793 7.7201317250572545
Be 7.812920432240209 10.218599860927348 9.144755425466307
Be 7.29944911827729 10.473404638818216 7.009254816988328
Be 11.016444678012832 6.492344700160969 9.568387764537132
Be 9.428189093628362 6.934027393867485 8.344179999583535
Be 7.212578128533662 8.321978629014902 6.856300512216565
Be 6.194085188076752 11.55754162517749 8.578446353437165
Be 10.83268045065333 8.433010454480195 8.711878705674339
Be 11.402532418414935 8.351350873413626 10.725024817062065
Be 9.21868430861776 7.489893807575045 6.403373210686133
Be 7.996168777193981 12.265368091165444 7.887242366207624
Be 9.815270290848005 9.217965998301201 11.826087879479058
Be 7.551227614661275 12.21927891153396 9.928102509047205
Be 11.30526001145699 7.077062919272889 7.28399434984594
Be 8.706620755090487 9.448975175811775 5.809772907762376
Be 12.726938775356668 7.5256186888192085 9.018855513917241
Be 9.011437922613451 9.123480681011518 7.8276906643120805
Be 9.47310120286282 9.362998163077954 9.839296993794997
Be 10.688477141133015 9.065618881627477 6.58580526536466
Be 9.494929684885639 11.022513830109723 7.01019452197123
Be 12.647700916573548 9.530878381104726 9.482821411489788
Be 12.587927065378492 8.883533733019394 7.520397276300967
Be 9.536657886303205 11.555383971365043 9.171728076210155
Be 11.11693426610779 10.471045244414535 8.271974152976593
Be 11.036081851276048 10.488387197079454 10.496650227558154
