36
Energy = -103.22946714 eV
Be 9.932272408791542 10.303454308031355 7.8469769444148225
Be 6.653254514485653 9.292078160679404 7.19597601833453
Be 11.575767717817351 7.382223328065483 8.673154243358608
Be 8.74387309755159 7.862693833125772 13.397215450294803
Be 7.922624143820991 9.795138768406476 12.556897858776283
Be 6.159780533724679 8.472488974663928 8.952528461676168
Be 10.595834504776642 9.056250217196105 9.370621513842416
Be 9.505858080025824 7.1742923350376255 9.32073651020176
Be 11.076682343000362 7.447242326380642 10.710486924567393
Be 7.334908132075945 7.839529595543025 11.976178592796948
Be 6.730506703462478 9.346052366869316 10.731285686416271
Be 10.793232693242597 12.133600935173495 8.697662449240145
Be 9.526797178535931 12.290514295937538 7.032365173886145
Be 12.556244293052906 8.943399936830096 9.856579240245567
Be 9.748054278076907 10.889534506710115 11.930723749042933
Be 7.790875984403869 11.053456570072209 7.0054857206103
Be 9.988621000142116 8.023145035384195 7.487626643548368
Be 9.942508422527874 9.462701488217226 13.372110158077984
Be 12.15681763385286 10.666390518868463 8.63118713428979
Be 7.603085293409775 7.500214788769067 9.996921048831211
Be 8.460376934111782 11.777302591276683 8.796184041376277
Be 11.23376060359755 9.37190026286293 11.55248998035556
Be 10.637094964036864 7.616736671124099 12.721493799847286
Be 10.680329366687387 9.301749569618321 5.910950122402846
Be 9.131218849965514 6.767551979554439 11.465711518988464
Be 11.935131712457622 9.050745548116822 7.5104888269262915
Be 6.599803137087285 10.605684484824046 8.898835485035356
Be 11.395910843494498 11.18612784199197 6.623536393377743
Be 11.740955309912364 11.037272507242488 10.519113664060235
Be 8.40986083969649 9.391375157363901 8.97479977878059
Be 7.934255410639406 10.943409872482418 10.741311625277717
Be 9.427291631936386 10.870355410413506 5.635995237336465
Be 9.808122636219942 10.833915427132144 9.948691165014749
Be 7.855679811191695 7.610836451798705 7.858212427787243
Be 9.146569115522876 8.878139842234503 10.958429096402662
Be 8.580610137046355 9.13706435238354 6.455607574959984
