32
Energy = -89.57126951 eV
Be 5.648427560825929 9.699806793088545 10.074825165322862
Be 7.745888177735309 9.84542800694741 10.775840951774352
Be 6.754812075877426 11.124191722575132 9.25187773229934
Be 5.693813516953932 9.863312528493525 7.816707091490332
Be 5.233912816834194 8.10307092822811 8.926027197703931
Be 6.628592264888977 7.965985483232343 10.620405698044884
Be 7.340732695356182 8.955408913383724 8.825004398691227
Be 8.823431576175464 11.198132920653157 9.429480168043547
Be 9.935249750236052 9.664283975164123 10.524273310276358
Be 8.744842686526273 7.910765665202308 11.16839456638949
Be 7.71598492941085 10.734042858230083 7.484837281784361
Be 6.707441086928825 6.6615912982298155 8.75055237851808
Be 6.147231017018477 7.817149966586646 7.023236744377293
Be 7.5941924913046766 6.1358750513907045 10.515436778928523
Be 9.67303728439692 11.393374303583384 7.401651554695615
Be 10.836706905964046 11.00771642121132 8.999951710621543
Be 6.988162433137109 9.440924129920583 6.100382594890883
Be 8.821743820980789 7.3871132080084 9.047254385047633
Be 9.560414410634467 5.935530907065386 10.574693573316988
Be 11.048779258305954 9.795082816561834 7.095981445222854
Be 11.589690770288069 9.183713059270254 9.123686258113862
Be 10.663710513104842 7.630896642706719 10.155177208920547
Be 8.32365862674381 8.159958063266865 7.263597197471389
Be 7.481460094095878 6.166987547106851 6.938832073214127
Be 9.07183481850312 9.860353637533139 6.055571488544388
Be 10.521979935122511 5.900720619132202 8.800454258380055
Be 9.431321674668146 9.369285044110663 8.415047345737309
Be 8.475980098510687 5.3138654044264815 8.686812179755698
Be 8.08270961375585 7.660165410304484 5.460195472259691
Be 10.869736376516656 7.721143181210605 7.8804504743967
Be 9.5200845129621 6.317121949103505 6.97286347145187
Be 10.134592149267968 8.120474747515754 6.038502259465081
