35
Energy = -99.06342522 eV
Be 5.737675682570887 10.016052364029301 9.238051744535436
Be 6.822934613887232 8.282885892250592 8.66690479217993
Be 9.831962473502136 9.968072391639458 7.58163137243909
Be 9.89555589910934 9.52343616822926 12.146327620202687
Be 6.420069873463302 9.928077261445122 7.343931580860577
Be 8.952094395151017 8.144920378380695 8.526572175765297
Be 8.296542947762234 10.629904248070108 11.367868266731692
Be 8.155245107719463 6.351707371140936 8.596629460372283
Be 6.834955903386771 9.154418121173679 10.744708675366978
Be 10.412198512618414 12.675661489755576 9.667747734817382
Be 11.598576584234833 9.803254301119848 11.071790255302128
Be 8.089044743700429 10.910790231319286 6.808014172357053
Be 10.498371847348725 7.995817008980085 7.090978648675071
Be 9.188317627777389 11.883358971173518 8.232210432801521
Be 12.65063545244684 8.155998789537442 10.281675190341709
Be 7.009894434899809 11.817065691250797 8.478289462472437
Be 7.467582284717535 7.188657626288113 10.307430238830285
Be 10.774239892999166 7.747394124332292 11.498222857050521
Be 8.729386153494106 7.600281549198582 11.994936521017328
Be 12.443730352602646 9.885697551198035 9.152371796708245
Be 8.852691229207085 8.806242317922182 10.443968119734095
Be 8.074501860554998 10.081283590824484 9.014244335579606
Be 12.009505680957268 11.612630073294975 10.202017680374333
Be 9.456498005738625 6.521919458671271 10.323294350334224
Be 11.609641388582382 6.469060764369479 9.97126340224218
Be 11.898455859844606 9.460803057828134 7.273994541485472
Be 6.60501534947827 11.29716978340756 10.478276433334957
Be 8.045689377625493 8.818779194395473 6.8706211985104995
Be 10.327275751545875 6.5106281192674995 8.45325046246274
Be 10.242909372305359 11.609799960034465 11.49403762989305
Be 12.21769643242793 7.590629006764999 8.267815227515861
Be 9.971874683183046 10.509654385252915 9.747859518377414
Be 10.734189743658156 8.51451147317536 9.445995934355889
Be 8.445892579204502 12.226148860735606 10.123467272660355
Be 11.321013183978545 11.399058566457366 8.19920450104194
