34
Energy = -96.55600977 eV
Be 13.265302531677062 11.353206574051523 10.049132685404699
Be 10.171304422678693 8.914087922074135 6.404266732957376
Be 10.72888136238925 10.560629165325828 9.808216228823317
Be 7.55784641710824 11.53448968559079 11.8150083529227
Be 10.14755260831759 6.86820981559324 9.07259758130768
Be 9.531667713652974 8.193120984524613 12.460344896270703
Be 10.37841601399879 13.088359391048334 10.779759163362886
Be 7.38186714373284 9.263101893894426 9.21453287881032
Be 9.667359609097156 8.946315022241178 8.892476399399724
Be 6.663239099810273 9.67365649375772 11.400209352627025
Be 11.741974009690251 11.638198643050437 11.448487846171187
Be 12.022657666575698 8.042181655989847 9.284298697246426
Be 8.862510990222424 9.85006035912391 10.703423645937846
Be 10.151241342585351 10.753731601248823 7.416995897637173
Be 7.517115371306051 8.092692310173494 12.34950553840181
Be 11.747735811635849 9.452900169475368 7.629806644167908
Be 11.340287175857947 7.456283558431978 7.450768631793017
Be 10.696356145385696 9.902409509314626 12.154372992564111
Be 6.656215100197958 7.839088915023741 10.48190091999993
Be 6.92135539015992 11.12004640627171 9.94724974976747
Be 8.620305975483246 10.912319152368482 8.73683993359965
Be 8.520032272813875 12.440426918232891 10.221624264939372
Be 10.65787629810552 8.397913771821095 10.742041962758709
Be 9.622171283205166 11.65616427668545 11.995589347539724
Be 13.226529395876286 9.675477087656294 8.964097001358029
Be 8.71570290928767 7.6126396996636565 10.57440652075555
Be 12.452643919725281 9.587644695446501 10.913169648103288
Be 8.308879640667248 9.202416990247995 7.266744632323388
Be 12.01542273167021 12.902116057142226 9.665220147379198
Be 10.177368199783967 12.477010991374277 8.764867331997477
Be 8.017845833929506 7.442986188568445 8.66299746150327
Be 8.541947437500646 9.93293929575725 12.849719175624015
Be 9.323237881285014 7.246348274670966 7.11225126444959
Be 12.11361822747953 11.435294457051212 8.231544404988602
