32
Energy = -88.2748328 eV
Be 10.841786895026935 12.279985522453437 12.021470062485731
Be 10.669157283343264 10.3380091005594 12.79264042957123
Be 8.925979491370306 11.589555788541468 12.35452015856982
Be 12.452151417183474 11.070192208055444 11.811966255662748
Be 8.672346262773122 9.675482332357314 13.006452149816207
Be 12.090825432025818 9.031639160000454 11.761577980434444
Be 9.654786006415007 12.247020744582708 10.382423065543955
Be 10.027341448168437 8.446022554731492 12.073172618794393
Be 8.847876096822565 9.934324053819793 10.558548006881812
Be 13.070925683997173 10.196529799750113 10.025877162780594
Be 11.260069750668084 7.272558605213802 10.90153115369736
Be 7.633404088064759 12.003450240327098 10.810651717937827
Be 12.87921485088376 8.128961792586269 10.045434321596831
Be 7.089506975868604 10.399602060728771 11.990811507378048
Be 11.774829396065902 12.028359051663665 10.11805566197922
Be 7.92406114237585 8.271859157051408 11.696800309968685
Be 6.0955075581693245 8.857221308263492 11.07621180964319
Be 6.6419197146356 10.43581742946165 9.900996782970532
Be 8.325414352800019 11.540630568524358 8.904642679056062
Be 10.817111890584332 9.993552906004087 9.37966513012744
Be 10.357724221555054 12.090299528898699 8.429069944745713
Be 12.683213804890226 9.07590859330716 8.307044134741073
Be 12.388884237405058 11.222462982977143 8.2655540302391
Be 11.103747625438988 7.756187840609468 8.870559011377038
Be 9.328864557047712 7.679462199296511 10.220278928359514
Be 7.421736533189695 8.358112596555944 9.617045006754365
Be 7.4963897044599905 9.823340571345204 8.163527453781693
Be 12.655194890662122 10.100335302552937 6.5395317934897
Be 9.1889307412515 8.723216321044779 8.43681973356074
Be 9.309590932944287 10.537918749866163 7.317301042322502
Be 11.071145700869225 11.297422554450545 6.635068729930582
Be 10.910321755397701 9.20451881677298 7.194711668155459
