30
Energy = -82.76202598 eV
Be 8.950888331620547 10.320531786297943 6.179103583755185
Be 10.40139161721322 8.734606333241 6.342886490443916
Be 8.311850626899815 8.600148993237328 7.113885453434357
Be 6.302331363414179 8.918301328226365 8.433800421649163
Be 10.671953337814978 10.619649733830355 7.183408837246188
Be 6.866141422587016 7.257110267814485 7.374766049834738
Be 12.058586570034667 9.057085262045995 7.6393565776986545
Be 7.017480126472261 10.250385596917583 7.0276136647372205
Be 6.2783502476204935 6.9966486551945035 9.396005742445789
Be 10.016347465449282 8.46439486942193 8.348225282075287
Be 7.200081686341416 5.524641701158673 8.268459468527915
Be 11.245735483852592 10.198910061568021 9.174607853510555
Be 8.96782473461079 6.647365983326502 7.76450398484302
Be 11.382620144963056 7.138715406625867 7.7039533641601
Be 8.325443275402757 11.823068052880657 7.525833360544503
Be 8.863996928867135 10.079821635292477 8.675284700594716
Be 6.7470339538405195 10.846911113563003 8.999718335896057
Be 10.327513356384857 6.6291858647604744 9.453608890762512
Be 11.737701390455614 8.149460042833516 9.581163449876977
Be 10.143858178235973 11.974116819431742 8.695349708535685
Be 8.456741139048308 5.844079342234624 9.808987610805566
Be 8.219522789888563 8.107748806170571 9.343673406564305
Be 8.325784889317939 12.08174007798845 9.60425130171981
Be 6.4736864111085675 8.847251602287574 10.559908256307882
Be 9.916468726213969 8.98019874117561 10.453906379894262
Be 9.901990534307144 11.068884465106954 10.55317506882437
Be 7.302553045064936 6.9331526795128156 11.211899555163054
Be 7.96183151680217 10.279169000607782 10.65471834988083
Be 9.421231299212769 7.038411579824104 11.222516406582574
Be 8.261843952141787 8.647088742610569 11.764212988871522
