37
Energy = -105.1225416 eV
Be 8.092899112849901 9.286376814842919 11.69483154002774
Be 9.420682144897619 8.317877280863993 12.855997412736162
Be 6.380378688845246 8.171560300842145 11.24085498001001
Be 7.970053773811899 7.143704206036061 11.99386891254485
Be 6.838970282418163 6.450860884095737 10.187033994744327
Be 6.857421115344183 9.819689466537167 10.086413405846692
Be 10.138233198813866 7.3034845701856 11.27647172583155
Be 6.880757180647762 7.197816745948589 8.241407066488318
Be 8.80801984280276 5.853040706162932 10.689446591675727
Be 8.756406537483286 10.620983380683887 10.145569700945162
Be 10.146758883276794 9.437827674259612 11.237760846624882
Be 8.566247071607917 8.135893637829096 9.811242583400281
Be 10.240669257124923 6.514748433794722 9.24893546563036
Be 11.209063439214152 10.911548778070498 7.512411931928514
Be 10.750880837387582 10.561131114790088 9.587645770197476
Be 6.082485103402183 11.033733425055063 7.047109404809461
Be 11.081033261398307 8.37592414246876 9.720522095889429
Be 8.319004004758469 5.7505018799791205 8.752047524156133
Be 7.971918337611445 11.782484412373655 6.819261093614915
Be 7.24538067604953 11.451644777275389 8.788817635007453
Be 10.06474666454202 9.257878078963756 8.072403754908528
Be 8.984557958880103 7.518030304861624 7.740349306428556
Be 5.565742071594714 8.247031174256866 9.376234322182553
Be 5.396684233061566 10.258290526410047 8.77666833739079
Be 11.267080549345145 7.474441656721138 7.731085586641113
Be 9.382206540295778 11.5277444362235 8.305782396571756
Be 9.849749548803832 5.701846252967456 7.144460415599816
Be 7.690097409440006 5.80419596150211 6.813846806701171
Be 11.244889415533835 9.15941452800484 6.279599343696814
Be 9.623803316923183 10.66342804695407 6.2996005443103025
Be 9.25530723938042 8.62348254687605 5.959399464073864
Be 7.902728045158663 9.435386522238385 8.03749333302413
Be 10.763010267791563 7.1652107509667395 5.84445848570093
Be 8.849244725346162 6.626640590479888 5.427735760921033
Be 7.351964882790499 7.826148034930656 6.306978864229039
Be 7.495325799127178 9.953707554660209 5.937597950044368
Be 5.837600032539983 8.918291851188114 7.29065709576607
