30
Energy = -81.17368324 eV
Be 9.746236542902029 7.179840106303582 9.775745143025286
Be 11.36035294020728 8.110650273159983 8.905115898654927
Be 8.92643833907947 8.444793271473824 11.288730226395563
Be 10.387614174560905 13.140205505293151 12.069547790437452
Be 11.124219998472498 14.246012674110894 10.465697311142883
Be 7.543379622109328 11.814163003909808 10.258745839685751
Be 9.059425929281403 13.416995653795047 10.368213791917043
Be 10.215487260308944 11.067718348689903 8.512650631021172
Be 9.43087159817976 10.860008229138488 10.689926328687381
Be 12.905230522394211 11.157577156817007 10.528746957398193
Be 13.250230438102555 7.046531064717655 9.171582740888033
Be 8.078444652256103 10.258200183605574 12.18544502949783
Be 8.153013601818731 10.620635288120873 8.624010653257146
Be 10.924588301975941 12.072131357910358 10.186438256080562
Be 11.397965793216924 11.220638177267096 12.064091333739134
Be 10.576564671326592 13.370950408081232 8.677174675512294
Be 13.081731307898028 9.017057191202104 9.883365652128123
Be 13.051466764663296 7.367510478147584 11.128558603552289
Be 12.436204587746236 9.3772117806923 11.828442228526878
Be 10.981180790734484 7.884713859622437 11.259208694000947
Be 8.71083802217212 12.550575038293525 8.571957810682271
Be 10.305015404638556 9.528712375802776 12.387880464145455
Be 8.369841351537099 12.47099211701011 12.066300663560195
Be 12.574570145826483 13.131923522298838 9.495860155405737
Be 12.440324825396276 12.977016134027515 11.527754837585903
Be 11.197953180599942 9.901182218796025 10.09737065097339
Be 9.432069608380196 9.110992427801449 9.145866062613488
Be 7.60547823111107 9.566926077350061 10.278454706473731
Be 9.656042481039508 11.372891204824384 13.10553123880825
Be 11.63765202259222 6.275677982263266 10.01201873473073
