34
Energy = -96.01006174 eV
Be 7.484140815330983 8.542236982698677 8.371273728472996
Be 8.836186008836751 7.193810599854126 9.539817293711543
Be 8.37542397631884 10.459824432170759 8.676465756432307
Be 9.02181085478977 13.029293164292026 10.525993823278952
Be 12.438059160680979 6.370022971547129 11.492998600871855
Be 9.105555282390803 9.869801119449301 11.910283866370335
Be 10.572860213772532 8.475307372733452 6.858687561941897
Be 6.306626929291048 11.851725159104722 7.535161798355244
Be 8.915112704522187 7.40517358158839 7.3296002549104635
Be 12.734559277165125 9.637565283981404 10.210502498189403
Be 9.83582876507461 10.576169450558783 10.067167930528543
Be 8.34940700914458 11.60674901877294 6.999529236560737
Be 9.75635278427076 12.239176395213196 8.700093670956454
Be 10.678662521916182 9.01073947760381 12.820853313257773
Be 6.760196676196369 9.973645191199296 7.066432850919324
Be 10.867406893258034 7.017082688331779 12.510263023738853
Be 7.65049705999644 12.407093842779751 8.982771965811368
Be 6.41546401090072 10.44955182077857 9.083299645882272
Be 9.095242188993822 7.726478221738962 11.621492021119773
Be 8.154648664432356 9.107263435293772 10.278078929448457
Be 9.635980614101834 8.904531007345541 8.6542557845498
Be 11.642152871742494 11.03974566830072 9.177763109937128
Be 8.685495148067504 9.417696127476031 6.662873351736618
Be 10.964927063595606 12.432856083935157 10.565917842916274
Be 12.434839687268584 8.424847030073485 11.89674214848249
Be 11.767288003354125 9.075045786143916 8.470176394058061
Be 7.912094722371514 11.2419138415914 10.701600449955711
Be 9.694629497585776 11.809966491117093 12.055626972905715
Be 10.569257549195266 6.409250991793976 10.559045558825206
Be 11.370029498686765 10.544100834656396 11.551722986297614
Be 10.311006058396156 10.549443385849331 7.549896291618777
Be 10.666938666720451 8.665639119056236 10.503113402698881
Be 10.804876831780692 7.14657055473655 8.544119849273569
Be 12.439657344956506 7.585028279519562 9.839002933169732
