34
Energy = -96.68649644 eV
Be 13.653838726301577 9.02337997076614 10.667634076258674
Be 12.69161288704047 10.73607089754136 10.119400855614451
Be 12.804579794241443 8.917652448521066 8.815170096211824
Be 12.055974314006404 7.6802872518108805 10.711315795776054
Be 11.862641303642755 10.64879662134899 8.124426950949587
Be 12.052325510844824 9.584215372019896 11.84880550777144
Be 11.165985823832832 11.515875807970188 11.699640913266832
Be 10.866409106788733 11.615750173098768 9.617727429193643
Be 10.94269139682917 9.319151353970787 9.807145652491812
Be 10.943701433359584 8.883043129572904 7.4863615783025805
Be 10.575352055334948 10.600387705182762 6.418320227703845
Be 10.450016014068083 12.237455380334971 7.722335674631291
Be 10.263932490518416 10.135180189979813 12.904755069623842
Be 11.406214521998074 7.302328177137692 8.776842632894418
Be 10.051468457056385 6.883120606777469 10.262735272021825
Be 10.354395480080523 8.32434029889466 11.836636119247075
Be 9.511691959697608 10.216846129494192 8.617978999707113
Be 8.473915027428118 7.268623736515728 11.641549461314689
Be 8.837985992762611 11.595074168983556 6.658363839825236
Be 7.978852706520687 7.019870687402833 9.707878664588142
Be 8.835257229416062 9.337750306994243 6.808707761187088
Be 8.508752936540654 9.24379390624111 12.340903766424884
Be 9.416393605870121 7.785177886088885 8.28401528619485
Be 9.6591230062158 12.835223031643485 10.74460120851908
Be 9.380685309764498 10.651232226623401 10.73609096434278
Be 8.980630375300692 8.750751256244175 10.139690059594285
Be 7.460941317664606 10.70575626124188 7.795500072872604
Be 8.673489100622868 12.155445183521314 8.943837174185854
Be 8.962169067120904 11.734630535245378 12.506582253548604
Be 7.56261365962576 8.80211670632297 8.57669806345125
Be 7.01497163407347 8.685996367781279 10.854123837372962
Be 7.71816117200699 12.373699359643714 10.859724271446169
Be 7.440306200691521 10.51813996635388 9.8290523251387
Be 7.2050365975510315 10.674953113548689 11.897564353144476
