39
Energy = -105.76189296 eV
Be 13.955589229763069 14.146606990762729 13.359287626892238
Be 10.343504067209908 9.273534884568209 11.514280897887348
Be 12.740938529608597 15.543992648541776 12.326462557339788
Be 12.12060738346154 11.45887595810286 15.95682234477439
Be 10.658670910720435 11.265773975199728 8.6621916767894
Be 9.892167872599025 14.250613944569661 13.742396484503896
Be 14.237606130669535 14.50743007545996 11.205210137243968
Be 15.118404363029638 10.28840988690504 13.443749014033296
Be 15.702242632662177 13.551999992389025 12.398520950033866
Be 10.004682243551153 10.04348409047127 13.522084672265024
Be 11.776395863498408 9.687519100055313 14.882503159783319
Be 12.448732237438382 8.828564740327044 11.387992278842578
Be 9.475862808771149 10.272215467945673 9.95183427116943
Be 11.094156109509038 16.102774781458788 11.168095226818304
Be 9.529576412185717 12.366755805301857 10.073917791717198
Be 11.405892728794628 8.607051617513967 13.1628456378189
Be 12.046431971970181 14.562800812075697 14.151670640594073
Be 10.999484600916272 13.035088414219707 15.08675011516544
Be 10.235796139531336 11.057276007121352 15.301984584032533
Be 10.890829675398683 16.011844632190986 13.22348500188648
Be 9.568032225081186 12.151574537178583 13.686037491235403
Be 13.350437081452386 9.22219278670713 13.432703631089069
Be 13.696734024326918 10.789911619915063 14.868508206306753
Be 9.257375004101856 11.124934571748527 11.829037775823089
Be 9.168682618428557 13.258716138012192 11.934617368507622
Be 12.361160588265822 14.698988438610789 10.316909815794071
Be 15.775828072068494 11.507414058842652 11.903027367037117
Be 13.150760894082595 12.888755655135169 14.891825953064982
Be 9.369206452818833 15.323483392847733 12.003663395752959
Be 14.916573875335175 12.276398482644128 13.844180602582435
Be 12.718911750419046 11.27410537852139 9.013037523149809
Be 10.196655955632203 14.385478190291193 10.33133548326674
Be 11.50452545494587 13.027770860943019 9.361130555048687
Be 14.519982889419763 9.741049323026663 11.550338782193485
Be 14.66761507309219 11.226027230088588 9.99362741427257
Be 15.535387015269379 13.02648912438726 10.460589462511283
Be 13.485566359689647 9.543216755061989 9.762995076716523
Be 13.622117761592506 13.101123841622853 9.669444271064695
Be 11.419667715559159 9.53254851210489 9.587697477861544
