30
Energy = -84.46272287 eV
Be 13.262271229594667 10.836721928496019 9.398788403674539
Be 12.278096580723755 9.382986838603204 10.468378747541284
Be 12.187575235051503 11.322329465208869 11.245541309531347
Be 12.222720163241208 12.568937356554011 9.440301931108454
Be 11.71678923306528 9.698701769391304 12.575529358674563
Be 12.502683682486186 11.601631074234046 7.672780707814752
Be 12.162361555549234 9.448075320363746 8.090514263979575
Be 10.449172184219888 12.295291928960562 8.162901953697784
Be 10.857690813699085 8.279774712348102 9.461219662414269
Be 10.56469199736371 11.613366957872287 12.624305132699874
Be 11.162773397678388 7.989649285534591 11.488016834701433
Be 10.34284226186367 10.139419678933795 14.025662868112722
Be 10.500867298502333 12.339191123022326 10.543535043027843
Be 10.851052569313337 10.568975227935514 9.244961482175707
Be 9.77001095456761 8.56141002378796 12.846130367552453
Be 10.090558211075146 10.060824260238768 11.136805515233783
Be 10.898264792424682 10.659827382769626 6.857924368201624
Be 8.838768579022574 11.633762139432575 9.547300720746055
Be 9.09208178642001 9.503682905067505 9.429422550540238
Be 10.11223578152145 8.877408436668821 7.559888402206697
Be 8.77194859936496 11.960526485519642 11.589842714069745
Be 9.235381753894375 7.723687660930591 10.79646384295191
Be 8.969233524537568 10.77224237056147 7.6070218734173025
Be 8.656486793132542 10.409849380525213 12.891267743258561
Be 8.981325777933524 7.504154248504099 8.739387205834394
Be 7.257649264680192 10.3666295764679 8.814973138620887
Be 7.954420569451731 8.867978148365763 7.655442422813848
Be 7.879978400218263 8.704464996109122 11.946746086852512
Be 7.340091592875967 8.437177122872743 9.805335619440534
Be 7.623603103521552 10.404949881714346 10.867237416099256
