37
Energy = -106.1706727 eV
Be 9.553598833854625 10.73677706378801 13.591656688740096
Be 11.445081916307489 11.367564434325773 13.020880936394729
Be 9.697584562483364 12.087032633445544 11.717113647372152
Be 11.150983474241803 9.495717273945393 13.752753829047142
Be 8.320869140517818 10.405110814610092 12.01552221073943
Be 9.281528559172111 8.640366443181184 12.933494849462788
Be 7.617352837572037 12.033972345734645 11.04918627756033
Be 10.785604298691043 13.0405846355569 10.073013546366704
Be 11.689250342738172 11.478779689618476 10.996857910267263
Be 10.37381944544074 9.949874839276509 11.658144984813692
Be 8.773160851828692 13.133089250146158 9.775084181627541
Be 12.499059241380637 9.709642367267652 12.027420827327882
Be 7.422393714241577 8.5414548722325 11.923878942746988
Be 11.27861418711232 7.9675220601243595 12.38954731433855
Be 11.910762956977853 11.579774850004652 8.889418583537642
Be 8.916143333114913 7.1566299516744625 11.483578140979999
Be 7.462730779094147 11.67859887667826 9.024459215107365
Be 9.48712051050573 10.956520985416663 9.843572193423746
Be 10.035588190498267 12.501838419829651 8.228176103117944
Be 8.925133767955806 9.028519490887868 10.495049976792048
Be 8.852354543331407 10.891011626853986 7.71110145494455
Be 6.990589439542937 10.02934316074611 10.40068070672801
Be 11.209860562116704 9.731835694782847 9.788862030563436
Be 13.205036260607972 10.360412413960656 10.146898123419092
Be 12.65379743861695 8.350238696849036 10.427235455474179
Be 7.323745301424884 7.868471851785286 9.844671139850984
Be 10.629765049804082 7.8376815678028615 10.500600964968624
Be 12.554374177918147 9.51957464387398 8.237613483629227
Be 10.825543341295608 10.538532654933764 7.446055874888699
Be 7.577663049773321 9.516147946924857 8.467278962982277
Be 9.714017200290908 9.014571796198323 8.615344400555696
Be 11.463366543419209 7.691331687617866 8.622168920633248
Be 9.210932747706204 6.980570189709583 9.287141717752014
Be 7.964277594912982 7.615883389374314 7.786776509977331
Be 11.235070483707105 8.62806840286225 6.798419892555009
Be 9.111007274632971 9.070259822395672 6.642404263415271
Be 9.878373910373124 7.184088955533754 7.244137206122947
