36
Energy = -102.57365508 eV
Be 7.810032890671463 7.762853517283108 6.899189870837878
Be 9.799873101317504 6.542467957241374 10.527546531981976
Be 12.8079305283118 10.036128054152114 8.06501649597588
Be 12.990203322735216 9.411519989878958 9.994463239246295
Be 6.1165608123598325 10.303175491779237 10.468145337699402
Be 9.60466279629216 9.51653552672422 6.100379282279875
Be 10.215204196504967 12.16665918163634 8.822566737809954
Be 7.6165222342652985 7.108980716684176 10.29886464220785
Be 8.624779670613782 7.425749206567189 12.104887183996928
Be 9.355286842160114 8.795386324928243 7.981274869774115
Be 11.291770296229007 9.585883157769516 11.323096847019904
Be 10.98719231163185 9.402679563965217 9.122428424710373
Be 8.706920639149494 6.7673632144735985 8.547992470229213
Be 7.707708921032722 9.794347478275425 7.063587081086664
Be 6.010968448996958 10.813284955453467 7.1109091196619465
Be 10.147490824113875 11.14689821869763 10.755095087621662
Be 9.36420570889371 8.61903443828345 10.164979010520025
Be 7.21844579120657 11.207306151169236 8.761038244540776
Be 9.92793981121646 7.347339304052145 6.711839312434132
Be 5.889134551976555 8.711124820436453 7.519500042586495
Be 10.555320817477362 7.833115152372057 12.166185456789094
Be 9.28843581703483 9.560908657225289 12.19253935928412
Be 9.153618570131787 10.51252735500194 9.009766944424614
Be 11.633335149068603 7.751420390472774 10.409522336019078
Be 10.829092833656906 10.742289771663623 7.42595382651837
Be 7.549013310132586 9.031896839668523 9.072262307019681
Be 8.875650839578876 11.377697443089296 7.113464302473233
Be 5.102531902845112 10.116600183934548 8.77786217951557
Be 6.650481896333538 7.033509998788801 8.432701128482119
Be 12.703082847407925 7.993861142132157 8.489808126526562
Be 7.290982391776373 8.849644846334074 11.372848597145776
Be 5.694719041903959 8.340243418235701 9.828476864873153
Be 8.098922087422137 10.642295649976285 10.733435980358632
Be 11.881186356950183 11.232788942112288 9.590152202983463
Be 11.414470340599081 8.737310027702106 7.034291523993549
Be 10.746558223435095 7.255080613893347 8.637915513335308
