33
Energy = -92.78462735 eV
Be 12.964407352185175 9.252924068413588 12.91883078901228
Be 10.680879716012791 12.016162047323444 12.595365017130966
Be 11.160800569705465 13.046391580050875 10.671098484641984
Be 7.528892079350172 11.115126429571264 10.82306378462427
Be 13.217121795824031 10.316422978992756 11.182889282040852
Be 11.12310278012175 10.631608611170813 11.114139413535232
Be 6.767558722065319 10.056090700539068 9.21626093104222
Be 9.12858124838465 10.528775292150048 12.065063763185648
Be 8.616220443937404 8.889001624929323 8.701850524807835
Be 8.211130394716214 11.630634356762645 8.88793885594813
Be 10.335130219907763 12.244818011571075 8.93473942574227
Be 9.530691381743443 7.161358175578003 7.958629245309617
Be 11.915947262994193 8.59851437289631 11.235542593532015
Be 10.963520839194693 9.769838678099003 13.007831357655219
Be 10.656475842363857 8.107816296436013 9.59623116160731
Be 11.541163499761383 10.865549433349248 7.945828086656621
Be 12.68812281531484 12.233792281444138 11.698326208118772
Be 12.193827069850656 9.536187744168409 9.3744609134939
Be 6.723014809827088 8.0102909095692 9.620750634069356
Be 8.83128923911541 8.882499242751374 6.605290083373667
Be 10.64771925779859 9.019169174078426 7.746093903708939
Be 7.508305251136011 10.388031502159425 7.324093138664722
Be 6.828257673945242 8.435535935456283 7.586863267075709
Be 7.620251135651148 6.6253429102064585 8.530701886886316
Be 8.794457494872974 7.282791456767234 10.131765818152882
Be 9.513822839676507 10.730549911480262 7.511586773787249
Be 9.351101696978608 12.121322946144529 10.795396400292379
Be 7.9711447868964065 7.015784456925253 6.596932935637353
Be 9.867574164510703 8.681382076243777 11.45538183447441
Be 9.756395244100126 10.241427063990583 9.673993767175874
Be 12.449368220906553 11.139942910406228 13.317725192994995
Be 12.390424150578493 11.711543829897359 9.628309304220915
Be 7.9129570191919605 9.10303000909692 10.936682240019007
