32
Energy = -90.67859074 eV
Be 7.9580508281632305 8.37427835027396 9.08070745403608
Be 10.85643015968084 7.183358943984631 11.692019075037681
Be 7.214349441568518 9.84205838903313 7.705017167359357
Be 8.493070184953744 11.074964878531317 6.728679533888659
Be 7.643250255835878 11.746207997058182 8.585346609145988
Be 9.241862787203313 8.231952962916278 12.449977401186707
Be 9.23018039237653 10.299547296609227 9.048361779604814
Be 10.391594327466537 10.519913860660774 6.862083484879955
Be 6.859014984183128 10.10458925452107 9.653501100378335
Be 9.201449679565595 12.55226472815831 9.732597023685841
Be 12.739724224988 11.794034424272313 10.100836605058158
Be 10.410771865362054 6.031664185660936 10.087017924248656
Be 9.058177268232724 8.942417906959435 7.3051597844598835
Be 10.533123418766458 10.93736909152656 10.66535945241771
Be 9.166349706412834 10.361161246853985 12.392623549203918
Be 12.431523965165423 8.465658379656835 11.339122750958532
Be 12.502172533786085 10.54817669119603 11.734083499190731
Be 9.76368146937156 7.440374031929169 8.746603312157966
Be 10.932439059698911 11.36708417774233 12.929544405576626
Be 8.805978726116946 7.182393024823292 10.717893929710137
Be 11.333271242001196 11.151812810701326 8.623556724497165
Be 10.184126234445658 8.913043567418061 10.397642112425581
Be 10.997001390334637 9.06099370703721 8.247534061078948
Be 12.3416808397651 9.69683577478705 9.726491547171204
Be 9.737702198302323 12.302166494237389 7.812912545620707
Be 11.845942281503742 12.69719382775746 11.675275477467428
Be 7.987020412927251 9.134280285727112 11.082936403400614
Be 9.727653504726694 12.545274341179846 11.768575252061014
Be 11.129641945581751 13.007884757483097 9.73337937013368
Be 11.733958748250181 7.543083811433972 9.621431089659529
Be 8.136987293776386 11.244906773697693 10.799877995057809
Be 11.00150766892268 9.292743065607933 12.543540618676799
