39
Energy = -111.98732351 eV
Be 11.967335785411013 9.5904529733971 11.12904583512968
Be 9.903913722639022 9.984636412787912 11.125127099162802
Be 9.557024729908933 8.100694293179453 10.29423385998185
Be 9.795027458783926 9.886097173681575 13.334565416790278
Be 10.6196722864828 8.151626262003576 12.233546714611604
Be 8.567784642957461 8.734564844940552 12.059102908981986
Be 8.116585421380256 10.81961377493585 12.230790204259254
Be 8.841718508234793 13.808639486732456 10.292536798103264
Be 8.002777703933647 9.76259196015165 10.291459519225153
Be 10.385486678164499 12.942650884734231 9.113800091650898
Be 8.039134020466033 12.950666153783233 12.058645842358029
Be 9.884315310136053 14.022810694014982 12.232821163042242
Be 9.512673118560754 12.138494013494013 13.333124141771282
Be 7.745764162546694 11.815153300146333 10.289926047998028
Be 11.20942781007176 11.210324381406362 8.077169931679329
Be 9.643318064681111 12.068687534721246 11.126152448866005
Be 10.84376514693459 9.317750044541125 9.12058069684321
Be 9.296720254637792 10.971378751927437 9.117487741460787
Be 11.20798121427413 11.205925065603386 10.080866420471615
Be 11.589121700513715 7.715341970992591 10.29325397868145
Be 13.933803353754422 9.704007983966207 12.237553102590747
Be 12.979067480370313 11.428012608875198 11.129398478878041
Be 11.544189454985268 12.958569514087143 11.127924584244756
Be 14.648570946239987 10.49006201745774 10.296613041811964
Be 13.653354983163291 8.678763259355758 10.297999370296122
Be 13.478647607452189 13.336036085271335 12.236265270828337
Be 12.88957905214639 10.275486730054466 9.120845727041882
Be 12.609039463130712 12.522477523265442 9.119224908973612
Be 12.953608271901409 14.258866474308977 10.297117658023415
Be 14.366056566557996 12.749323558896503 10.29695062841007
Be 14.794261856185756 11.656151974989685 12.064236152672322
Be 13.121791425562904 11.446575590615275 13.336729405883345
Be 11.20539663650296 11.206675931507515 12.2615151099295
Be 11.886716975433337 14.75663167800447 12.06139096291576
Be 11.2058621469752 11.206912681456302 14.305879660416444
Be 12.02571726017106 9.458190297699382 13.336794731246982
Be 12.740277024393082 7.934109748398831 12.06296444201923
Be 10.716618861053343 14.683218496101366 10.292331253621988
Be 11.568975124596427 13.102910331104793 13.335110649127227
