30
Energy = -83.21074998 eV
Be 9.453282165920756 8.585398925223137 12.48799688465564
Be 11.749917165136335 8.496421665709375 9.920967093017934
Be 11.038706086328027 7.549528447710032 11.607021478329305
Be 8.938200966554799 9.063773382078208 7.277924798428075
Be 11.282107541767518 11.868014640702297 7.783649700689495
Be 9.355408496455922 12.478101647429842 10.47806313063034
Be 10.314815051485505 6.849616819219433 9.770705996447903
Be 12.67965069041209 11.807252704026691 9.328407826878397
Be 11.122403632984803 13.043829742005364 9.566151781988124
Be 11.170781707144048 9.593914471519799 11.64607400509935
Be 9.27522934884744 6.597145760530467 11.599500380504788
Be 12.749155088629571 10.198082057436578 10.497787484499028
Be 8.00568798719091 6.850219900911355 9.959088347799845
Be 9.08528524770265 7.099230141145844 8.132957695274722
Be 12.26215561278918 9.979858333653452 8.441670509412383
Be 6.945857325520139 8.941595288228212 10.266646298897422
Be 7.745566320788595 10.138472432694646 8.602642263430928
Be 7.404184382552153 8.101686823948722 8.416633413938719
Be 11.321983491002191 11.67193384293997 11.103510196010005
Be 10.178674233460441 10.562404571911786 9.387509570777059
Be 9.115365282670165 11.27183228663944 7.306353051633276
Be 9.640165550695473 13.062718157115453 8.228210996911647
Be 9.470856029320311 10.687467645127017 11.685617921241313
Be 8.002257624775712 12.178380175611675 8.861365052547647
Be 7.8154697260136645 10.93433838726302 10.48637370083985
Be 7.728053600423041 9.6356161241032 12.0759327009667
Be 9.23525664004628 8.816906725962204 10.174786357518581
Be 10.74799762701768 10.043444704379539 7.002861196148688
Be 7.5776669418642735 7.651716382316957 11.812624364567299
Be 10.706812385506957 8.3600517634636 8.209919751921618
