33
Energy = -90.72292196 eV
Be 8.992386308935242 13.652192802244564 7.003299797091858
Be 11.45972635568102 11.45287636927476 8.118993006915346
Be 7.926230776368606 10.65686955722404 8.366630736113466
Be 10.370402083844095 13.296275823522262 8.49071561935313
Be 9.099147860497546 9.479245897341404 9.843785207403515
Be 10.083508647354643 9.644533225023707 7.952913283697861
Be 12.544510817566383 9.047581099807593 10.750444438582743
Be 7.897826616656159 11.479473428589083 10.323200597211205
Be 9.486780908343862 11.657455769414309 7.185027563257717
Be 11.686882093465865 8.85743145015149 12.893549090339226
Be 10.343343421807026 9.090846867775069 11.386981439911061
Be 11.092633052859043 10.256308387436585 9.83820860806306
Be 8.188043809266965 8.120543289571804 11.659529067786824
Be 9.651956981568842 11.4348054163649 9.182915019948503
Be 12.391964907126175 9.517662976786198 8.431051853135745
Be 14.14461825086007 9.464285204283229 9.570540033341548
Be 12.020815175452618 10.860334083115713 11.695149318513526
Be 11.624813965819767 7.307539600294152 11.308750049647289
Be 11.325517029428052 12.395680678215932 10.135954363541773
Be 9.335449177585126 8.907628851617897 13.313241706915976
Be 7.063511035046196 9.487205294153771 10.193082265079868
Be 7.7083708153481725 8.67675310427525 8.135579129991754
Be 10.488175971989426 10.580711790691119 13.055663912168368
Be 9.319692954089659 7.544155645097703 8.464690232812865
Be 7.72211938141635 7.42801553270434 9.726972536163448
Be 9.307758486163433 13.154803855022484 10.284065482533032
Be 11.039603882629368 8.204699663391725 9.401385393654111
Be 9.881530711113435 11.319365445469815 11.238093344662882
Be 10.06987738931059 7.2214374260926295 12.565158868499152
Be 8.314166839259503 10.175281470372045 11.964574065746174
Be 9.654207019624218 7.0624889881663435 10.515293290283935
Be 8.122894521204762 12.737803093613248 8.62210981115854
Be 12.952227001194784 11.138402161772262 9.693145115351497
