31
Energy = -85.22427233 eV
Be 6.545459284428821 8.313242556411693 10.444375537623147
Be 10.352850494786857 8.98471301442515 11.93289545707312
Be 7.52004372098715 7.454388210241191 6.665315875159017
Be 7.743607285552791 10.643909633492422 8.17041826656557
Be 11.672039116657942 9.499619382395036 8.82726118542448
Be 9.663739211942714 7.150201958817075 10.654846724553545
Be 8.37682193978847 8.47366824617944 11.607673653806085
Be 11.18227362376721 11.462720124496633 8.69644619147201
Be 9.675113537215248 9.502815295585272 8.029291507127406
Be 7.660663482392931 6.517058076310567 10.500516924850984
Be 10.38903817575837 7.511728803912254 8.520846303098311
Be 9.947659934131778 9.065563429793874 9.95096351055604
Be 7.981285321161197 9.848758340309066 10.057808960128797
Be 11.38524072359554 8.531514787512036 6.928741221231616
Be 9.480896014793759 8.016468515579694 6.288133681017494
Be 9.235997545642535 10.542904367212124 11.597367927829751
Be 9.209135792832338 6.241583376411923 7.268403048640001
Be 11.671172375639186 10.556965255764387 6.936997771950868
Be 6.4669803002995145 9.092037214670768 7.585602633651008
Be 9.631983896258994 11.365592299226366 7.174856361954916
Be 10.204912536927424 9.882188746637013 5.765057905266292
Be 5.798969773844755 6.5380866336621235 9.555930191445357
Be 4.97191750270401 8.351153219640938 8.978057886152293
Be 9.337387467075784 11.253735385372835 9.443968006997432
Be 5.721514067801905 7.049795282247218 7.632855337177249
Be 6.0796058434706906 10.060789558960515 9.394159707878572
Be 8.227400875665738 8.047156586044151 8.850706573671893
Be 7.401191377470465 5.890203522896172 8.249875630655348
Be 11.05650716683264 10.654560031338525 10.651850075409076
Be 9.172271822080356 5.82269432836179 9.225845496757724
Be 8.215008219795948 9.652872247394814 6.391618876176414
