37
Energy = -102.87109354 eV
Be 7.019407947932898 7.218686635579463 3.5747306151809974
Be 6.812727695868889 5.100476358629847 3.7389112905328648
Be 4.951496249701379 6.606414895303872 4.18727582212532
Be 8.716686024652528 6.048294103059603 4.610947206913915
Be 5.892876829011425 8.309690978580996 5.1464884549223955
Be 8.052501091844853 8.017114563882648 5.335669957017354
Be 6.715774886259863 6.261204159080771 5.286158046049385
Be 3.776609037319311 7.986439051481594 5.522398945445712
Be 5.266464577466599 4.7013488708590625 5.374349986393599
Be 3.2945134454055434 5.914862230089482 5.591970193496798
Be 7.666212790076202 4.404535654044699 5.613847425408467
Be 9.281708974643104 9.500725043217736 6.465562019928702
Be 9.937796834520492 7.331161433215682 6.074075161373003
Be 4.986623336542418 6.611494746081522 6.324030914058365
Be 7.06494825457308 9.454063121186751 6.685961271813483
Be 9.831044906797038 5.026532216009672 6.30696719179533
Be 8.220373281595474 6.142998700706283 6.646217105509558
Be 6.6391541103401215 7.367592285351625 6.906608464822827
Be 8.312914932628427 4.45682169139531 7.853679870036093
Be 8.432210022652548 7.963407811038498 7.466851814519173
Be 9.85278821124278 6.584258857118942 8.079174236363205
Be 5.0401016131063425 8.751488552282378 7.205467082103591
Be 4.156273084979109 5.098413117015355 7.302693855956926
Be 10.249189326065821 4.622045641292222 8.359050971279485
Be 10.177527746144868 8.71823820687237 8.108610212994716
Be 7.408765700147919 6.287907545748387 8.567125118665528
Be 3.556751739691518 7.266527410294834 7.6386000322920165
Be 8.330764490739645 9.82508712011557 8.495756576203643
Be 4.896501388910405 8.442525152764263 9.34329973976308
Be 5.3044753402044424 6.569390319587403 8.531098766851665
Be 6.333376691574886 5.142940136292474 7.165355183256148
Be 6.157440122939699 10.21527057416167 8.505611489282622
Be 6.738812934787545 8.30235490378493 8.558430668554198
Be 8.658232918300966 7.918743081193994 9.588899878034594
Be 8.9327862147308 5.697272576898258 9.732778847780272
Be 7.031986788098299 9.33163139387737 10.240701191946856
Be 6.735990972941042 7.235851376343975 10.29845490576658
