35
Energy = -98.23917891 eV
Be 6.238956148904961 7.335032552497462 9.118088619696639
Be 11.16005254410638 12.572986779733288 12.866145022133642
Be 6.61537767767 10.51659271951612 10.208759443095124
Be 10.726864153900932 9.208425419908538 8.546947300987268
Be 13.315212426282622 9.787167119610206 12.001850192170092
Be 11.464872988495301 10.420510231735898 12.64423940611015
Be 9.704856946086796 7.366387115311959 8.500078333890121
Be 8.128680182025978 6.91229070323638 9.864741307300779
Be 13.39204136212088 10.871211691808043 10.22986751417272
Be 8.118135136445712 11.987117789056576 10.708519991675749
Be 9.64259145562372 12.53399553327546 9.33143580582243
Be 12.059540899239876 7.721150304964747 9.415974894218275
Be 13.616267256397323 8.651411521206402 10.32995747724183
Be 6.743799451777455 9.236445516032784 8.525986776355664
Be 10.322261476497198 7.776626576050726 10.406144920887739
Be 9.88619012305782 11.017214003057775 7.886739733842923
Be 9.72557724285356 10.614964750238924 10.09781698437614
Be 7.959092258084971 10.111537912684442 11.644904628069074
Be 8.002133917589044 11.034005034404005 8.776885806051757
Be 12.004798333024898 13.856119435901467 11.57299080831323
Be 8.739276703159176 9.24826303852904 7.746615011433877
Be 11.231050184513778 13.75311233354994 9.668729965177748
Be 7.787220302208239 7.421055866263565 7.821047417960526
Be 9.881280830952118 13.323083566573427 11.302945146380285
Be 11.996845714513793 8.169452296212777 11.688447137091279
Be 8.625990324251445 8.908352182833701 9.993699294957791
Be 13.00281860216593 12.883976824885739 10.083180007007295
Be 12.851688512137516 9.51099612777781 8.672305865183752
Be 11.660272750385793 11.388660983182222 8.895049715482566
Be 9.933755144459573 9.275741375137613 11.80496608167037
Be 11.57704557943777 9.756539248985895 10.4718796770052
Be 11.282418415315057 11.741161666771577 10.894604986602978
Be 9.57265130036814 11.344010702812605 12.222636571850591
Be 13.019838311976764 11.909915808574977 12.070081035348764
Be 6.705338069623603 8.529277993332165 10.680529846088875
