33
Energy = -93.2063456 eV
Be 6.952890607422223 10.244677885033221 8.799575383033936
Be 11.32450474402573 8.293033997307788 11.999093733050746
Be 9.546224545573978 8.250359026140206 6.455425960674848
Be 9.945550269180396 6.197932794175198 9.18164376528006
Be 7.985232130945087 12.144074185630217 9.048345683607058
Be 10.377846119862333 10.188532775782827 12.189997409874907
Be 7.492687333621453 9.234521553793066 10.607512182511837
Be 8.516095471829031 7.479569221336602 10.03278980648736
Be 9.603229854758787 11.484987269747748 7.90126244610495
Be 9.909180655400299 12.161990433602142 12.035947728402283
Be 11.52257132273686 11.63358397227275 10.934629538079724
Be 8.246303361812345 12.703366766501425 11.094093672582927
Be 9.270309395087608 10.593475238806878 10.242417846101354
Be 9.937398507109414 12.579320428169249 9.86555825355929
Be 9.124188780078242 8.612376706711338 11.715598613654407
Be 9.222930237521878 10.235381725813086 6.231241392039055
Be 13.00295720846507 10.398709436690396 10.004136553744084
Be 7.038589140172176 8.205125026189467 8.766724862581025
Be 11.771648259416382 7.040735911980453 9.863789065350034
Be 12.446001712981033 10.137376706194209 11.961520098699362
Be 9.051509521796142 9.338687894748766 8.559685566999097
Be 10.892861659949068 9.645001449179777 7.38441694050738
Be 10.200916610372099 6.8140363694716415 11.14824584604019
Be 7.625236230742779 8.991097230888482 6.915682077452427
Be 10.773301285566307 7.619089800865744 8.01131075930107
Be 6.920076499439824 11.253504504396322 10.596546847933935
Be 8.608582509148151 7.193969952244397 7.897921400157474
Be 12.959404720671799 8.4968029847562 10.784296488782976
Be 10.553017717129416 8.85858516102906 10.007532217040074
Be 7.687212813790174 11.12160751935127 7.166263628120242
Be 11.120091854067148 10.763432298543911 9.082785310921745
Be 8.287726612044866 10.758749453199817 12.115136279499051
Be 12.339668932222287 8.810024485884636 8.777921310552847
