34
Energy = -96.56332957 eV
Be 6.661286953832114 11.842473358298983 10.310433999145799
Be 10.52926755459839 9.856842035343155 6.7962716311042275
Be 8.239619590959656 7.5308136803748935 7.240862349682633
Be 8.615221588995432 6.830878794081331 9.220184070268806
Be 7.505293046406279 10.579380005007257 11.934287895481562
Be 9.303232797783936 8.186817510383646 10.545874869108369
Be 11.091179614331786 8.001567108618383 11.644348590183485
Be 10.224906265348343 12.209337620354281 10.316238957719284
Be 11.99718157513566 11.738584015898615 9.36875818353471
Be 12.362874110714504 8.323528760097663 9.921746785666151
Be 7.457728153310158 8.553470531068541 11.275381520317406
Be 6.180907393796785 9.848112693526213 10.38887751847557
Be 12.749552903212665 9.314664208749447 11.727634606814492
Be 11.647284222446132 7.878040114936075 7.9101953235549995
Be 8.696884558371838 9.13212727945136 5.980129030481431
Be 11.930295809289102 9.868255495359776 8.406724247431294
Be 8.348844259823107 12.4248303007504 11.171916240663405
Be 7.481679067350549 8.624402879460735 9.143412156484002
Be 13.19725287938965 10.257959946908489 10.001769892345056
Be 10.786446571275055 6.978822408238075 9.674353706233177
Be 11.962041549456803 11.368239398150047 11.461563152507567
Be 8.694393451191493 10.282195944600932 9.992862997834603
Be 10.729663566352077 9.890917483785959 10.376821998500029
Be 9.187758466639382 9.206269294006773 12.292314389051354
Be 11.111123893236265 9.828591516805789 12.686419792577956
Be 9.717067006130229 8.899328478784588 8.56137473244496
Be 10.195045759493519 11.11518530239466 8.554300728876475
Be 8.495110269292763 10.524668519241162 7.614931298057462
Be 9.999825403117011 6.558835731064603 7.78751415506626
Be 9.704705124642254 11.199504183607685 12.042295195349123
Be 8.365681637951091 12.235469852679005 9.055227779081084
Be 7.004885715380579 9.174309959063832 7.172411884411611
Be 6.760774982376441 10.704874817764974 8.626870999918548
Be 10.292225712533321 7.908276324917671 6.318215114707959
