32
Energy = -88.59979512 eV
Be 5.711714632799967 7.255020230258716 3.5164859059468876
Be 6.580219677785345 5.218747063457444 3.8810058336986364
Be 7.878998228051405 7.038630701465592 4.02104940500687
Be 4.611878612275249 5.656090140631035 4.602137765635903
Be 6.609924715506798 8.691166599114831 4.792907668849997
Be 4.5457552713854765 7.733962707997473 5.223823136599302
Be 8.735005075674989 8.937265063452799 5.023092376331456
Be 6.250087263926827 6.595088960477516 5.3310239570169005
Be 8.103130256863304 5.319589123400242 5.368089000851704
Be 9.724055901328073 6.924858523953695 5.456492198674687
Be 5.961101433968908 4.510999231717439 5.83856604770606
Be 7.906036752877763 7.474957046654151 6.0209547816021995
Be 4.65296772981069 6.132717559433323 6.744439041843644
Be 9.068234308013265 5.793132945662041 7.264812107990557
Be 5.958307926901106 8.164085046228351 6.726025303268999
Be 7.568992340751149 9.510289943115648 6.79489374738049
Be 9.475126194205574 8.667975742747833 7.083050667673087
Be 5.699384722170647 4.702351155535896 8.165413199022522
Be 6.98635877011024 5.905731923145815 7.025291267076244
Be 8.308474785067478 9.247848099229275 8.8473115117643
Be 10.668828104415518 7.025494882746668 7.3485542895823
Be 5.910151829316035 6.843804982474313 8.37458205953624
Be 7.611605043274117 4.115497651502509 7.240011844220136
Be 6.181003499519466 9.00419183714173 8.642031864097422
Be 4.2430629430542 7.954926336536802 7.926546064567907
Be 7.685439533600261 7.634862925642558 7.941202560411151
Be 7.703388409331108 5.6118239422614 8.958142248743629
Be 4.134381028235742 6.001667853682878 8.870282636792608
Be 9.334260670059496 7.217126913217545 8.969651910637197
Be 5.8885427415906015 5.7224658027069815 10.071513682085362
Be 4.998264147454166 7.777986379614425 9.909076360350872
Be 7.216077269079895 7.520402503199174 9.932299373439596
