34
Energy = -96.44304539 eV
Be 8.67087822327102 8.27055494251041 8.126304802682156
Be 8.666269528473643 10.078021132942242 6.606859034774038
Be 11.172372817660458 6.774469672318086 8.181782335476857
Be 6.941500637252309 6.661344479743265 8.249833939163333
Be 10.367341132536442 9.037444200331999 5.8453375860743355
Be 7.574559502692587 10.167578453572858 8.357963002652747
Be 10.626934010122266 10.745104054167207 7.03650858048158
Be 9.855798008079553 12.223844174960837 9.994698582126775
Be 11.41157195005059 10.792847117331272 10.279193097694856
Be 6.225941476913479 10.286199070649433 9.975524399319598
Be 7.903011321642933 11.564914437706225 9.926844944826765
Be 11.108358830056675 8.685229639750531 7.658043665449233
Be 7.4340722476115975 7.17604778301328 11.970980633074214
Be 11.12769521321847 12.07864652331496 8.493853903276015
Be 8.587749711182301 8.972513771755985 12.317620601123945
Be 9.115090409390747 6.097040585345692 8.16512289147777
Be 10.44596056844284 9.042502902058938 11.179219632759127
Be 8.106689707422966 6.815641676586429 9.937074276501116
Be 7.965658893121681 6.576718855738131 6.52114914373763
Be 10.025923204509674 7.69356298022053 9.611964400315994
Be 9.80503082205819 9.949840087401478 9.060585794941288
Be 7.316381227734106 10.58869916352154 11.667193050898316
Be 11.80073251885836 8.749901667723666 9.601331333747796
Be 6.955477418062658 8.496146742352678 6.9272695609964385
Be 6.0916955049387775 6.999359900486735 10.38291191730173
Be 6.33746686744891 8.766762157864523 11.372302711174818
Be 6.551371740742278 8.460827692689369 9.06012896341278
Be 9.431552928633348 7.246761497093536 11.557196384493878
Be 9.361411649686497 10.750537712604949 11.292767507750542
Be 12.178606990296029 10.351529894108726 8.325267879035508
Be 8.295566928212871 9.030157730044909 10.185421196457657
Be 8.483853584220817 8.241098750170414 5.560296058255836
Be 10.010847766394019 7.0810151639445476 6.51782381536273
Be 9.044908052163686 11.774213519252227 8.061578427974766
