30
Energy = -81.04682039 eV
Be 8.613388698863403 8.383069545808318 5.893982976026224
Be 6.150158465905102 8.060468053557251 5.845118839895473
Be 7.208346785828407 9.919444594694573 5.894190828624947
Be 9.04413630322069 10.16543255698669 6.9232260277872255
Be 10.54777186839804 8.719940244547663 6.713294065361346
Be 9.640363047321038 6.8095538571862795 7.0598981367554146
Be 7.654776637567425 6.616712510941774 6.168849527079702
Be 5.898417473491087 6.436085652690455 7.181530139717605
Be 9.099468062274271 8.384960071025302 8.197830492001849
Be 7.207102065859558 10.747719737371623 7.8204513121125885
Be 9.16315209102495 11.385764878050189 8.578785680713219
Be 4.825274336127368 8.01426149359521 7.7678433006934435
Be 5.525210353270364 9.742762720419346 7.0774888663533675
Be 7.1959076857627435 8.480635016156986 7.656410332035465
Be 10.638908759878928 9.952382973699102 8.454431904071717
Be 11.154331207837156 7.865479943210186 8.581575196583918
Be 5.9604063394020255 7.031355746982129 9.136251956047007
Be 6.142639692672291 9.241270321247589 9.27832282761888
Be 9.616499558745648 6.632653352100206 9.286761763109942
Be 7.851518679113323 6.421376669726771 8.261597441235876
Be 11.83285964823951 9.323459804096993 10.084399351152763
Be 8.154527859998073 9.83303946575725 9.36130683436087
Be 9.731530129797488 8.527193929627856 10.172389281129885
Be 7.745105661640362 7.822557382974154 9.86293034967781
Be 11.275916649254055 7.326516298415257 10.679745289417442
Be 9.976868359438273 10.550522318861109 10.45396733528916
Be 12.13247537836074 8.597989351010513 12.03373108647706
Be 11.529615197552678 10.473731333092264 11.889827591833365
Be 8.217952465481558 9.379716081894143 11.346220508952646
Be 10.126715069376841 9.015288625976206 12.198985289586659
