32
Energy = -88.62142043 eV
Be 9.027388927766543 6.7182631113880165 12.961397163843921
Be 8.825710609001804 10.729027104299744 10.977769211753373
Be 9.47442173030249 9.29591005971791 9.038605896505446
Be 10.595797645541166 8.070563980234455 12.880961845689402
Be 8.97822930124576 7.311434850874821 9.588511873457584
Be 7.86896224046562 11.916326004131196 7.4656227589485535
Be 7.79558519369907 10.508255814505466 8.970640722320667
Be 7.975871232110266 6.968085903985607 11.281548203633271
Be 10.082676473709657 13.47827056344599 8.873737827715356
Be 11.579930678835508 12.053448238235417 8.095588496558726
Be 12.793690079081381 11.470259454017281 11.405617547563336
Be 9.824106395003502 8.720526196367581 11.043401028939705
Be 7.784763751414695 8.857278857323358 10.403047053395996
Be 10.97054818584137 7.928918094294901 9.408559162719575
Be 9.836938584894703 10.04262782206364 12.773829587261927
Be 8.308515376940376 8.60340149256726 12.486637634141614
Be 12.752173982261107 8.923691586199459 9.35615915943472
Be 11.10808984947099 10.192490040499306 10.368395396743294
Be 11.538703418094546 12.455447412303693 10.150806016105374
Be 13.413832599932567 9.618719430844564 11.103736716901414
Be 8.38310234810868 13.843064106706489 7.811759560348153
Be 9.377878928799747 10.511645747100665 7.293796979385039
Be 11.966854962912663 8.09211384300732 11.240367413925076
Be 8.031288574187057 12.54548812538562 9.444346060018605
Be 10.21310390770271 6.676857899445155 11.201659963739548
Be 11.346387375768762 9.947116068933706 8.207348835711752
Be 9.777446184070044 12.532223812600463 7.01581971955914
Be 12.938550864702684 11.006465553382327 9.35211640354902
Be 9.60151901548007 12.75599527149944 10.814188009423493
Be 9.804826000234616 11.418358418395684 9.105949526853337
Be 11.8686871760912 9.798656336014451 12.506565739026792
Be 10.799309233103575 11.65395962700466 12.016399311602036
