34
Energy = -93.66545867 eV
Be 10.43493776735392 11.636931871782494 10.60462441524629
Be 8.695512389867538 9.473629945316588 7.75033440954223
Be 11.838628188454857 10.140769761781437 11.784224339816193
Be 12.186295837695999 12.853211550672706 9.573830412735218
Be 12.314767380157496 10.7316415621037 9.773060095448114
Be 11.253092504411136 12.591151007325406 12.919184205904223
Be 12.190782550786773 9.234688605793167 13.768132051768967
Be 10.244388324373576 8.98483848523184 13.107396195403522
Be 12.602642743812535 12.078701876458814 11.424023772082116
Be 10.998092943946412 6.776135491091852 9.899187809181704
Be 9.07445271547642 6.2800643970270755 9.596304176970023
Be 9.794194960431215 7.4961564247834 11.402714472520028
Be 9.59129810304703 9.640503747800818 11.186547027650455
Be 11.656820107421908 7.910403172686273 12.132686901141163
Be 9.24220662984226 14.345390122209455 10.552358099597564
Be 10.187859919260996 6.421223419750931 7.892565322177345
Be 10.48818509692297 10.111382009552344 7.019882120495977
Be 9.272247344796332 11.663597030418645 8.081603148835294
Be 8.352523296634482 10.437420397369664 9.601487343559203
Be 8.288596368548589 11.281675911396619 11.475924239681236
Be 10.247714858457833 13.380616053794173 9.062723794994639
Be 11.104255369008829 10.841646267421835 14.357959616881773
Be 11.302524757407312 11.770860307118905 8.152646682573605
Be 9.785169697897315 8.137042378852229 6.663623247450796
Be 9.22601792811113 8.403646644422937 9.516207642085103
Be 8.367141053909815 7.313609632195783 7.880665007428774
Be 9.876797484149867 11.033989742362396 12.764369898189365
Be 10.421391732614753 10.07466476194167 9.096429737004462
Be 9.321514324186301 12.957037904303897 12.041105351885617
Be 12.79363937855675 11.235872615435383 13.407993591498725
Be 11.072341212916692 8.26846494013717 8.251602647307942
Be 11.429636192145402 8.739308952353237 10.285540371338373
Be 11.113842953209328 13.723473460727611 11.12834288813716
Be 8.416602580854372 12.562471510880162 9.877456349730664
