35
Energy = -98.03561323 eV
Be 10.575334955590312 11.92270862589751 10.248953147011571
Be 6.741541002420126 11.069911156653141 8.743840410821855
Be 8.554677463054528 9.863511515345056 12.214157035359962
Be 12.070904638513442 10.41550640461398 9.34055819999729
Be 6.664093721850448 10.968486782927423 11.540231491903825
Be 7.455566998725731 6.866859427162988 8.215659373801387
Be 12.262886023660002 11.312559834117904 11.24732897098186
Be 8.560516234420556 8.251352337264937 7.000379610544087
Be 12.471324700594758 7.755356484645046 7.541281711104371
Be 11.85020230933257 9.299119565870264 11.172916241924181
Be 9.885923034738237 9.881229514732581 10.193662877720957
Be 8.699099631114217 8.023983176980792 11.193504372014285
Be 10.509956063349696 10.78835572014015 12.171344229039995
Be 8.937958541729683 6.3550522756038905 9.68190985286368
Be 7.065028556782852 12.539183792076736 10.239193589248147
Be 7.779028719868792 9.827126326007097 10.186056383272478
Be 9.971590877494188 9.749625684566263 6.592796967411092
Be 5.294556444741383 11.572274716736219 10.175013476600759
Be 5.714660623442721 9.595990225812251 9.887393410721641
Be 10.276793410218374 8.73522745528332 12.315456214408172
Be 8.712718621310296 11.695725203807068 11.32334314664819
Be 10.609551852043401 7.690177604747852 10.494149286610808
Be 13.549275293663596 9.264400371869755 8.338508238585153
Be 8.713458081165815 11.83442708144943 9.223857928287071
Be 9.31228525491487 6.338713228610237 7.560308941008839
Be 10.744778681624034 8.930343911605197 8.52119502569395
Be 12.438174595403234 8.046815442913397 9.572777158063605
Be 7.012525206958541 7.704306440665956 10.031224957782944
Be 11.993526647408187 9.828606179063609 7.148586171909551
Be 8.602051769664259 10.134009490755771 8.089563434084422
Be 8.915141503357825 8.312357515538363 9.130031076940048
Be 10.95887772085152 6.751489848896883 8.652001348448287
Be 10.60926389200118 7.776841265541205 6.656050480551775
Be 6.877343109087953 8.901333306605494 8.307722117879392
Be 10.477932062164255 11.108107497942843 8.206909123859285
