35
Energy = -97.03563744 eV
Be 11.832700049607775 5.293478702440316 13.034994155836324
Be 10.305844724912943 12.461275868246023 7.585517506392255
Be 11.881878879714916 13.89546614008083 10.326743486932575
Be 10.314831700497226 12.448267485031435 9.887925961708763
Be 10.643703956897209 8.80118748166147 8.97567904519735
Be 8.518652800934925 12.771215760963074 8.468455975687437
Be 12.986054946768498 6.5619991630783385 11.987546802090336
Be 12.026703404534297 12.973949164242866 8.53082080745448
Be 11.429668710041796 10.817379113386199 8.273751470443525
Be 12.562612553324279 8.64009110104923 12.034264339844256
Be 12.307258540853281 10.525022190130214 13.501093122784914
Be 10.140553462963739 14.240670677171204 9.003093511070478
Be 12.374421392320981 9.461884455750653 9.90886037524472
Be 12.321325800815162 11.543694113332338 10.003018369319351
Be 9.122862233540653 12.254530408986732 11.817442265096615
Be 11.02728968119683 7.043317462486279 12.327460703523807
Be 13.394696881753076 10.741613449689115 11.609809084460137
Be 11.336449617644254 12.25205561033891 11.728500040168345
Be 8.707786021283303 9.339097143228543 9.824113915681584
Be 13.464067776749186 12.892538489365037 11.078005455160515
Be 10.207087024706954 8.518756046723798 11.06227530925979
Be 8.280963628107488 11.40577557741662 10.088132959286613
Be 11.870774452623559 7.495425580723874 10.378687950145215
Be 13.423814583715112 12.286661931240241 13.013798639051817
Be 10.19783333478057 13.422520604778464 13.200683555708622
Be 12.151217975095756 14.032044486632623 12.492430295003322
Be 9.095360995188331 10.136824936649765 11.831707467005605
Be 10.62894001054529 9.017859421382393 13.111260626047693
Be 10.245716999522886 11.175097504772163 13.351373616181938
Be 11.412046426426768 10.225964609096303 11.675162325379002
Be 10.322950121212155 10.501267357322183 10.077829633587994
Be 11.750171800046303 12.484143141350604 14.092288667883667
Be 8.483247650543388 13.600718457238733 10.317196355054524
Be 9.25015841261939 10.760581940752246 8.28541492031314
Be 10.17606435575105 14.173335330500366 11.31037219323277
