34
Energy = -94.00228633 eV
Be 8.245292703282818 9.008628976137695 10.56915419142928
Be 9.386496378815048 9.37941272634837 6.567214472061576
Be 8.306393972515451 10.714841158296126 7.726416699827127
Be 7.470385126861325 7.50923112422601 8.96557467071837
Be 7.217530855353166 8.759260599254718 12.221082690873775
Be 11.037444309140973 8.663174927179252 7.449074721613135
Be 9.237845058142172 7.136070783123523 9.94544889275485
Be 10.811081305823738 7.099060731228444 11.286862761971943
Be 8.709908997272622 10.842248427240802 9.869388766309228
Be 12.388370718214711 8.163145101791013 10.674550229908743
Be 10.781807924089662 11.511356407146911 10.086125627068972
Be 12.09889404467575 9.473650686762419 9.034467772581642
Be 11.06265025665176 7.581568656149654 9.166108835419646
Be 11.26857913326532 8.963099394007049 12.33859751031462
Be 11.115915949063556 13.34513047407217 11.723407787888808
Be 12.637907902834725 11.50387406965861 9.208563244086607
Be 10.417985746554033 9.38461784997848 10.45520719023504
Be 9.265751105087022 7.417559771416184 7.592253266318688
Be 11.04385981946947 11.140081202630352 12.219353200192876
Be 9.260075092420456 9.049531097515422 8.76700339343735
Be 9.34634105579477 12.398346859286947 11.310592806833382
Be 9.263224134064457 8.104353747298326 12.154464406576379
Be 10.581940823073579 10.730400053081569 8.024846421872558
Be 12.710693083819955 12.168533306407355 11.382854081117575
Be 10.146777905155771 13.781776150880091 9.943835079289453
Be 6.243133293559159 8.194156837121604 10.447503057342194
Be 7.044184511596174 9.652420749283147 9.06705306830746
Be 12.27955178977358 13.55774605798194 10.003120746507756
Be 11.191804507444642 12.921117097685654 8.398699307092112
Be 9.214949837780267 10.21200776944062 11.992392663853193
Be 12.423870492755066 10.179774221496594 10.943067826492129
Be 7.633319556545004 6.9792033904904605 11.192905352729591
Be 9.246811556571762 12.388894535340619 8.673904449471431
Be 7.5827576803205305 8.759261687829795 7.272441435290712
