34
Energy = -95.26784371 eV
Be 10.865187714155905 9.086899410952968 9.785506550376821
Be 11.802453571794375 10.522092573695172 8.64798528238998
Be 11.836467561827234 7.433088392670158 10.318255552920522
Be 10.503332257352719 9.231831034823346 11.827100952580572
Be 11.197437727515549 11.549570999091038 6.981276599215543
Be 10.799991930115095 5.723422824734134 10.605133205886371
Be 11.984413300781403 8.197857348130594 8.269830422812653
Be 11.04965382861339 9.492635690131733 6.913470367089372
Be 10.882480755348597 6.399647660403068 8.683830987049749
Be 9.779407309448949 7.505708477076666 10.939892047483513
Be 10.668180461356666 7.441131699454137 6.878155837378154
Be 10.63117634742348 10.973713911542887 10.529239642036162
Be 10.414753630912028 12.205559557784506 8.816298486954283
Be 9.126522691420977 10.788373533387464 12.076763663928178
Be 9.226044702649707 8.069027366596202 8.782757959505624
Be 9.558169288840967 10.228060273987035 8.526955393350907
Be 8.981813693088338 5.990182793834036 9.589150792223727
Be 9.30950589285517 10.805785848475612 6.458345310385429
Be 9.088203677079903 8.672773256867078 6.54215894139415
Be 8.90737308695646 6.430704986347881 7.424274101191054
Be 8.765354508370429 9.471496280784411 10.35316773867056
Be 7.266920406603874 6.589207575165966 8.690611741201161
Be 7.709794174444356 7.422788815195814 10.56437785702598
Be 8.527307843263243 8.624070128788592 12.26475117839352
Be 9.6443355533844 12.826421048935853 6.962707652224358
Be 8.774621894927185 11.835691981471966 10.135618872929008
Be 7.19711238326979 11.261041030527805 11.274804089961549
Be 7.327914508197551 7.791834964496175 7.075230133729098
Be 8.232874244345213 11.870320205886317 8.082009182296138
Be 7.312607895778342 10.115773813007651 12.902515328796675
Be 7.583346381470958 9.919889098534558 7.4071785339923535
Be 7.0944859171658585 10.645053499518411 9.328896118220886
Be 6.863700072393245 8.631929425263442 8.972618348348167
Be 6.733446968669918 9.25417624784129 11.074844260686426
