31
Energy = -83.75147308 eV
Be 7.451999224855263 14.06260390760208 10.594361512223983
Be 10.910044112516715 8.863350284881246 7.787265015117929
Be 10.710486722313172 10.245908664464515 13.378257397407634
Be 12.50335571094106 8.239634868092795 9.031163125707716
Be 9.440768158659589 13.827794240434452 9.983684679092308
Be 8.10203168774232 11.314629087553552 8.54341864830522
Be 9.988795177787566 7.21021135398098 8.942991915864459
Be 11.605714243011384 6.890816501165621 7.769751019718493
Be 12.064275726560432 11.92120086341438 13.060121687896942
Be 12.579117520036764 11.692154398819698 11.04172964613944
Be 11.804247744893399 10.332864126827717 9.02435993291838
Be 12.675566017230167 7.476362158858404 11.007688938247412
Be 12.722929251666068 9.519751807494666 10.692250253857784
Be 9.409974439009583 12.859600653952793 8.146577832474602
Be 9.060942178936186 9.165729102055973 8.514369560074702
Be 10.843150327870209 12.906317804829849 11.543368728055007
Be 8.796593768502357 13.084347257505925 11.865889342590947
Be 10.869585122112984 10.654940621181458 11.186573540691155
Be 7.546927896776536 13.296313742584651 8.786322611132299
Be 11.491304560555006 8.638196397633486 12.242899435859615
Be 10.075486384521184 12.225958002743115 13.326126028455167
Be 10.080918657607434 10.863344063402105 8.011212708662578
Be 8.897581496984088 11.058869009084916 12.1824792404268
Be 7.560017079964986 11.977189042980255 10.560128225393466
Be 10.589054016454293 7.070939317672167 11.150550027842558
Be 12.800920626589466 10.113332617553793 12.637682698668378
Be 9.037830187564694 10.462969017460699 10.175161703830716
Be 9.58485625433053 9.06883862244847 11.823713525949028
Be 10.6298436915392 8.824271813776978 10.052056342737833
Be 10.779312218423925 12.214096315594933 9.570576137354324
Be 11.727889065260323 6.258983605164909 9.708787808519704
