31
Energy = -84.45856952 eV
Be 11.393678032355792 13.604842038917935 13.123421809196108
Be 12.112484858914655 10.83133087394933 10.97524031542154
Be 10.509231332807257 10.55080017450907 9.479939572414397
Be 11.719366452235317 12.843263677907492 11.156133337179233
Be 8.09828494705147 9.185848778858233 8.20885102468521
Be 6.378136787934722 8.785173193414039 11.405476658604659
Be 8.0134659976305 7.671814210236691 11.721007777849909
Be 12.058834425833247 11.95828828732182 9.173338176969306
Be 9.991152764373156 12.52538555002744 10.008236909652231
Be 9.787401371563082 10.144666262231143 7.217965272068167
Be 9.803295799565104 12.655384207034816 12.102302065737963
Be 7.463699525587712 7.967478465387567 9.802306670578657
Be 8.992766896243554 9.443811424151686 10.341483879067773
Be 11.81489835160838 10.713735532683389 7.442150887561209
Be 11.48127424156011 11.622784860538307 12.884785241575488
Be 11.653085146983273 8.62730272426608 7.393482548593092
Be 11.127007931631905 8.954754307872745 10.736257471055069
Be 10.117546583023485 8.69204890908016 8.802687590099216
Be 12.377905400813988 9.67386856887954 9.142184243202886
Be 11.837885263898135 7.621062309536119 9.300964522570085
Be 9.689233423432547 7.311054629082774 10.337224641594046
Be 8.347175365398874 11.58502468182628 10.824614699681133
Be 8.628570346684866 7.070990748026641 8.322768236977327
Be 7.082276897945607 10.134526845716959 9.978867357207584
Be 9.59059305594947 8.090652668986847 6.8236695293354455
Be 10.585589696695047 6.753600283248451 7.957952822400465
Be 10.077105079967183 10.637097440736468 11.688227893513286
Be 7.948174502346438 9.89474148338703 12.100930088311527
Be 9.685737307431737 8.60977391272609 12.217136775678872
Be 8.633482789840924 11.155982901568478 8.77317786348279
Be 10.37540309983569 12.057653725034173 7.931957794878542
