32
Energy = -87.7164331 eV
Be 11.263094103387795 8.165818001293255 13.932010880505473
Be 12.783585557405031 10.763416741048923 8.348824415632734
Be 11.68950966796406 9.020140934524616 8.40674437299734
Be 9.041441568047489 13.273515435286749 10.859658359699566
Be 8.591596802552196 9.543579008603267 12.486844024802409
Be 8.73375138077506 10.244445117622949 8.137373616111468
Be 12.259406005024086 8.86976569342065 12.125361134494979
Be 11.341646512720379 12.175091558319922 7.7144365001917565
Be 12.346106285653773 9.891164284705182 10.18466857167919
Be 11.267869788702475 8.06403796738802 10.345403853990064
Be 12.239744816044215 11.999842430696006 9.893717831990578
Be 9.386964999675504 7.79905665423673 13.338040656894664
Be 10.2857318289767 11.051627437799606 9.499222550717082
Be 9.796534752717786 9.645007635611165 14.224242797043821
Be 8.753492873470906 11.365561498522863 11.443899030887412
Be 9.94985262586285 11.035683448982217 6.348177771656547
Be 11.727858900123136 10.238460942201344 13.690894915315358
Be 8.579641765808443 9.725661617120387 10.257187220790986
Be 9.27647711120832 12.272027557536278 7.806067869592947
Be 9.86947530833501 11.401780408827651 13.139403766215064
Be 11.781456502852095 10.31177147713058 6.64108949856846
Be 10.107642683342888 9.131377419922494 6.982482346925495
Be 8.672954784980448 13.847739306778408 8.903440996903479
Be 8.222512728192093 11.799045753030981 9.522868161836193
Be 9.728891983008403 8.508516305741919 9.010091348199488
Be 9.303632688476414 8.012056471000136 11.158964899112906
Be 10.969969700073378 7.1794578464061845 12.17433681718349
Be 10.510460393080947 9.990635782637622 11.525438271919505
Be 11.725153444197717 12.222706907651878 13.257803268743825
Be 10.772698826754802 12.216988440611885 11.376130675758745
Be 10.508907812764184 13.225683523177397 9.405185256324774
Be 12.519817862398959 11.016218456739988 11.86787038189057
