37
Energy = -103.54492342 eV
Be 6.54040522511966 8.93971071049303 8.485278006035724
Be 6.911534885118203 8.247726158735055 10.52042311420843
Be 7.282436581978285 7.611136049996531 6.911924381245893
Be 7.823749870371558 7.267162416122726 8.93608999071952
Be 6.598308082672404 9.42177625399262 12.282898944301749
Be 7.021731378248052 9.600152313185735 6.5830221898837555
Be 7.721075461852443 7.78442122300021 12.588480074409615
Be 6.687090890059079 10.330863371612287 10.329586717139168
Be 7.157161999432721 11.063997379446953 8.125261565346248
Be 9.616500859265368 6.042122411533856 9.355482192959606
Be 9.242132415287221 6.718333057237119 7.454291516248759
Be 8.76935194944818 7.188072434324636 10.879884191823095
Be 8.384958553270227 9.880960818659977 9.22131859150503
Be 8.335600145329243 9.498558031485107 13.442882482573902
Be 8.764335499802467 8.776388268178437 7.606485458427908
Be 8.923058081187847 8.78214975255986 5.684696820871206
Be 8.714687158457194 9.333723286854783 11.136767321585012
Be 7.89220980068058 11.088850306562989 12.04682578593278
Be 10.06817390090999 10.793985436475344 10.278969932549424
Be 9.863447146971213 8.114610913853735 12.510810427994958
Be 8.768882768133789 10.73359813915643 6.647034815148323
Be 9.092612466351794 11.918862475405305 8.370537297952652
Be 8.143942455508874 11.777220762875837 10.138250653937076
Be 10.854388221745458 7.011390057195987 10.796547688373098
Be 10.278911638559938 10.08192628886978 8.186509868706446
Be 9.91321310680968 8.433354375175956 9.421940093616598
Be 9.937555930788736 10.417976479147459 12.48144892368563
Be 10.610314348367961 8.069770723528505 6.817729727373323
Be 11.284489393071086 6.8752736987274865 8.433926084412176
Be 11.078445814427301 9.12189069581568 11.183847402506125
Be 10.52764527267087 11.970316950158818 6.88024533329425
Be 11.105941894502328 12.080607600500745 8.904217999108727
Be 10.757531797003875 10.001970872386332 6.114787442443907
Be 12.2796389617559 8.160517908437072 9.76314430721605
Be 12.126875865395967 8.896588973320858 7.86649827700475
Be 12.019483285960025 10.256985412605383 9.545459101471499
Be 12.186693941406544 10.986080776206654 7.542776784399584
