38
Energy = -107.26697242 eV
Be 18.490528594070625 12.891242513815827 14.564068508465219
Be 15.498477150331102 10.879656795167152 13.959480332011191
Be 16.355684412344306 12.596935276071026 12.909671867780702
Be 12.951616293168273 13.803190426032035 14.972908381326732
Be 14.14613950184579 18.123814743029463 15.050557454500122
Be 16.69042390642315 16.035673406126246 13.411393312386824
Be 14.154344787931388 14.34239119745512 17.75261489755363
Be 18.35284387669357 14.711189347101202 13.594122678100465
Be 18.476291677379006 12.829845067085927 12.621502861462062
Be 15.576983643781947 15.886747950328026 11.698855462334109
Be 11.15100707566319 14.837337455681439 15.231151822266241
Be 14.87451488151194 17.141101858076418 13.182924865399155
Be 13.586242348135569 12.668123391548605 16.57231329408077
Be 17.005796197854032 14.40376217477819 12.092175374933683
Be 16.650391476239545 12.06703573197571 15.1635103755106
Be 11.395284852939612 16.514447359545823 16.482217987203338
Be 13.578490065290072 15.668271725451133 12.009390933044788
Be 15.663895762249334 13.060716927073782 16.664495517102964
Be 13.16437838313482 17.835986752806058 16.881415184270246
Be 12.082394704020958 18.197921615619755 15.232603607463597
Be 14.799312315579993 14.700645510727298 15.870602978483854
Be 17.635644800976433 11.153917041902714 13.616279105185072
Be 12.925775432872525 16.061961237900363 17.912084128767464
Be 11.071774268692739 16.7210311427865 14.3802787111043
Be 15.505860686718437 16.49353655490219 15.07101190276235
Be 14.393919551384572 11.902411715210949 12.583935154867508
Be 12.274966116479392 14.423861292670885 16.918431060127578
Be 12.852323951504072 17.283209889341666 13.434697132946646
Be 12.266126823735172 15.246567339456847 13.557840467825281
Be 13.447871834364628 11.618933348475244 14.539099488125132
Be 13.170474265424204 13.480100958089682 12.92878045312868
Be 14.883578885036778 13.07359075171336 14.496925788211856
Be 13.263219202199208 16.03379427788921 15.36463890805003
Be 14.521735085042797 15.057738819579837 13.83490573797701
Be 14.91976643377191 11.218556206093776 15.954167639528924
Be 14.932971178205756 13.883625728090271 11.860074756371946
Be 16.68173111179923 14.292283428119774 14.815863270935012
Be 14.71606821712557 16.43248259630213 17.045929680177526
