33
Energy = -92.13187289 eV
Be 7.226993202115905 10.586288748451853 10.718174355267145
Be 7.595354979973243 9.166805444599778 7.265935708348965
Be 8.732438105963725 11.786327645151621 9.798462228864658
Be 10.461278578023034 9.23899240861425 10.95630209161028
Be 10.750887069997898 10.53338478320955 9.340929034324995
Be 12.326053388629658 9.015726694866167 9.46080960251774
Be 12.412352792403777 9.157780335373355 11.599741602738188
Be 8.540628686202 7.3424076922629755 12.565069247081691
Be 10.661786372818694 9.888130255995888 12.898826165299651
Be 8.757497433452754 9.588006796497314 9.937434350662697
Be 10.893124203129403 11.04292646609675 6.807331314054179
Be 9.52447711627899 11.210102578583435 11.557770460573566
Be 11.592128806501181 11.068109977293663 11.5028472172543
Be 6.5935392098009284 9.27734291870601 9.17498448454431
Be 9.806931459499546 12.226525664301677 8.147768448001987
Be 9.621174935641585 9.504332804230561 6.031408610464505
Be 8.059947418837549 7.8142682182479 8.897755065136806
Be 11.247553966078973 9.009047797301005 7.412875509570371
Be 9.296759919058106 7.445271714358185 10.702515437583296
Be 11.882233181586571 12.26676499115308 8.452654985022654
Be 11.520446704440326 7.454593322326917 10.619247592668305
Be 9.337097741810457 7.917969288788445 7.254775374377972
Be 12.616471776725556 10.481544830701646 7.911248522023528
Be 12.828000093353216 11.045631989049083 9.922227654188468
Be 8.66581138220292 11.250644374948156 6.67118255550537
Be 7.369943781085656 8.294526394612133 10.922010601655114
Be 10.270718913202051 8.250879888061649 9.07847418330228
Be 10.682683623183438 7.747605992699749 12.490845033250082
Be 7.440846592203866 10.971618228866316 8.457332596417762
Be 8.617284362307931 9.436590707560347 12.13478156274996
Be 10.710615957485196 12.441384569244956 10.208673178189384
Be 9.420309848374664 8.58284440997536 13.924233518606263
Be 9.33283755654665 9.97617514123877 8.068351135348218
