31
Energy = -84.75079105 eV
Be 10.4972241948005 7.259198870288632 5.860222240274402
Be 10.712593856057833 13.510533978979511 12.283079810136776
Be 13.427427951272142 12.074122771164706 9.740399776700889
Be 9.9730861480819 8.61019088665456 7.338600842772703
Be 10.382036037261656 8.611427903057127 12.676018664172572
Be 10.066502428167025 10.596817470773406 11.940988780633417
Be 8.091460369630342 11.088916100458045 12.890317291272025
Be 9.892114217224814 11.96726838919171 13.626053391839347
Be 10.648756402348527 12.639929043014149 8.44174814843746
Be 11.343769528117333 11.741756086608454 10.669526161256371
Be 10.152193056850958 10.623965378827151 7.966099758091229
Be 11.5276054021833 8.256631680637666 10.719428387552389
Be 8.297923076476966 9.048895390989498 12.602445198035483
Be 12.089788236765543 11.164311504830382 8.428567460816192
Be 9.332736559449875 11.60146109553713 9.696514129683623
Be 13.400249070573713 11.411744563196233 11.626884256660245
Be 12.848372667109249 10.046123895593848 10.040761412915883
Be 10.394622886610481 13.677710408186936 10.257289022473847
Be 12.044312299646036 9.88775183180114 11.94251092777638
Be 12.202039936888267 13.601732739316855 9.26475223057852
Be 9.228462617465373 9.995144009064955 14.155711744316221
Be 11.728714569980172 9.004780208208897 8.479281383954364
Be 8.802304867510822 9.379192359614795 9.0333067777143
Be 10.179537014552169 7.7852960823900395 9.139912781089366
Be 11.222403148196031 10.226092324322812 13.797045314415662
Be 10.637741334086344 9.93411073908427 10.033719793879277
Be 12.571830484921513 13.395350960169015 11.301876832285421
Be 11.871439437766673 11.930242441239413 12.857739603912187
Be 9.121095548503737 12.442495784543965 11.601337706122814
Be 9.305404088203636 8.408168389926985 10.891640084011154
Be 8.232389452174495 10.304773601205898 10.92235697509705
