34
Energy = -95.12449203 eV
Be 11.97066586375967 7.898628354743278 9.402679539493096
Be 10.451638757770013 10.078091151532016 13.841351255576097
Be 11.913078389302083 10.14378349333799 9.534649855832075
Be 11.299248377831354 13.453923719299363 8.536370225278825
Be 12.70102091892113 9.17963819572187 11.146851937353533
Be 8.45656460203352 12.166101064766583 8.526953376209674
Be 8.458363237566939 9.686215336087624 11.069466439999712
Be 8.844844940697339 7.404186307414023 10.859111892086835
Be 10.921265606580544 13.18159780547704 6.560847408007458
Be 10.843287398008352 11.373782238816977 7.949430461196547
Be 10.609908084294085 9.125866237164072 8.262088242395583
Be 8.91189624240766 10.217511482027534 7.664378923959174
Be 10.657178202151357 6.185022089115758 10.484287243061003
Be 8.45996834128683 11.837319652118595 10.74875488322604
Be 11.519430348590221 8.70287641646731 12.79101479805172
Be 11.252701489158481 12.144508182485286 10.159995822098304
Be 10.682001608812618 12.04629917874356 13.616065408508957
Be 9.233991275623842 12.022059655016657 6.613871197905451
Be 9.439394869937052 13.866792734684035 7.641283714605767
Be 10.753879884450425 10.55244366431784 11.56044526486648
Be 12.399307664828536 10.682845579628898 13.033957423523878
Be 8.931022156916928 10.99452907758125 12.73461536509455
Be 12.114226040415627 7.238777030871957 11.433416084124929
Be 9.577857994448099 13.377150580216846 9.750758768029149
Be 7.6531043215083505 10.458278531906435 9.341929464893543
Be 10.448370216976821 8.74295504531245 10.609234159118142
Be 12.91499065686795 11.22383907813396 11.031875998703375
Be 10.301793201725772 6.94507143176773 12.323944111849706
Be 9.389329931381747 8.757199035996706 12.61313884922511
Be 9.955041452673177 12.75551025754928 11.829994775295894
Be 9.820082168725653 10.577750654261651 9.643285976364178
Be 12.00271654780099 12.610314111560255 12.200882649610705
Be 8.695201045148192 8.729304773727844 9.172670684021913
Be 10.007514967839324 7.230714658588001 8.90128460687282
