32
Energy = -88.9420162 eV
Be 11.176196815800537 11.25143020142186 10.036183417993442
Be 11.318575224204288 9.350063793884361 9.31523896933159
Be 8.21705792707688 11.013907875074043 6.725582662142852
Be 10.467320691693784 9.467696984976138 11.32602395909486
Be 11.338064499311903 11.04136374525227 8.009153491675292
Be 10.370423129243855 11.660605496285893 11.85374126811064
Be 11.091993436819894 9.191122704673928 6.939512153935675
Be 10.222587306591421 11.068351471639778 6.329477871894389
Be 9.433375301501359 9.739996317806277 8.196147257366443
Be 11.351521678344708 5.83227941177284 9.556909089738117
Be 9.115559649423911 10.535649967618282 10.101558079014104
Be 9.18676804381499 9.412514780535359 5.902036594544559
Be 9.394156993909077 11.948762540251005 8.273846756488629
Be 9.421551176532182 7.757925850224551 7.205924758810371
Be 7.449608847757644 10.805242546977501 8.644600167056211
Be 11.143814902387284 7.535605940864826 8.389016628880146
Be 9.632755338784746 6.064719790466883 8.476240847805407
Be 11.2927062918004 7.570498054495709 10.626533393395576
Be 7.938741511579733 12.477620799093115 9.70904563140352
Be 8.089872659751025 5.420320685862602 9.584087214309546
Be 9.431056445902556 8.216841809189917 9.697026064595937
Be 9.901976703931668 12.83373513470106 10.191241463990416
Be 7.600907345422551 9.018760359027908 7.37342200837765
Be 8.395876929493811 12.36000675192828 11.695025131411759
Be 9.707292485645183 5.984896915221783 10.707614000978005
Be 7.779364706732581 7.165749359309781 8.448645499803414
Be 7.338848947073893 8.943457890547977 9.486431750005284
Be 7.803553696629695 7.092585972295098 10.679949203017566
Be 7.18305068309465 10.78052918471726 10.82511501923693
Be 8.856362297029804 10.471423500913177 12.431961128610542
Be 8.125192352458825 9.000941423318734 11.345417571451978
Be 9.561779306389152 7.682508963158718 11.908070009926096
