35
Energy = -99.33190522 eV
Be 8.689639695538595 6.889422698447488 6.720902452195605
Be 6.630305964644919 7.860506328393152 9.903560610206
Be 10.5349479400035 6.153799147279702 9.854138770892957
Be 7.972337316992719 9.48361505785187 10.164119717326358
Be 10.780991487862233 9.648309206839235 5.958329358516881
Be 11.392917950924458 8.198104719750654 9.046244831164755
Be 9.155164349625958 7.8809986058367 9.594367873997921
Be 11.988508470409442 8.299845922097447 6.996604167783484
Be 6.021306693255736 9.885814073778844 9.231799213987573
Be 9.60738730009268 9.05990994642587 11.686012006236615
Be 11.187639672368235 9.723379060978367 10.462555605273261
Be 7.434721374031432 10.338626099468918 6.152359851526599
Be 10.477798213967466 7.544942606001966 5.831276878853672
Be 8.703292110050205 11.657168045910801 8.984302243559394
Be 10.79853039850005 6.569902326672747 7.70547418577415
Be 6.886603758719908 8.100626773572628 6.399927391003282
Be 6.98608459008046 11.297698085458148 7.970239305398683
Be 8.801272222847132 8.85078087428869 5.860756791830186
Be 7.952950335975849 6.236113172680264 10.293336098442653
Be 9.074889435645295 5.791079338376786 8.45747505489021
Be 7.163074903112385 11.402165972792641 10.293213740737047
Be 9.805485820675736 8.463597979868677 7.666002939267804
Be 7.8775906330753065 10.215774360329252 12.167245654973511
Be 5.726556722235731 9.854660708040768 7.103016488814029
Be 9.480845483224641 6.7841517848746 11.614466180518237
Be 11.16689388405306 7.725910118975501 11.077509171003632
Be 7.84710049730948 9.143863416992064 8.09793097105776
Be 9.283929541395407 10.581432508328644 7.13964582464739
Be 5.631190704972918 8.131528868359123 8.130950927913544
Be 9.696695801184527 9.91455292797827 9.128014173319803
Be 7.281077444139666 6.822748218616716 8.235344748877937
Be 11.33520749841833 10.066354220149517 7.960074341962087
Be 6.2176358421746825 9.43177957277723 11.251349786847499
Be 9.324734401066983 10.995650142638326 10.90600122241224
Be 7.781852133724135 7.946561980679655 11.663151416505988
