30
Energy = -82.27122264 eV
Be 9.182851552197079 8.875605847904867 13.921815126357064
Be 12.120499444998783 7.84281436397748 11.386139825935874
Be 11.629601104600999 11.718861308407789 7.814668383785003
Be 11.179261507959046 12.572718257563611 9.700328417365055
Be 10.289506563667493 10.588571988367137 9.569282164251998
Be 10.104596326697374 10.534508884430709 7.021907091582462
Be 8.406537586494752 9.833623214069895 7.901278388319688
Be 11.08551921379022 9.508465007016124 14.313209146712314
Be 8.673504827243312 9.091122504031276 9.901133296958822
Be 13.063459427913775 9.717455953940945 11.155873883526503
Be 9.824225879943606 10.635557747119345 13.159300295915955
Be 12.016530047305414 10.801990301473923 12.963880724023872
Be 10.510845635063962 11.918175103774873 11.589753678271004
Be 10.842624276555167 9.683548860398933 11.493956650075603
Be 10.163582789843687 8.680264982377544 8.406536978078075
Be 11.93473395016808 8.770002721031858 9.582298807523165
Be 12.451616510457358 11.681853907244665 11.123368886327347
Be 10.599849150738871 7.852477383710898 12.789224852086358
Be 8.87603324925058 8.662696853664567 11.90527732180359
Be 9.725165809076168 12.448323922116089 8.129403182550728
Be 7.726469296899484 12.767480088728986 8.44191035870216
Be 6.7124555508899455 11.142130837081337 7.7505082861486905
Be 9.063828575396789 12.499830096706336 10.147570423680289
Be 11.860167624327044 9.7215513629775 7.7352881920734164
Be 8.807698159564692 10.718543212086887 11.314947781568678
Be 10.234963142276287 7.87080938263201 10.433153404327339
Be 12.514769113948574 8.831757851990604 13.106732419081824
Be 12.703100560934189 10.781988903065399 9.327121761331318
Be 7.759686959098751 10.96218091855067 9.567632726150917
Be 8.35128020462308 11.70005227548231 6.761461587409742
