37
Energy = -105.06680354 eV
Be 5.536921202196449 5.001241725320704 4.289854370951566
Be 5.938324283782888 7.158001652635839 4.061321645128346
Be 3.765870958799605 6.366301723049392 5.21727897420997
Be 8.072916520642165 7.975060429278539 4.116219673869179
Be 7.447833522463022 5.804286005798951 4.676002774887171
Be 6.4228076429645435 9.185928132858333 4.439134579747872
Be 4.550449364547229 4.3052727590818565 5.924728194370469
Be 8.113313322475548 9.745523849420856 5.407428947206696
Be 5.576823912496965 6.204517910797582 5.900772099471216
Be 6.664310918499364 4.180454160313889 5.981024325320076
Be 4.988433838607406 8.306437241101628 5.696994289297564
Be 9.295420936688334 8.408338218386199 6.443874158407095
Be 7.138320639958409 7.72812042580189 5.912261571619489
Be 8.936172477506679 4.829309264126749 6.358609579068357
Be 9.109439374371318 6.642474595797587 5.528309903701856
Be 8.402209794922953 10.13211931193986 7.505785982960859
Be 7.245728269438423 5.909300303812038 6.8498636860211946
Be 3.709214049163341 7.476122930408472 7.045900348487501
Be 3.6237645102286646 5.544847265825524 7.324514589151348
Be 9.690978718394723 8.41325886951606 8.489699761923914
Be 6.349850494879853 9.75767362916015 6.608536053610886
Be 7.596724845156163 8.27493223052467 7.922471941949641
Be 10.539338294468173 6.567808855791462 7.075696596763499
Be 8.183049417074633 9.457588115842466 9.596425114031463
Be 5.855811784660806 7.2967116390853555 7.548152095737701
Be 4.932608708278298 9.02260250181312 8.090735164853818
Be 5.547827206349922 4.961689275850541 7.770928542711706
Be 8.733882880403229 6.615607726770299 7.859215862934927
Be 6.534841634356652 10.16712839774597 8.655565505657844
Be 7.774086153582005 4.358999767189353 8.062372505838383
Be 9.8993826685427 4.758976045298266 8.225966517219607
Be 6.806349232540949 6.158696661780481 9.07097354200051
Be 4.53314274665909 6.751900685464072 8.87650950441074
Be 8.33894670299346 7.4406393426840545 9.848138057065917
Be 10.26458179631926 6.570311530168891 9.304095240225475
Be 6.285180636904905 8.229701996914601 9.590856465307821
Be 8.616427592674574 5.31340187663663 9.745068887869419
