37
Energy = -105.94811346 eV
Be 9.275876293343456 10.151109064255273 11.82565329661116
Be 6.229472862908214 7.932470940116008 10.97076389092864
Be 7.219868407517881 9.732341501428685 11.684984787006131
Be 10.529651493600342 8.470303335560091 12.404662987878993
Be 7.846658122501894 6.585345437313962 10.893890989686849
Be 11.484773006237443 9.947048409745065 11.323597383758608
Be 6.192282981508489 9.788881452439455 9.729928121476348
Be 6.663110706323942 6.8376784486334286 9.177868777197848
Be 10.291996744077121 10.892039292621018 9.842371128838918
Be 9.900885325192112 6.949686539499579 10.956149409719849
Be 11.856182848948972 8.028221010770764 10.864809566156545
Be 7.971045105999755 8.598164689905055 10.113104014503103
Be 8.468201692969512 8.136434465225522 12.148180634525946
Be 8.18802645418156 10.744573423346061 10.03569887830959
Be 5.078224732640861 8.137122916048824 9.185481146497562
Be 9.924937086146366 8.875151133174386 10.348681728358953
Be 9.274467971638066 9.392978958298393 8.52187438497989
Be 11.681898056184101 9.436644063208997 9.174699785064849
Be 10.003763589669601 6.63315017504075 7.107326837892985
Be 5.778842717805274 7.49555530526343 7.223012861184496
Be 10.929099322666392 7.441349858061403 9.040734044271243
Be 11.190775760333807 8.5007966277215 7.26173771785742
Be 7.223865424694337 10.690593712862013 8.043140696552102
Be 5.4368456753813375 9.516887298711472 7.709807657198011
Be 7.318129810775063 8.525920618756404 8.18642047141664
Be 9.08617037771039 11.628800417056791 8.305837454392002
Be 10.455824816519963 7.7123591558678335 5.36973982417911
Be 7.693793963507785 6.544303286398908 7.207732610867189
Be 8.762633092550315 6.636311762324803 5.3751851345355846
Be 6.9781380899538235 9.462069395082173 6.253321164830849
Be 6.97622649750518 7.596512401544684 5.479571545100941
Be 8.623008586669055 8.817591913918237 4.841045739825373
Be 10.796899353237976 10.615051456361535 7.572183534092912
Be 10.406518347728658 9.683694626481024 5.728576322958399
Be 8.841067969171446 8.384482368570614 6.805957336740594
Be 8.76423737365676 10.564015291325823 6.5735150331663785
Be 8.870949465028396 7.128709373546702 8.927103227923114
