33
Energy = -90.8353843 eV
Be 12.525501972032455 7.155744139050029 9.419086811149263
Be 11.264544257731789 6.273679473809942 10.827989787896799
Be 10.778405405480697 12.512796111755348 11.371060323474907
Be 12.786789614519892 7.532395572868061 11.36736041029771
Be 11.31637801532433 9.021098461066687 13.624142209277856
Be 8.230753508241113 10.300682515445557 12.972336927177647
Be 12.337621241814764 12.81207597609769 10.011774585458777
Be 8.169972543359005 12.511527866432425 8.341250412253666
Be 9.498084220808884 7.311576031828586 11.298241020380612
Be 10.75115532608698 10.67922993245558 12.469926987192725
Be 9.065963496923224 11.450630089430518 11.36730673972913
Be 9.653070614388792 12.68798604660145 6.98039935753568
Be 9.695427011846332 10.19773400347144 14.314839700498625
Be 11.493942469554927 13.244938022868267 8.074952624448095
Be 8.270942276582907 10.878371312098054 9.660229371834504
Be 9.010260850752855 9.001728504255912 9.147797256715979
Be 11.054330678444044 7.138253244308547 12.679203422257892
Be 10.677325501665454 8.025681462507666 9.765506146327137
Be 9.402661562376 12.009826040091891 13.292194434083543
Be 12.326213251336828 10.977576382092494 11.039529627657405
Be 11.00081033901781 9.466078703256981 8.217866820292192
Be 8.972368252492608 9.326868415352651 11.270746466634018
Be 8.88149710040689 13.216864526607415 10.316304255497
Be 12.504367125903325 9.216770294303908 9.794379971798886
Be 9.403907951908025 8.454267933241082 13.141240993627289
Be 11.103042095249966 11.291640926682344 7.21852240465667
Be 10.755490512664686 14.09976272030249 9.890941647358895
Be 9.215330286995941 10.609910473710805 7.811228473084743
Be 12.248956900862622 11.123935132187109 8.89630372052165
Be 10.188882026573152 12.0267400057594 9.23219106644505
Be 10.520174594026034 10.287196983963934 10.161087023594902
Be 9.447101856171079 14.117300644377615 8.354382614274751
Be 11.371713277951715 8.962118191212207 11.59266252606052
