32
Energy = -88.10736198 eV
Be 11.737281637802017 10.302188925308009 6.833143683918008
Be 10.25980987463232 8.943668835123871 6.402523636541342
Be 12.409150414786833 10.830446300657435 8.73666062177878
Be 9.877596941931385 10.87401427348984 6.2424587343876805
Be 10.810283031159182 11.857186866753153 7.894084839932026
Be 10.800571969277952 9.150929448365154 8.474316482234286
Be 12.71766407738485 11.12808275111336 10.753212439345832
Be 11.630778630664638 12.621468380353841 9.777746675066032
Be 12.371909577359212 9.147437094143138 9.882811915795374
Be 13.29300556964599 10.733823517138063 12.700053432728959
Be 12.58200825519227 12.736089520876662 12.004905905900175
Be 8.815984695157027 9.690978017188211 7.7007173619524245
Be 13.956554508603483 9.62786449398858 11.083653776052993
Be 8.720078602075395 11.734041536390055 7.777333029055969
Be 10.601333409411092 10.648522146096338 10.13447446909025
Be 9.550436403057509 12.59096651272326 9.52416438342311
Be 12.218923522544841 9.05612817724267 12.059522944037571
Be 12.404227631961456 11.987799537471089 14.002942349480827
Be 10.520041858902585 13.206478157304607 11.410458566990012
Be 11.158437226326914 13.426066269658506 13.40854511834386
Be 10.653620851274564 8.43833223928242 10.74657253869514
Be 10.987929472084224 11.040710850862284 12.268897342018427
Be 9.007184022370069 8.79135872886373 9.531600772055235
Be 11.851152049699627 9.97605708976977 14.030813168923489
Be 8.348139225554153 10.752147470394771 9.587828654438601
Be 9.049379301978279 11.659626747658791 11.321347407539083
Be 10.259857737135883 8.93223928381312 12.85116373258508
Be 8.979104072526768 9.604128980533183 11.402249967748267
Be 10.429606431309624 11.690377937240426 14.582704965925164
Be 9.35210671786111 12.689160702584413 13.12290465164023
Be 8.946097121252558 10.652900813718686 13.233027161120063
Be 9.935460019059208 9.714493253874977 14.752874131238716
