33
Energy = -91.52188452 eV
Be 14.273283431564032 11.394641673090483 8.393402312135658
Be 8.344020771543201 7.2475336137130215 11.975892559573248
Be 7.433595435682739 12.783808289872848 10.251626170487553
Be 11.535249992802331 10.330342386566404 7.634438727076658
Be 9.113025906706351 12.769034660639411 11.71237016088526
Be 10.445926389309959 7.408202514696354 11.906960088095751
Be 12.675608030532638 11.971908930116326 7.262440806368983
Be 10.812958437972778 9.756377666151778 12.095874511741592
Be 9.277883987226165 7.7030634680043955 8.708576598904198
Be 13.027152437772914 9.796375642862388 9.249476369712013
Be 6.811151608069987 10.84526533744158 10.076625801485337
Be 7.6087654648674174 7.657364192265088 10.13009993219624
Be 7.319125150496271 11.633188105805768 11.893212862654194
Be 11.947648129626446 8.618860819771072 10.748597580852133
Be 12.422383534991102 10.903363362150053 11.228215579814927
Be 10.997758395604802 12.490393448015341 10.62358368760881
Be 10.942066801037106 6.975176687337066 9.92763503705778
Be 7.936715300488278 9.427156981845503 9.185547432073879
Be 9.09427808840124 6.308765294498704 10.35384089367391
Be 9.663913234196766 8.822611389412879 10.465003751215697
Be 9.311983751491832 13.157569976217278 9.648794283816438
Be 10.527731494813343 11.934983779426616 8.501010339996252
Be 13.471087417216689 10.088531487411988 7.1128051562305865
Be 11.35497363040647 8.53002235278453 8.647210176033607
Be 12.511751161683023 11.905884550609677 9.332730658337011
Be 9.678574865200419 9.860433120975626 8.385335736263016
Be 11.095538686773978 10.321162343795498 9.84419927132505
Be 9.006975647346394 10.82711659517771 12.693356378978116
Be 10.855122485658427 11.739362044281837 12.480608121118863
Be 9.20336342152647 8.794035537948064 12.898985974322954
Be 8.308513526030833 11.560974568116414 8.610167507557179
Be 9.189371394221777 10.918650273100926 10.471222805140762
Be 7.718114891410984 9.433451808570684 11.465765629939222
