38
Energy = -108.98030424 eV
Be 10.33868385 11.858786713895423 10.33868385
Be 12.098729557861859 12.098729557861859 12.098729557861859
Be 10.33868385 13.29976293899827 11.864674183056124
Be 10.33868385 10.33868385 11.858786713895423
Be 10.33868385 8.81858098610443 10.33868385
Be 10.33868385 10.33868385 8.81858098610443
Be 11.858786713895423 10.33868385 10.33868385
Be 8.81858098610443 10.33868385 10.33868385
Be 12.098729557861859 8.578638142138145 12.098729557861859
Be 12.098729557861859 8.578638142138145 8.578638142138145
Be 12.098729557861859 12.098729557861859 8.578638142138145
Be 8.578638142138145 12.098729557861859 8.578638142138145
Be 8.578638142138145 12.098729557861859 12.098729557861859
Be 8.578638142138145 8.578638142138145 12.098729557861859
Be 8.578638142138145 8.578638142138145 8.578638142138145
Be 10.33868385 8.812693516943877 13.29976293899827
Be 10.33868385 7.377604761001731 8.812693516943877
Be 10.33868385 11.864674183056124 7.377604761001731
Be 11.864674183056124 10.33868385 13.29976293899827
Be 13.29976293899827 10.33868385 8.812693516943877
Be 8.812693516943877 10.33868385 7.377604761001731
Be 7.377604761001731 10.33868385 11.864674183056124
Be 11.864674183056124 7.377604761001731 10.33868385
Be 13.29976293899827 11.864674183056124 10.33868385
Be 8.812693516943877 13.29976293899827 10.33868385
Be 7.377604761001731 8.812693516943877 10.33868385
Be 11.864674183056124 10.33868385 7.377604761001731
Be 13.29976293899827 10.33868385 11.864674183056124
Be 8.812693516943877 10.33868385 13.29976293899827
Be 7.377604761001731 10.33868385 8.812693516943877
Be 11.864674183056124 13.29976293899827 10.33868385
Be 13.29976293899827 8.812693516943877 10.33868385
Be 8.812693516943877 7.377604761001731 10.33868385
Be 7.377604761001731 11.864674183056124 10.33868385
Be 10.33868385 11.864674183056124 13.29976293899827
Be 10.33868385 13.29976293899827 8.812693516943877
Be 10.33868385 8.812693516943877 7.377604761001731
Be 10.33868385 7.377604761001731 11.864674183056124
