38
Energy = -104.49612141 eV
Be 15.257650666410411 13.667149723083387 14.719801386328234
Be 11.654785976116392 11.673219037137553 13.469469829047826
Be 15.792748108332267 18.712936814413457 16.87768777368918
Be 13.646775612656649 14.146784272857039 11.70516863237847
Be 14.337893405057564 12.034711967214085 15.652155936588859
Be 11.448521445846028 13.344984649028758 14.757741843958906
Be 13.740186253022285 14.71247263444405 17.600145518172006
Be 13.735345329433528 14.942057889759333 13.656408419735904
Be 18.159325773338253 18.16258059162647 15.613062102501287
Be 17.807928214441993 18.494484000827818 17.61657589154262
Be 14.551997793897138 15.453146308861562 15.72496552932953
Be 16.280928733938545 17.350451843249743 18.389866069311676
Be 17.675051858187864 16.381264316469686 14.59999200556418
Be 15.52630165223907 17.524416359511953 13.353103377237638
Be 13.448929493311267 12.86431551108669 13.777523118589421
Be 13.261525992680834 13.924761687332635 15.570630828981683
Be 15.834731221870328 17.095646049473782 15.508002882905966
Be 12.2066900699008 11.838499744685691 15.827090698546161
Be 17.40944452062592 19.889835139805633 16.15322418791077
Be 12.574501317833715 12.317012192560366 11.449458236417652
Be 13.27594362649046 10.74943384221286 14.417775581764909
Be 11.847445701549011 13.567064112525832 16.91691024447688
Be 15.785129224165061 15.502673399863394 13.99825566881628
Be 15.186848059099546 11.779199203685296 13.554751229378699
Be 15.82446585564922 15.302088216521458 17.799745334929913
Be 11.88948831778929 13.737800536992532 12.690538593346918
Be 14.635617344468995 16.86871714049439 17.290003094561712
Be 16.60483376547193 14.92035603854948 15.86698297314569
Be 14.652516275511264 12.244839550816604 11.546808254112356
Be 13.535256912905592 12.641897811198977 17.471975747944676
Be 16.978778433804713 16.38065451551437 12.529252946005586
Be 15.565601393840764 13.797892448148845 12.6268500656683
Be 15.006729961458538 15.733790410991373 12.124520418911706
Be 17.510074560113175 16.491852349868232 16.924277153976483
Be 16.194579953163828 19.02521524591349 14.7807388486675
Be 15.291656482026147 13.510869677836599 16.799588620572177
Be 17.527295040111383 18.131137209260686 13.532640517131306
Be 13.457943026090629 10.841389731245817 12.418651582877626
