32
Energy = -88.75429541 eV
Be 7.683934832190337 5.641654702109927 3.6038632073790793
Be 8.715668860443923 7.577237241556353 3.8689262246300613
Be 6.6731698577314384 7.6296393743404 3.984256571145217
Be 8.437750100913314 4.2872734570527165 5.1131118958239465
Be 5.629927528739659 5.971168772603948 4.338113323053095
Be 7.605411039682109 6.304529061215157 5.529030324977165
Be 4.750681884274638 7.693440445556778 4.940400890962526
Be 6.401454771665253 4.4819207034091795 5.4856336268747095
Be 7.836228452670207 8.709332277440893 5.403419359358941
Be 4.530594396724458 7.943872588606678 7.350407795672318
Be 9.56136227539445 7.620491209605601 5.822172083191073
Be 6.258833482000415 7.590219685306306 6.23580551947298
Be 9.58799272562686 5.896178013844896 4.616605279302627
Be 4.756563797128985 5.965911536401073 6.248268214286756
Be 6.5492150595216865 5.732502584940726 7.333560504741052
Be 9.379430881829329 5.634114203312326 6.69814159864545
Be 8.088512043414344 7.3116870829812175 7.249505396656309
Be 6.316612776979526 9.518908399451265 6.919932109250841
Be 7.846166662687449 4.154616668795883 7.030950423265216
Be 4.797399646512752 6.141255043487207 8.517334266317015
Be 8.475379541656974 9.332354786751887 7.349717582447852
Be 4.369200795455389 7.95524957901557 9.477415589336305
Be 8.456598341868759 5.442042555632866 8.578831474612393
Be 9.49351145034546 7.2637786265457756 8.653906182316755
Be 5.083855222297944 9.604724652121737 8.603761966033936
Be 6.464776778368552 7.674300223532067 8.419451854786583
Be 7.03237538335272 10.157992331057837 8.724426079363257
Be 5.678458747199085 6.690316250491189 10.36028182054477
Be 8.258702888688767 8.727350991613182 9.340021758992703
Be 7.813995933172459 6.848632773295797 10.031469102146719
Be 6.582267407200234 5.214581044192308 9.340236272167433
Be 6.292961358680216 8.691718058147863 10.240036626661361
