38
Energy = -107.06409826 eV
Be 13.162465688266485 8.839018993365505 7.943043746555703
Be 9.285072821715868 6.717604077442538 11.426857250873299
Be 10.19002776649874 7.388377061367121 9.436449914447216
Be 13.561464801164721 10.777906986353441 7.987468883983458
Be 11.330558036857706 6.951689263967262 11.223764544322933
Be 11.286070846544659 8.06435140422927 7.617881892737925
Be 12.248371859107346 7.972904667761946 9.546235932436561
Be 11.698640371284144 10.132073200099592 7.172856842421147
Be 12.924472153388926 9.990555445727075 9.764102467828982
Be 8.359342853274695 6.336478761572948 9.171015251379046
Be 9.266521719377613 7.248422635816537 7.45014114220211
Be 7.752513692792735 7.65848048516952 10.59913707444633
Be 10.295551877810016 8.014898351374356 12.651419220492068
Be 9.692839814584618 9.375039279423566 7.055220185501065
Be 9.432621086148252 9.000237591048988 10.699768583462653
Be 11.922490485247392 11.609520439576585 8.825338039380803
Be 10.793470328644178 9.614646778165227 9.093784375607568
Be 11.56653001029831 9.018949755512743 11.215642976495369
Be 7.395713069648332 6.4959680096335255 7.312426566772056
Be 8.381934847340546 8.749036497513536 8.827316084443984
Be 11.132496758414364 11.029852781426145 10.764701638130186
Be 10.039251766378438 11.382015968174521 7.813535072192039
Be 5.866684464236917 7.77990958331002 7.082275768146073
Be 8.33193583854941 8.52970797237259 12.393979802858277
Be 6.482823819895988 7.4373864047017015 8.966450345677366
Be 7.751812977422617 8.595092088340232 6.768170031774811
Be 8.992850983784932 10.740347400795716 9.663375681147146
Be 10.143367846077421 10.107608808479824 12.43576036696399
Be 10.221394103646423 12.5616193201004 9.62032741886034
Be 7.216320551057819 9.689133010801223 10.472602713683486
Be 7.996078814527188 10.60187001268988 7.468500210289669
Be 9.536987867689223 12.121264016400282 11.645270456541569
Be 8.209359728993302 10.614206788533622 12.144877779315154
Be 6.326000109135361 9.419470155426117 8.234737524297158
Be 8.321556944086776 12.497884651280076 8.66600578089703
Be 6.778516978291747 11.235790613703996 9.00255066341581
Be 8.69643412848836 13.569946705362597 10.409433239419611
Be 7.521782669303921 11.967756864020512 10.750555949498219
