34
Energy = -95.45869038 eV
Be 12.176121987275312 9.647065618289178 14.826708947674852
Be 9.741257907585977 9.372009269024183 8.430699084720416
Be 10.545715963496505 11.034365116798684 7.367977604536369
Be 10.888465979613546 8.08832597507678 9.817716990060559
Be 7.223884786460057 11.589204885307286 7.851300911318466
Be 8.64860383503956 13.506164279060483 10.26582084750699
Be 7.939446925351962 13.387069933392768 8.400114420426817
Be 9.82882717790418 8.383730097534661 11.553679657316867
Be 8.972173883743936 12.329087335018357 6.910310018228749
Be 13.727659386006062 10.005978354685068 11.565529683008636
Be 8.731813852549053 8.287177719311535 9.817224466112132
Be 11.604255034308723 9.698480024255755 11.783741964385959
Be 12.373561624019162 11.690135235571633 11.047377309460234
Be 12.58935204477856 10.907135265622536 13.18236942687547
Be 10.251774346298264 10.342963509446102 10.404424642185974
Be 10.76937983506978 11.805886891145567 12.39086339035216
Be 11.751630016535671 9.637299603479162 8.54385016993615
Be 7.684827100835316 9.81168686229029 8.835491196421462
Be 7.268255842061026 11.905214269681416 9.960757849801386
Be 12.998610979884283 8.806946480259217 13.130499015278955
Be 11.574795020027036 11.728580662645063 9.0189993423527
Be 10.52357786609742 12.643570906233002 10.52116197451862
Be 8.123078088799554 10.014467747661758 10.824081326678757
Be 13.267902601922408 10.538014415626396 9.598231856735607
Be 8.797365531382129 11.860525355668944 11.491850898421042
Be 12.906077198123779 8.569684748875174 10.03207680388715
Be 13.96252407115462 7.915894742351915 11.616292884039115
Be 8.60157406106575 10.31970339539866 6.974496198519416
Be 9.487373840906125 10.132932881940468 12.513134547952923
Be 10.644128379415072 10.686167421000906 14.11635659975217
Be 9.170459241848427 11.42352714574177 9.091975303566572
Be 10.888090325838267 8.679231622271548 13.461773059794165
Be 11.88317107814684 7.591223623615322 11.716805040141127
Be 10.022440786586191 13.228725205848512 8.504483168161844
