35
Energy = -100.5267864 eV
Be 12.78228293932834 10.45348267801536 6.825933564976788
Be 9.249861898947149 10.599383297323392 7.371202072689974
Be 6.962669315054411 8.547965264734982 9.921499343107367
Be 11.030421927994269 9.334387223062121 6.88393000247137
Be 9.444884364708992 12.512357484204866 8.594133106903925
Be 10.698115561538419 9.795003204765369 8.883583002191628
Be 6.7018484318258915 10.811126634538413 9.766639723436487
Be 11.044259139481877 11.72859100575373 9.734033824618502
Be 10.802750755131708 9.789772108472354 13.29223789323687
Be 9.072601342480905 8.599655972134004 9.449026347760865
Be 7.9582740616501 6.574823082403386 9.775161599638622
Be 12.382709863572526 10.148877543330531 10.307595120169266
Be 9.182702826635312 6.544120712731873 8.177513257585765
Be 11.59129560548544 8.186919484614787 10.225267631306428
Be 10.054953440974698 6.778386234508861 10.146200128444878
Be 11.098208391552886 11.531966680776577 7.516367672889101
Be 11.375153450001655 11.251292399723216 11.825834892986991
Be 10.543718788936024 7.825222934602263 12.149715725471353
Be 8.888660376921615 10.723082270637477 9.592709504840476
Be 9.485554312640616 12.395132895082117 10.89589944353082
Be 7.501960520787301 9.654472361407064 8.158590728874579
Be 7.382182581209814 7.5652924780195105 8.11810757962575
Be 7.6899565812590485 12.770797199390637 9.749867508732294
Be 8.983540677768755 9.035348182888903 12.93601875714371
Be 10.144932756803577 9.677713482596568 10.960794136482056
Be 12.163908024159573 9.156722972428955 12.024738951369814
Be 7.94675397095996 9.753693272024304 11.282653339666412
Be 10.90788650550438 7.71203967988684 8.296264616916252
Be 7.589463228110936 11.75211905480764 11.465368342429652
Be 9.31284047680091 11.054810273007554 12.49903127566141
Be 7.557552665415957 11.761578136410227 8.033852066070375
Be 12.623516341450365 9.075353416311751 8.452528816015839
Be 8.587948385986566 7.766408603298582 11.368657443823196
Be 9.127134365579877 8.49552211114694 7.299055556920939
Be 12.776777364848819 11.283860906467511 8.667268263519057
