38
Energy = -109.34421275 eV
Be 8.472899331957588 10.701123287725434 11.854440865432016
Be 10.6483391568366 9.98436694772491 11.617751781773103
Be 8.35914244542327 12.457278700108866 9.811506542445155
Be 9.181057205648168 8.913627300582695 12.703897496955559
Be 9.3938579807846 10.656309501646804 10.074478280764028
Be 6.5719116540219975 12.284340032830881 8.683549263479396
Be 8.345495423963566 12.822822392651139 7.713941260691004
Be 6.999517168121885 10.859407190666136 10.26840463115437
Be 7.54897466011515 8.872982305680083 11.460926025001053
Be 11.455498075983515 10.721470901362856 9.585564629743002
Be 11.584738812749222 8.718278717802507 10.119620620319152
Be 10.024922752880823 11.869887636600952 8.485903260965188
Be 10.761742973786482 7.915181191555822 11.983181488539497
Be 7.839687304036066 9.12044288664908 9.308504532858082
Be 9.47631830177864 8.581472093243196 10.328061869446682
Be 8.843870630140868 7.011383963332076 11.632166531705506
Be 8.228287439984326 10.819247578510367 8.350365128400416
Be 7.015369344834962 11.39381010126921 6.862356403415043
Be 9.930986038977398 9.483614643324241 8.430937341441268
Be 11.483002574778942 10.926772568906852 7.371992981213529
Be 10.541679853965565 6.779912879563066 10.173174715802045
Be 6.185486569298701 10.14344794278643 8.354805132558413
Be 7.412002389445346 7.208198015435727 10.099567305622857
Be 12.44436338258696 9.386127847594617 8.301211207993108
Be 5.957500744168844 8.921563590030525 9.99930533236956
Be 9.44243238589377 10.685276118970922 6.673793968542475
Be 7.54758946689649 9.282753018644794 7.038121548151987
Be 11.278547818594719 9.016859934273311 6.574357340829516
Be 8.981329135366844 7.500154608186532 8.507699241928057
Be 11.154872011177588 7.690746442254627 8.298670002658714
Be 6.4289387096538135 7.9079618827481575 8.20697470823572
Be 8.82891809777395 5.619630626073144 9.772123346632116
Be 9.341832420579975 8.541759332862872 6.500839709615794
Be 7.204023036438293 5.984205312603108 8.42497797206689
Be 10.513457987267623 5.60599855480741 8.432888293211352
Be 10.166551784483044 6.711486308249033 6.692481497753879
Be 7.8239391403172736 7.084106446681925 6.746781519719672
Be 8.834902240021071 5.30228638571831 7.4572037244752964
