31
Energy = -86.57694688 eV
Be 10.399832620662213 7.65965947632783 9.784452622923885
Be 10.7558719917752 6.206331752499986 8.193762826420713
Be 8.703711575421405 5.608256235455378 9.547274806485426
Be 8.515533822922905 7.489333975199725 10.451789113322478
Be 11.04223862012294 9.570302761694952 9.478135653695686
Be 9.483535853010732 9.388809777482289 10.948037485322612
Be 10.934917212090541 8.26727725612132 7.8149446251915755
Be 9.10740455585097 5.264980246563753 7.383045272147037
Be 8.98282188080295 7.134971773609848 8.334861485639202
Be 10.110255655572892 6.9294770929752145 6.33240933500941
Be 6.70704926577785 6.635718797849563 10.094730067453929
Be 8.698553036143366 9.17947890759452 9.035006871199284
Be 9.787204362492043 11.146524236482556 9.679792861550535
Be 7.133175716726677 8.881381230616112 10.75038426352926
Be 7.10565970941196 5.710869417337607 8.133560403562333
Be 7.93724278499462 10.799156631007323 10.407500297917636
Be 5.356188072725767 8.3276654268475 9.758504239078052
Be 10.474430077938722 9.075246435309031 5.967886767110318
Be 8.728344176090564 8.626269549951395 7.049827366831918
Be 7.121218463652913 8.023201749363592 8.391749135301962
Be 5.229552257520428 6.669749338551334 8.613886114017806
Be 10.177758615281993 10.374878599917574 7.697520035325509
Be 7.9726464713964775 6.585267346311596 6.2601902663564015
Be 6.367558689904966 10.087137790505688 9.195997097630874
Be 5.914252765115706 6.77164424436949 6.711488898922986
Be 8.237472688482086 11.233214124077183 8.280330287164334
Be 8.86543586830596 8.107825660176927 5.112787500002912
Be 5.28709899174478 8.616966176197026 7.6180778249663925
Be 8.68566994217297 10.384874577601773 6.166282147042609
Be 6.994921564099172 9.947103579801272 7.319056613633032
Be 6.9095297138797696 8.418764562628366 6.028010104618317
