38
Energy = -108.42423782 eV
Be 13.256557445888154 10.882577655547683 16.42652275797321
Be 14.115474128212517 10.913613627925955 12.58077674050245
Be 12.795851418696314 12.897619247319833 16.216005854970376
Be 11.715637053224963 13.399896343297225 14.44478788897095
Be 13.154859476532609 11.814171437340322 14.267497871462988
Be 15.187803623669026 16.114088246878477 11.092841964529924
Be 11.471940301367992 13.396359833696385 12.298619322650287
Be 14.776961411430998 12.071099136616517 15.707828787291897
Be 14.244058697600874 17.833393359008845 14.261447333948997
Be 14.999579835849502 17.587591007323923 16.334556981621464
Be 15.946153123097982 14.284948608929461 10.770802027574364
Be 15.687019421639759 16.85921049858797 12.96949296882643
Be 13.863968388639009 13.720303886884047 14.62627170591796
Be 12.423049464324572 16.69643516169043 14.213920276873308
Be 12.307730993146125 11.494343825539358 11.739755851912625
Be 13.03911398969903 17.22924316002628 16.02637595964521
Be 14.633573287236784 14.046726016226728 16.566676436065997
Be 16.28969041750077 17.209880364100957 14.878549143825024
Be 15.24302960660579 12.224188908752655 13.67648105784726
Be 12.437784125823045 10.039845610125267 13.360152427405254
Be 16.772911656801742 15.381637402736851 14.03763562430659
Be 11.458139929503943 11.370306332097238 15.381129625392031
Be 14.246437413769304 10.157746048236747 14.665499434423387
Be 15.085305772008413 12.63860534832326 11.634461866812488
Be 17.003126104838245 15.510599223624014 12.006007519968732
Be 13.76251888282618 14.497437768953027 11.266251962133762
Be 12.639319647047706 15.092012984388177 15.667193806126605
Be 16.77407943601727 13.513609767943052 12.766941538562685
Be 13.724713290752687 16.52322407780427 12.525075283855323
Be 16.082366914665123 15.559485269443723 16.22603994108434
Be 15.975316703563637 13.752262511361089 14.93104142771247
Be 11.0776473378493 11.66329925361218 13.323295444091178
Be 14.13016187060071 15.947279415585868 17.11715543322975
Be 13.419050210337542 13.018880083359633 12.6658180573825
Be 12.730588322180797 14.877519997286761 13.2568607854341
Be 14.961016928627675 14.534526193927086 12.992645321514992
Be 12.354828421916672 9.480795897437002 15.33301042615371
Be 14.55157980382487 15.704475475141617 14.662809738787466
