31
Energy = -86.28258025 eV
Be 12.457655448159207 9.9666286681226 14.987119699323658
Be 10.495721345831042 9.759614415886132 14.49670211643683
Be 11.715227176394244 12.45018350505699 8.008143199754967
Be 7.86968909556448 10.348797743682924 9.77510753057666
Be 11.680229077970003 11.357250759579886 13.61355148296621
Be 13.091473235727104 9.719493536939487 13.033023104382432
Be 9.035687433928931 9.437942006746223 11.408470148812654
Be 12.628018616888713 9.356193461634478 10.860475831120372
Be 8.079158458842766 12.336580998562305 9.15034002040794
Be 10.145809244531158 11.663070825600684 6.798075293852375
Be 11.88592343069463 10.505776521665547 7.528190185012314
Be 10.049575581105332 11.293703718581531 8.943428619202392
Be 9.855347175253984 13.33114647755046 8.265582203975956
Be 9.551432706882498 13.223296903743233 10.334208008473741
Be 8.770125741618918 11.539022821513509 11.10841408894074
Be 11.780969104309124 8.207499750337007 14.291417204413355
Be 8.360409739216626 12.580313933093425 7.1168567583862785
Be 11.518654859091118 12.660035275295199 10.087300288059975
Be 8.36317469360625 10.648212067690778 7.76023837181251
Be 10.722820012203735 8.316456819171776 10.829312309640423
Be 10.09274085404718 8.226898797984196 13.017206150268597
Be 12.546353607105763 10.978225097558232 9.445517162655069
Be 12.172812450955158 7.933693875212762 12.335281666304718
Be 10.618064959630987 12.234639719442344 11.929177882286142
Be 9.416505115040453 9.085946999716532 9.335175202139878
Be 11.502791139512238 9.120648534557457 9.01765123976177
Be 12.522380251208968 11.37649822869915 11.578385013683237
Be 10.098860914076928 9.598493514076353 7.408788874008276
Be 10.757447288522936 10.50647891509118 10.570271816033397
Be 9.464908636738617 10.83016620701973 12.970440285519242
Be 11.151489583186192 9.808546878032729 12.39760521963318
