39
Energy = -107.94375964 eV
Be 14.583875073066514 16.927093824049887 13.38511027859172
Be 18.41301514067804 18.64818321120286 18.264550215751637
Be 12.794937987520346 13.669211303749575 14.194717421740902
Be 15.210952915600844 16.083872434550432 15.07099908774095
Be 15.296262748013136 11.901119450288096 16.880473208515188
Be 11.90427243688615 15.589353995400828 17.262353253600907
Be 16.864633467777608 13.25620626680818 16.092121125208617
Be 19.2374647269035 16.636380387694544 18.405145745251925
Be 16.658028964902844 13.216016980010686 13.928850642083574
Be 13.719098579854812 12.199561392755149 15.415081459338579
Be 15.691423689078594 11.771855134610202 14.940381369524303
Be 18.62744303332322 16.476955734845916 14.493724351525236
Be 16.97011429136223 18.788850465013912 16.498701210689745
Be 13.832942361424218 14.956398502797027 13.015165176612696
Be 17.806002937623674 18.481814612067147 14.632682539456392
Be 12.658076800261089 13.962173894602673 16.135641323297158
Be 16.246134128981623 15.292947073183878 16.803354675591645
Be 13.720981146244915 13.018783451362049 17.495443682674725
Be 11.239368172264212 15.094066159926154 15.273977861809408
Be 13.715721694457331 17.70512093869586 15.340515316403154
Be 14.86443448011271 14.069390080585103 15.448790361126306
Be 18.371306389556775 15.460401916858434 16.539006423088566
Be 13.099850109544722 15.768162191197954 14.774213362454866
Be 15.822354847649006 14.959078302999822 13.153105718546831
Be 15.685499826149002 18.225872287308718 14.77415531436008
Be 16.73083491447501 16.846884126448547 13.594568848699083
Be 14.64796374498041 12.982262060080556 13.46729572592621
Be 18.92390114771719 19.51623659766356 16.474855707186073
Be 15.269079928495884 17.347993313414392 16.853081819281932
Be 11.696052638977097 17.045427667517526 15.921454228380995
Be 15.586033144141837 13.669715113059903 17.80867051250393
Be 17.310716242880616 17.030016251206963 17.754378944843605
Be 20.337289245479635 16.27828506380852 16.7985481108952
Be 20.292160395823014 18.216796129592733 17.69487487254545
Be 17.078611177521676 14.981704125679986 14.843746145022134
Be 14.083913819845833 15.402968673406722 17.05683243169556
Be 18.911147770175567 17.542040601265914 16.163672430641796
Be 16.971706695252863 16.868570077642268 15.700631491416841
Be 13.15539049921874 17.299231904277633 17.301711194815585
