43
Energy = -124.19807509 eV
Be 11.791271953982127 10.10506803588286 11.272928758483733
Be 10.933791416260483 8.474452728537944 12.323649831545232
Be 10.672808776296437 11.90687641326633 11.565832530148207
Be 11.858227416879176 11.702864775060792 9.975046854623557
Be 9.760042450961963 10.143432583255414 12.171779240701332
Be 12.0615441115115 9.754080501288435 9.163069402779824
Be 11.778733342379269 8.08495785298383 10.371544710060256
Be 10.259315024474057 8.44653046583904 8.64914462077847
Be 8.95329600612954 8.425627558366143 12.868082488654474
Be 10.772633728841015 6.531524460249776 11.658805307332447
Be 12.060405713245547 7.690765056556211 8.127862051525376
Be 7.643502825306213 10.192645907013764 12.776386484542785
Be 8.60300193713459 11.61111235385046 11.32885228919865
Be 10.939330699148973 6.397327007939257 9.559746885862568
Be 9.836435078290158 12.460892333650891 9.686928218999043
Be 8.772094282147485 6.494006439258746 12.34232011589539
Be 9.597979185322805 8.045730265274637 10.614034716519937
Be 10.902225539964924 11.303060134371247 8.237984630113717
Be 5.728931434170348 9.604224668559182 12.178499505477584
Be 11.677515963658117 9.68259774946877 7.10406768992766
Be 9.822379271788781 10.198521757645883 9.864137667285204
Be 9.411831746125602 9.911424647089516 7.470987523482799
Be 9.290096951839777 5.620961378734176 10.555918007324843
Be 9.028247773523754 12.108791394676432 7.6640770621375705
Be 8.123899938167144 9.455270297667505 10.907053660389394
Be 7.654841012033543 7.065576935726916 10.640507079523063
Be 10.700069821425238 8.02570802363003 6.388633935812963
Be 7.8041158964743715 11.90969319909989 9.449111801446328
Be 10.386111772092347 11.336451094714553 6.181714320644414
Be 10.34092570440574 6.41663596680333 7.611278518921184
Be 7.035577823810799 8.011825207840891 12.3595224512659
Be 11.025221668448209 9.634104270606601 5.112722346373245
Be 8.772919329438897 7.78808691401256 7.153407926859764
Be 6.580186719440818 11.004210876263915 10.977338909152236
Be 7.053046456214059 11.515257510430043 7.574010170007455
Be 8.78453010629261 6.6364811254203975 8.90321345934364
Be 6.244527556637281 8.681239203323958 10.455389464727196
Be 7.998311345563892 8.598219856635676 8.972204602475482
Be 6.540927793999881 10.197517380275961 9.0672415842758
Be 8.239977358980676 11.080670586361881 5.939499566614135
Be 8.975578095765169 9.107905743626945 5.536306946965429
Be 9.551788814376474 10.80331098555803 4.3814215907071965
Be 7.342050411964704 9.523576431276267 7.059220771507938
