40
Energy = -114.26838097 eV
Be 8.603603527073302 11.614835097564985 8.86450375041162
Be 12.258817260737139 10.769808735915468 8.215011853700826
Be 10.747241189550456 12.278774544330048 8.842577128696457
Be 10.18450446716819 10.196170472800963 8.500735850245066
Be 13.855622761826645 9.344011650504509 8.594175669845008
Be 12.814328592535214 12.442663882958357 9.331813574415138
Be 7.531598511147626 12.429444181765556 10.499802840646213
Be 14.395699444051834 11.308888715817876 8.529146169132975
Be 11.872025352459485 8.967820714052142 9.189808182933458
Be 11.517988837449812 13.39068446846878 10.658085811896772
Be 9.537572938125802 13.00459517538342 10.427755646371333
Be 8.228894955076013 9.591054185410478 9.212940120383658
Be 11.207515620378985 10.769479920098926 10.390955510362858
Be 9.903922574787988 8.918984552115008 10.212846436498138
Be 14.693337237673544 12.131643313403169 10.553770488267302
Be 9.130362745739513 10.927568188377014 10.851740039029053
Be 13.772079282465949 8.784146522199865 10.796573542091796
Be 13.200156153394126 10.573653846775938 10.239802963187113
Be 6.799011972529518 10.597118032295258 10.129415636976129
Be 15.258654498105019 10.184698066671793 9.952792733758931
Be 12.849101827289605 12.096384036573998 11.526449624645522
Be 10.554639148115374 11.720090787032671 12.055993043858033
Be 11.723014832147598 8.53725503081145 11.177422532635772
Be 14.48478288873099 12.59089547664021 12.790839448170376
Be 8.03019210176322 9.330384408289198 11.388935772908598
Be 14.44925195790212 10.606587037179144 12.005074589653535
Be 8.663686119509755 12.726448555020376 12.35596948708641
Be 7.160817388724938 11.19529819950337 12.060343511502143
Be 12.816151869042736 14.017734493278207 12.549563988604628
Be 12.343187612549428 10.164213707319451 12.338277746042024
Be 10.631991361114604 13.8096246744525 12.50818197973194
Be 13.521307393944795 11.136273607321229 13.913778591529933
Be 13.472505965776685 13.264468777577134 14.451978891973553
Be 8.874175499782943 10.776304575053443 13.162333323503947
Be 11.565131882349466 14.101622661543612 14.386815635210029
Be 10.908270685691715 10.605824709751037 13.931344385509643
Be 10.198489771615463 9.530160866804016 12.176329823357833
Be 11.983497813987599 12.215520112171625 13.32918395407013
Be 9.96341581269336 12.502355233782893 14.076875378824111
Be 11.755153891904632 12.308212529898606 15.281758089246194
