40
Energy = -114.95171524 eV
Be 7.499261299747022 7.743767636746755 3.34267747952335
Be 5.385837984509083 7.70762668279217 3.6993906839190958
Be 6.567519841755364 5.903873330896542 3.041715605182629
Be 8.898661778373427 8.270904066715074 4.773872404959099
Be 8.806321185439263 6.216408741597882 4.066468564021176
Be 7.380644554032205 4.747113867755729 4.494140228308778
Be 5.587245001321129 5.94793666066971 4.886255583644852
Be 4.304343160475204 9.126801117590702 5.283250423686936
Be 4.435182882683108 5.645633368907983 3.347775604966053
Be 6.839523255516554 9.017543879612461 4.847705737912881
Be 5.528888796401923 3.9763443414997033 4.199572539722291
Be 3.7189553895947696 6.972864138203543 4.914921599920994
Be 7.3655583951003685 6.740165697011061 5.541126520111059
Be 7.182697428457295 3.1967705512298195 5.88388634481286
Be 6.48457124385759 5.099472254587305 6.52826939731025
Be 8.697460040636912 4.941941721330472 5.995810187010713
Be 5.586749883765129 7.795901990861279 5.779590060209088
Be 3.844829782791148 4.846376319661979 5.4222883614148945
Be 9.534219872021824 6.815320615813651 6.053598668455015
Be 2.5726041344006854 8.28026320559205 6.04520845880141
Be 5.0544510618385585 3.202102361769453 6.075639707451495
Be 4.207766270352335 8.211157264625054 7.410641168661715
Be 4.736785809901989 6.20793064495551 6.734799618122886
Be 8.042944808229324 4.044889167177771 7.722076609290037
Be 2.843076551151756 6.414684666696006 6.916009963260494
Be 7.961592248467896 8.489306557154034 6.623922319195798
Be 6.270294098779517 7.216068773620942 7.600087587827549
Be 9.750853744732071 5.583215660842106 8.002149791341722
Be 7.990369131292977 6.281939942436587 7.590318464095569
Be 4.386223290081801 4.456802084747412 7.592069197733051
Be 6.155416241195205 5.132079332853117 8.644317089303867
Be 9.572097998753097 7.837321923036977 7.826037717572133
Be 6.061608376997516 9.306468002797475 7.100494507419462
Be 4.577222879351698 6.546499753058324 8.761872960760343
Be 6.180051264858901 3.218823539890471 7.8134761973552
Be 8.097774641247511 5.0976812193954935 9.476332680157178
Be 7.662958454061409 8.484431150293313 8.690496129171768
Be 6.774430283465113 6.835041199370355 9.68277988754242
Be 8.88763577590687 6.973255818120973 9.537744151766354
Be 5.567240999768549 8.469140589396867 9.053079639390408
