44
Energy = -125.34651793 eV
Be 12.07675332 13.5826460550303 12.07675332
Be 12.07675332 16.501060049518323 12.07675332
Be 13.775446964542425 13.775446964542425 13.775446964542425
Be 12.07675332 15.11461894279736 13.62450093346172
Be 12.07675332 12.07675332 13.5826460550303
Be 12.07675332 10.570860584969697 12.07675332
Be 12.07675332 12.07675332 10.570860584969697
Be 13.5826460550303 12.07675332 12.07675332
Be 10.570860584969697 12.07675332 12.07675332
Be 12.07675332 12.07675332 16.501060049518323
Be 12.07675332 7.65244659048168 12.07675332
Be 12.07675332 12.07675332 7.65244659048168
Be 16.501060049518323 12.07675332 12.07675332
Be 7.65244659048168 12.07675332 12.07675332
Be 13.775446964542425 10.378059675457578 13.775446964542425
Be 13.775446964542425 10.378059675457578 10.378059675457578
Be 13.775446964542425 13.775446964542425 10.378059675457578
Be 10.378059675457578 13.775446964542425 10.378059675457578
Be 10.378059675457578 13.775446964542425 13.775446964542425
Be 10.378059675457578 10.378059675457578 13.775446964542425
Be 10.378059675457578 10.378059675457578 10.378059675457578
Be 12.07675332 10.529005706538282 15.11461894279736
Be 12.07675332 9.038887697202641 10.529005706538282
Be 12.07675332 13.62450093346172 9.038887697202641
Be 13.62450093346172 12.07675332 15.11461894279736
Be 15.11461894279736 12.07675332 10.529005706538282
Be 10.529005706538282 12.07675332 9.038887697202641
Be 9.038887697202641 12.07675332 13.62450093346172
Be 13.62450093346172 9.038887697202641 12.07675332
Be 15.11461894279736 13.62450093346172 12.07675332
Be 10.529005706538282 15.11461894279736 12.07675332
Be 9.038887697202641 10.529005706538282 12.07675332
Be 13.62450093346172 12.07675332 9.038887697202641
Be 15.11461894279736 12.07675332 13.62450093346172
Be 10.529005706538282 12.07675332 15.11461894279736
Be 9.038887697202641 12.07675332 10.529005706538282
Be 13.62450093346172 15.11461894279736 12.07675332
Be 15.11461894279736 10.529005706538282 12.07675332
Be 10.529005706538282 9.038887697202641 12.07675332
Be 9.038887697202641 13.62450093346172 12.07675332
Be 12.07675332 13.62450093346172 15.11461894279736
Be 12.07675332 15.11461894279736 10.529005706538282
Be 12.07675332 10.529005706538282 9.038887697202641
Be 12.07675332 9.038887697202641 13.62450093346172
