43
Energy = -118.9325205 eV
Be 11.294214099143204 10.912023227252988 13.19575612056236
Be 10.579602542618511 9.986114443534511 11.327196266870494
Be 9.795784504658524 11.853433986202043 12.181731791514823
Be 11.88225094570135 8.66706009586804 10.111519600641701
Be 12.629893999861485 9.9094769441522 11.860157710357885
Be 13.197412866584772 11.780583833779387 12.803160086449347
Be 10.06533220458624 11.796922898984564 10.052801650006687
Be 14.838526964308368 10.601679176724899 12.17768581082293
Be 10.210191787037926 9.812504595330031 9.310104562136685
Be 11.368352134731955 13.050120259429493 13.024230671202043
Be 11.705101955064475 11.732197859619214 11.347400060161606
Be 10.645707794569136 13.59292367725541 11.04051121372781
Be 13.851892443931067 11.632969986692915 10.537843111117784
Be 12.18497151516087 10.620400825952839 9.664470280846826
Be 13.426842047237354 8.826678214293302 8.630490968278048
Be 10.369198167449726 13.592128891320264 8.727853188844328
Be 11.672438004521949 9.45937962011104 7.839427832161854
Be 10.698718989663883 11.458202382871358 8.056811833425757
Be 14.018855433898715 9.36155325882402 10.514080352484083
Be 12.154587281058696 14.957348614061825 10.062543624504277
Be 12.828091694364527 13.390149887622357 11.456999874909588
Be 15.557432825713782 13.830035485176719 8.155239503073153
Be 13.792602375065266 13.775142405223935 7.053198507451808
Be 14.036040552764486 15.304237131974533 8.870394161323516
Be 15.039406123493402 12.005601089420002 7.232432418828564
Be 15.878035779690382 12.1031659940455 9.212283992782362
Be 15.632394278547755 13.89417047612276 10.346240913446973
Be 13.085497670797123 11.77795820269075 8.101193953377111
Be 5.990362408398024 1.0748949015064948 21.1146591059844
Be 13.372627858098904 12.022786405742538 5.978053678608077
Be 13.99017879060323 15.006550056768326 11.020411116945208
Be 13.864884041742622 13.395375117355593 9.350960034433479
Be 12.22482879778821 14.536120009940197 8.110148108278512
Be 16.249588016659235 12.028029420994965 11.273286203713857
Be 14.68278263115803 10.446840255684855 8.682228036633697
Be 13.517814547093481 10.0822353298877 6.844652850453089
Be 8.717591702376906 3.6017212693137 5.240519297063562
Be 11.684243295331145 10.929342944964908 6.346325077250685
Be 11.678441683978773 12.98729544038998 6.938356492264704
Be 15.849838429895092 10.273501193376273 10.351000782927086
Be 11.9424124670888 12.749051683789217 9.554531693211892
Be 11.908227709677897 14.944616296000795 12.127414853970278
Be 14.737170351812647 13.117668991386324 12.098619990156282
