42
Energy = -122.00904906 eV
Be 11.733583703042028 10.975110450061761 7.7443334717793
Be 9.868631932094624 12.083571320163873 7.452839301394362
Be 9.497510885210122 10.325760352519485 8.39652096049115
Be 9.323774619434284 13.868836308677702 8.305950319391973
Be 13.1752441317374 12.071605510092176 9.044880757053836
Be 11.246537117780647 11.104586423400239 9.651913855772156
Be 11.358820863716414 13.131761289952298 8.337928899089833
Be 11.139532553904946 8.999519603112653 9.176233871928842
Be 8.07494124900886 12.010289782678885 8.634634544510256
Be 9.40722913212291 10.556711566837523 10.595776867113912
Be 9.804519429032345 12.45966608235813 9.849610622110307
Be 8.110263924531486 13.847989568788003 9.911717624813168
Be 13.031774673091293 9.987601459426209 9.348224257056108
Be 9.217815571358338 8.622780347835935 9.78175274752827
Be 11.287690431215767 9.676871399280584 11.3766674323624
Be 7.7532410973601324 11.98845428294814 10.727304767508999
Be 14.598070946330445 11.115823563455217 10.286204798462473
Be 10.071126821198613 14.499044745581626 10.239477823649528
Be 11.858083396109427 13.186129374760974 10.365905597135242
Be 12.616200920323529 8.14465876052552 10.322847947958861
Be 12.713166864381733 11.296146259281947 11.075625721559598
Be 13.911443638108715 12.988104363336781 10.838201110754968
Be 10.61356958686212 7.723716029035879 10.985004284800386
Be 13.74014507463489 9.516391016848546 11.410488166131865
Be 12.465650630581859 8.075883966842307 12.417260114608073
Be 9.019171126588796 13.25013635533675 11.812853621278975
Be 10.742478419506009 11.79087356203123 11.629171282662254
Be 10.92315717939674 13.995582110176622 12.133658466104723
Be 7.741122318206126 10.16178643430838 9.567512177588
Be 12.5242888408369 12.809231978350908 12.411535745383045
Be 9.064078136801042 8.995583961316077 11.883164758984531
Be 12.107673664079899 10.751540790537387 12.948689191906707
Be 14.109637527139723 11.404654786255971 12.746131119523234
Be 8.751279294163593 11.296807324322742 12.529052918714155
Be 11.959703874881633 9.07240169437774 14.253262214901584
Be 10.535808950180389 8.096750025289028 13.074357878078471
Be 10.505935882223804 12.374722169991582 13.583638594734847
Be 10.158123375425436 10.112749715004702 13.415723935447694
Be 12.556808738498704 12.52153764042474 14.389875654468712
Be 13.882104944967898 9.287952106667456 13.401683318381995
Be 11.300422664847584 10.971559779592933 15.001658967584609
Be 13.343590091463668 10.693069960595576 14.78467851167246
