48
Energy = -140.18204215 eV
Be 11.466130949039073 9.195471154207686 7.099707849210719
Be 7.6374891966075165 8.68455170902144 5.595490907303863
Be 9.596922457469248 8.907282138423831 6.130810450678676
Be 11.295426571276431 6.017845190406766 8.906936117275976
Be 10.381958253211607 7.40462004103535 7.440054523829259
Be 12.055039751513789 7.9307304470911895 8.659370486546132
Be 6.3783132125539055 8.154606916175611 7.202763566191991
Be 9.786463018052268 10.692505153748028 7.204801009714778
Be 6.102129512628583 9.919077632426943 6.040874130924613
Be 8.396310819019869 7.1976794685597705 6.779968095830141
Be 5.30202889909785 9.807090946650487 7.895240441122067
Be 12.91896003738814 9.848656699823719 8.492237271890154
Be 9.234597866345645 6.047591108277156 8.643353609396302
Be 8.152245670522797 9.301969712682354 7.786918164750591
Be 12.080972738777783 8.987133451672962 10.377020009866749
Be 8.0821142092935 10.685681185175786 6.040884419146047
Be 7.650305344552374 7.319653398652887 8.689496953215693
Be 6.6835754401369085 11.333552627756612 7.472388261109209
Be 11.766716008201433 11.200363440159025 7.517582660116978
Be 8.498371075801765 6.7796271727645685 10.496852438896678
Be 10.271817789162787 5.674739335175619 10.55890890259875
Be 12.001712834776361 6.900434654747893 10.741013278983285
Be 6.5602082073876895 9.035599850768275 9.323212098695874
Be 10.284932347639826 7.800894933112359 9.798456697706108
Be 13.23294805671196 8.997050979717496 12.085126235685934
Be 10.470077454230044 9.798230923589225 9.053108226625103
Be 8.502565057229136 8.854683838312116 9.939015752132596
Be 13.687233958626726 10.301162579908663 10.419551411113522
Be 6.95050100322686 12.840457981727418 8.945008836226775
Be 9.870368817810736 7.240114705595782 11.929983195563345
Be 8.556500790615562 12.326620928235407 7.602680432310772
Be 11.672048633861026 7.858373596813764 12.607574995543954
Be 10.339555479432425 12.040192995413312 8.738199718427783
Be 5.976085706054698 11.046933564187006 9.494741701058517
Be 8.372733418980523 10.854902469376162 9.248579515185613
Be 12.29957669823521 11.570457503930417 9.574326302532
Be 8.128238544744727 8.366041896788264 11.979486780276911
Be 11.798060867769523 9.708760203465886 13.436776528199635
Be 9.838525633654779 8.854154304571976 13.32931497848592
Be 12.236246768644724 10.88313432253248 11.725909524276386
Be 8.8246832812703 12.939733414939493 9.848497603937853
Be 7.057817116697977 12.228323326783592 10.853185654442091
Be 10.100064487047256 9.543515950398879 11.21284626806058
Be 10.31741404117703 10.99694164222064 12.790307909261914
Be 8.344007161386301 10.199981651479606 12.829858553096265
Be 10.707266993600214 11.935324454157628 10.810461815753632
Be 7.1196750445128885 10.154444167456802 11.130057478526526
Be 8.831657585962246 11.451699041821696 11.339653050215079
