40
Energy = -114.96436848 eV
Be 8.949251345322477 11.483783063025152 7.276593364097912
Be 12.468059897163851 9.236415027062298 7.198520437584377
Be 10.754129230887084 10.372059770224594 7.485939550533672
Be 8.898975636535996 9.375540553043523 7.689484473624731
Be 12.628982304012771 11.300975136942968 7.949231858672543
Be 8.486977719070861 12.572045495646663 9.077810496804647
Be 10.629620366815589 8.097748725201491 7.2196203005250625
Be 12.360769264955342 7.550033427880814 8.313987502367254
Be 13.27844898526548 9.539581094382775 9.072428899628672
Be 7.449902287227862 10.780879379192765 8.360224119094344
Be 7.8821583373227435 9.163478383312244 9.648954982953901
Be 10.81734219484627 8.952237877726757 9.054389540839372
Be 7.509621474882419 11.111609683121763 10.360758455020818
Be 12.17009113902652 12.96590547139627 9.401966384682938
Be 11.524833693304899 10.88068851772705 9.611649572906583
Be 10.552903070192801 12.332218645441738 8.274827063359908
Be 12.45492124223155 7.975730909344353 10.318652829106385
Be 9.089950228543252 7.637166826177828 8.812570474614752
Be 13.48238016237982 11.557027456876096 10.136233463364754
Be 10.245591118088024 12.704843619975044 10.356770161078392
Be 8.33223578164588 12.81726818307715 11.380387368777592
Be 11.258522044591828 11.255451729248296 11.601023389612475
Be 10.726885447199644 9.369951469531278 11.01351798634389
Be 10.762129835418218 6.981437702706161 9.886261403923374
Be 9.512073155433226 10.679272392727103 9.465105158518616
Be 11.047488080694837 7.569831860798053 11.882512815461107
Be 8.459039214909748 12.276498998096901 13.49531579022689
Be 12.810517235358724 9.825854481852701 11.087102819208726
Be 7.672770781832625 9.355878050209245 11.723917017295111
Be 12.340356382538852 13.005252591311733 11.47848271428873
Be 10.184352176347861 12.829534889724595 12.49607162987809
Be 9.232512847344825 10.882209836991871 11.67930099171673
Be 9.10126469029465 7.831791074451742 10.925599063512838
Be 11.677084337439899 9.731668191481821 12.930874489150451
Be 11.842969626148854 11.994544377145385 13.457595012004086
Be 10.095652317335743 10.93229489077056 13.67998044706624
Be 7.037911780608915 11.381434361311044 12.358714776606234
Be 13.375545615568006 11.346009599557252 12.268117979006632
Be 9.594162879364154 8.94023745161085 12.78493011131194
Be 8.121795321546042 10.223788053392212 13.604754354926758
