41
Energy = -118.50534519 eV
Be 9.981313760817402 10.573521455362762 7.803474729772006
Be 10.039511316272462 12.675313728531966 7.995507082627652
Be 11.729330740543372 9.610859794547892 8.643233792815135
Be 12.006572747334351 11.650444912767723 7.743889961582946
Be 11.009717253603045 11.52365583407299 9.47266206730417
Be 7.939010760435763 9.858098980832471 8.461382027546216
Be 8.206484467367096 11.696489188040964 7.592547958385729
Be 8.954730420350977 11.310427731756189 9.946354523528415
Be 8.302061493186786 13.263884876082392 8.856279704929824
Be 9.642370344099115 8.784910777613565 8.886797884985828
Be 6.400974968244396 9.856996313757135 9.814365179939745
Be 13.305330255184812 12.180918579460709 9.438999134730258
Be 13.646600735830203 10.457718903390756 8.450039312044668
Be 13.52253809507087 8.73393707974952 9.477564239076173
Be 8.248548316671142 9.223841702857987 10.49454986197464
Be 9.934775634429869 13.284363676889965 10.26108102000266
Be 6.842203524075934 11.737798898915038 9.203752295634914
Be 12.403871054062495 10.567066283232599 10.67623216652385
Be 8.694839243214936 12.257428449057489 12.294111965446687
Be 10.324209848429392 9.732026517974584 10.500869384522371
Be 14.498954593102605 10.360195596865475 10.460332751739923
Be 11.718295527221718 13.462608041955693 8.925992243627325
Be 12.016054249319716 12.98854369279442 10.914536833807597
Be 10.574850144860708 11.494169442053346 11.450826269372332
Be 11.692540562947284 8.284987954270242 10.37507953090427
Be 7.641558158696844 12.992358312086777 10.7652448402868
Be 7.170123872707728 11.057394911679177 11.284927604973287
Be 13.53729583293878 8.670106072877427 11.484251956035925
Be 8.997041728370215 10.189839683523411 12.18641145181067
Be 11.518897378208578 9.714128824132098 12.300514655948596
Be 13.664624500813444 10.352143744722989 12.637475234389058
Be 10.544072197800688 13.27386192214445 12.447535462152175
Be 13.826818171224243 12.09774479299204 11.460452467865755
Be 12.201269245619832 11.84697438678043 12.78996214534104
Be 10.025790086906227 8.24725953053444 12.067515217684642
Be 12.026269527756074 7.394701395139419 12.218321604839993
Be 13.062766765998418 8.590495174258473 13.593688609669405
Be 9.897045744286952 9.48166416449292 13.923713652593023
Be 10.252705225903036 11.448784272096724 13.539916951900883
Be 11.190172430679953 7.950718075770086 13.932573570516425
Be 11.878712465673368 10.192469714196871 14.29788604142957
