47
Energy = -137.98181653 eV
Be 7.021095939648179 7.307480133260766 6.384787522613511
Be 11.253641212852216 9.529115949399454 8.691417590070348
Be 9.146674708508629 9.122050362658271 8.001288922305855
Be 7.128589986427125 5.134344851906225 7.331898887460979
Be 10.445428030306955 6.856343167904077 5.292453582132149
Be 5.943215402707578 9.860506740176602 9.505676077059366
Be 10.559512975734355 10.324924603518568 6.77512368359639
Be 5.023699498976877 6.127090127455744 10.082300284793297
Be 9.278317888371369 5.565662784747274 9.333991139187134
Be 7.641952782594559 4.008683292537663 9.14847790467846
Be 9.007725407734094 7.950980671450921 6.180402527181399
Be 7.081165637367517 10.88029818424603 5.4109930853450345
Be 9.794174958358322 9.62472837138994 10.091204767671988
Be 10.916698279552598 8.932753932567694 5.21879605188455
Be 9.946974020597766 11.120376810752377 8.657544988828832
Be 8.156708134256414 4.875565467697044 11.038515745565862
Be 5.1930422335440145 5.742705317431802 6.437807710764209
Be 6.65082374268096 6.1517212371212455 11.564959450823073
Be 8.063552644310557 6.875442363744803 4.457248810558768
Be 5.945156689996236 6.711198961522523 8.109462378714452
Be 8.008032508153425 8.752466369103542 9.832032116402928
Be 6.804922568228769 5.410060867232187 5.253816306842171
Be 4.579882630069252 8.072361694728682 9.073925786081391
Be 6.707364868925358 8.639241755623475 8.139286915595411
Be 6.264732642318247 7.8118567993240635 10.229995128541066
Be 9.065412265913992 4.507761142712703 7.6106030920777945
Be 7.8970796233202725 10.585505968559302 8.88096191264563
Be 5.655211099871664 7.261536783561489 4.88774611613247
Be 10.089421101641172 7.629798096287198 9.248718007878862
Be 7.69796054720109 9.47957389798657 6.5817657068081745
Be 8.267475964670384 7.094011457704612 8.087237604639977
Be 9.375014819294787 8.384234054852888 4.025481276598173
Be 6.181901654427364 4.3605917329449655 10.615881870427295
Be 5.70647727722076 9.31342888496083 5.885026468468547
Be 9.159508768096801 10.135199909555366 5.212307762841952
Be 10.992843941093344 8.162850385935782 7.1492150496019535
Be 7.1359844239873045 5.984364922857497 9.508056450280769
Be 10.211300877362374 6.278218916565083 7.4367493105083495
Be 7.414729891769555 8.845218796471526 4.62313622229307
Be 8.630874698861799 11.273721291624794 6.995700212334469
Be 4.024983005436169 6.196620703217295 8.211855086211333
Be 4.737066412822611 9.665266714420701 7.70943425009536
Be 4.623713792921459 7.765994132426733 6.8355908454409455
Be 8.7268637603465 5.783815360484695 6.026003042266041
Be 5.539805090664437 4.6603469197311815 8.609879941491812
Be 8.54168374893891 7.007989454751628 10.770838638579434
Be 6.397026842575897 10.87141465554639 7.479828768339155
