41
Energy = -116.87672749 eV
Be 12.439258793664212 9.503171938566423 7.727195328435561
Be 13.035819021931115 10.266973700941255 9.551467285483241
Be 12.55578134151392 9.402098798964985 11.319173451110546
Be 11.797038225919167 7.62774624752375 10.933841932092118
Be 12.858956323313873 8.17246477257359 9.292972203583913
Be 11.539995809998164 7.7226994153412765 7.6273655266601414
Be 10.376552483585325 9.459827543130796 7.228159962358212
Be 11.265060953124573 10.9630766900824 8.55386325698906
Be 10.11629126224194 12.500970147704365 9.014765331520678
Be 8.712472138109215 10.794169216796144 8.027200795259258
Be 10.82113045296766 6.825844190110917 9.363869535887808
Be 10.324628384302107 11.83354554196559 6.910643334203515
Be 11.185071326057445 7.872115651583354 12.799644218459285
Be 10.796790749988112 9.056731629643801 9.508211651035394
Be 10.549539471648385 9.640361746213227 11.750062094995164
Be 9.495352148256043 7.474839466223161 7.816949593078932
Be 11.493460788371761 11.167761333363778 10.598528984739872
Be 9.539735148975678 7.889874364992785 10.941718789514768
Be 8.572725283960594 8.90352860964242 9.225028706113886
Be 8.351478084237103 8.938745531678173 6.824458815346193
Be 9.255670204060868 10.504466105844713 5.752425916273896
Be 6.534741090330986 9.021164376384982 11.320047141492045
Be 9.498413502258146 6.6921022325764525 13.12573872994436
Be 9.334251296328707 8.68322312251107 13.226039210134813
Be 8.620817661064219 13.08988366518451 7.677914020550872
Be 6.768653370862474 9.627900839421732 7.860471970584126
Be 8.481891740283427 5.9794954583973965 11.497303150496718
Be 9.511123553528954 10.760157673288996 10.138687736418044
Be 8.73157136627149 12.433600753450918 5.704847844935642
Be 7.298650748966176 7.560834820070781 8.18059906163912
Be 7.179946879025903 10.499521598800142 9.846151165311916
Be 10.579995407017035 6.065297161914783 11.492974460636791
Be 8.715657024490813 6.441428291680203 9.442466872044822
Be 6.034153415037685 8.686970957241634 9.420879384680296
Be 8.131772462947978 12.362159460281092 9.564201207755103
Be 8.390455181908095 9.787238786576438 11.62712873469367
Be 7.271157336223927 10.87152033998052 6.270013622205941
Be 7.752418924470699 7.743975353433301 12.37688010198539
Be 6.698113509568747 11.706177045936872 8.16972095640228
Be 6.949375731287556 12.903107967238062 6.490928969531012
Be 7.052694534255575 7.1818905850978805 10.418122077770958
