41
Energy = -116.62069963 eV
Be 10.012141619017363 5.857619915864158 9.552363577815125
Be 12.000177171342012 6.065291343591968 10.489036955915335
Be 10.052900967699042 6.944781885991939 7.687577499713602
Be 11.84131577308541 6.301333811289879 8.509001515411553
Be 8.271385558358917 6.906734863474428 8.736211983714657
Be 8.487582155334314 6.835982478588385 10.8127009777069
Be 10.351032937799186 6.459432912801077 11.552928226568019
Be 10.161759372750767 8.048769162034928 9.72310483079098
Be 12.918774976174033 7.6591786395868295 9.679303361862177
Be 6.493795531663405 7.71995929768178 7.97182200631438
Be 9.697507939213436 8.255768089312252 12.14784824509585
Be 9.934555251674555 8.913394007245811 7.1103502641389085
Be 11.768479549535062 8.065301700066604 11.512031827549293
Be 6.813976395060338 7.853683788866224 10.011728916136843
Be 8.160320084332412 7.826880040296839 6.770523904770631
Be 11.688428497339942 8.364974328244013 8.039146415832514
Be 12.073037429517461 9.503735723887663 9.69416232280881
Be 10.450321734716736 9.774835082965613 10.910960618019038
Be 11.750628369032787 10.715078562084718 7.992500637486944
Be 6.494050932223432 9.366480733954841 6.684648514797588
Be 12.476590644369503 10.125142596098659 11.626999802735599
Be 11.620999386043716 11.478984553968987 10.050513506803282
Be 8.000647604894972 9.579068585605576 8.25978472643807
Be 8.433292947511568 9.667737509719544 5.92476385954845
Be 10.474642068274976 12.296171749753286 8.558322700333814
Be 7.742510619454943 8.52148798577859 11.80520482388251
Be 5.817759503967221 11.087280178584452 7.655058413836571
Be 10.029404778819766 10.095316504473447 8.951032381919111
Be 8.329265948720113 10.047720172671202 10.369884404623932
Be 10.979731589051978 11.467956531978285 12.16036146189065
Be 11.065751368172464 9.572891267696077 12.996358006394376
Be 5.738321532831156 9.396050408306012 8.86477539539208
Be 9.686568707561934 11.014005512572064 6.982207040598373
Be 6.286304449161178 9.646108137857517 10.808552082184857
Be 8.913449766605465 12.865174771000708 7.124570448161425
Be 7.553881749244488 11.394132439587953 6.530020304915277
Be 6.65897270690529 11.254564615746464 9.526273583605619
Be 9.602577777230021 11.80045472053179 10.591372449410613
Be 9.074104226612553 10.32502911181662 12.32173978901879
Be 8.535805455410095 11.60485363615882 8.756800011005403
Be 6.992193330285088 12.755601049263761 7.982400611851154
