43
Energy = -125.50427595 eV
Be 7.2377551248655205 6.811599767387183 11.976887175515515
Be 8.795514207073444 8.134453248909981 12.476240201489462
Be 9.052279636550965 6.027126334301274 12.00428648069849
Be 6.987414446917432 8.818475922638369 11.240950772104856
Be 7.954876490684762 5.778667271658106 10.205456671020702
Be 6.302654842333673 7.166214970909385 10.224556888448998
Be 10.558311541887454 9.401880830201465 12.053700855485006
Be 8.652295281380464 10.086176572477687 11.382052577359465
Be 10.128809439378742 5.777911032749688 10.23744633090569
Be 10.683256085656975 7.248064432906848 11.761007819168995
Be 12.088286715806118 10.54664507331403 11.008426420813928
Be 8.145197227245006 9.281739255663204 9.390051331375183
Be 10.248356620344826 11.35089759737445 11.172684832231482
Be 6.978224239479871 10.853481811826674 10.32853676723666
Be 12.28443162591757 8.575945492095178 11.19481887977271
Be 11.244033805484445 5.957393675798757 8.329772178030437
Be 6.094072877428083 9.041078495576002 9.25864293347938
Be 8.987413202034242 7.6916311667733765 10.336388681678795
Be 7.539765138781808 7.34527173177875 8.622546044462402
Be 9.170256387210232 5.972954506790211 8.330171971976643
Be 11.31838770274631 7.485345843988132 9.735237832226408
Be 7.0425599723435255 8.85304529432683 7.234728763593862
Be 10.232188832579315 9.546727357038158 9.800755091566343
Be 12.33209894604562 9.312890703229211 9.232594072238438
Be 8.457992303864598 12.591693815021989 10.769715022352454
Be 8.486775041454502 7.39769446166333 6.71378621877217
Be 9.673645235685887 8.125245507313274 8.350662582616811
Be 8.952565890827447 11.215166659980792 9.333152125776687
Be 10.471230176186804 12.901421822433829 9.902214177499099
Be 7.11364472995661 12.568445416670139 9.088596431678852
Be 8.922150055502128 10.02394455026812 7.624896762012579
Be 11.541490211197072 11.327902546171437 9.236089383794253
Be 10.406803462154858 6.6962611760999815 6.6691475710811865
Be 6.9292763807910465 10.712981698455094 8.220868004953195
Be 11.73706735427062 7.975450406822371 7.635112184368617
Be 8.88506664335159 13.491960219706499 8.833024697954578
Be 11.036820699733513 10.062663419550352 7.6535044408814485
Be 10.24343329105016 12.164640805401998 7.7931572736647725
Be 7.333247489317515 10.737536538699077 6.196114183520763
Be 10.199782939019395 8.73538901706683 6.259486330697692
Be 8.345289282233615 9.14193478953126 5.52399673605273
Be 8.230820077625276 12.220887703443642 7.318613626484218
Be 9.477503602972329 10.993943505068472 5.9625324077004
