43
Energy = -124.85465367 eV
Be 10.122103245196923 9.513536416275295 5.46624031964907
Be 8.178343300354642 9.427722282092958 5.990098598862651
Be 11.482844691928054 8.351957336199556 6.424249691057645
Be 11.575116216781543 10.559702193011379 6.471193834786008
Be 9.339701394789522 7.715275622923017 6.53566579295952
Be 9.412919530135907 11.122753063289972 6.703358941782215
Be 13.32748116342193 9.36003365410968 6.814563902080813
Be 12.949222075441677 7.68030464739268 7.914149155309162
Be 7.60704237435328 10.321417286410792 7.691707577338614
Be 7.393839460238581 8.16038135434024 7.457392037384022
Be 9.824195173412381 9.409190147038062 7.79357455440367
Be 10.785436746371355 7.376807624866087 8.16968145017172
Be 10.99935451078592 11.369870759998681 8.346006887485604
Be 13.049477903427544 11.015714442199215 7.977312198080253
Be 11.812538889475528 9.344058154568582 8.301630766915311
Be 9.043066471733967 11.134777063389997 8.929664641341127
Be 8.72786199308172 6.848554546539256 8.406469255259978
Be 6.0467163041678385 9.34306113765689 8.752708228053507
Be 13.650698071322076 9.320720986668457 9.195722056191324
Be 12.12779252224086 7.826128423598774 9.864220596111648
Be 8.845921527836527 10.255116225915314 10.900220482031646
Be 7.044571244952112 11.078427137564821 9.57633291061825
Be 8.34298574855753 12.331480564321174 10.616751440066265
Be 5.079926814801979 8.503952822782155 10.448686051857933
Be 8.116121590849374 6.722843759221656 10.437219965665292
Be 8.427456248852636 8.829602572164399 9.331122646932307
Be 12.761418409407359 9.301462231373078 11.130885753711516
Be 12.327426871989347 10.93332699482399 9.957288985327866
Be 6.5876248360934495 7.442327250221628 9.345870087738588
Be 10.110051670385063 7.224289730227189 10.140771894408473
Be 10.377385497563408 11.81951650271348 10.454105943467098
Be 10.522113461309338 9.568413386658843 9.880938748648855
Be 5.234494130272977 10.548588681128589 10.440100386208092
Be 6.902094622063794 11.276467523314055 11.698721038483777
Be 7.090384530649755 9.245262024545774 10.789445165844574
Be 5.636720356696925 9.556721323949306 12.18239966521463
Be 8.853039319079699 8.163374525330905 11.666307389260842
Be 11.233958081584493 10.585737357829071 11.840941085220296
Be 11.005444389338304 8.345479748652178 11.720643126701662
Be 7.748282619204065 9.719285737953681 12.724228948453357
Be 6.632640324020058 7.526424420174705 11.614301715580764
Be 9.2260795675709 11.600374366840054 12.403801905044974
Be 9.829842635899723 9.611294507364265 12.885040715927515
