40
Energy = -114.508186 eV
Be 8.6707772602024 6.372703102933547 4.39318378654221
Be 6.805462420492117 7.080978123797691 3.7180710164291106
Be 8.140629584667776 8.513779242452387 4.65472824381595
Be 6.926141716313163 5.197283704154043 4.708915472954026
Be 9.18243355649631 7.342883890262815 6.321879687553288
Be 7.208458275904468 6.97437128823006 5.7412515274676235
Be 8.443776855326032 5.307020300996124 6.242038791271252
Be 5.991120679082354 8.593655431344688 5.096298896754439
Be 5.3366150764907365 6.492955679482801 5.10684379343845
Be 9.525357330484077 9.44231845842252 6.112340238320586
Be 7.428409728005256 10.475522303705318 5.739210111164872
Be 7.460819345059657 8.747213284510647 6.634746346087154
Be 6.388373753132678 5.41823305382872 6.842463254655002
Be 10.15897960402271 5.82171914659254 7.446084841030938
Be 7.541770848832377 6.9998104068535065 7.734928617242884
Be 8.939658613159557 11.122869501227434 7.179240140713617
Be 5.525743213499391 7.463343557246515 7.060074296551939
Be 10.721125002118745 8.119446826294016 7.493762960581743
Be 5.566125016660802 9.690516812863269 6.864468275888186
Be 8.624866780407912 9.081302826156026 8.314839887727159
Be 7.095819792791064 10.689338157613244 7.906643518515908
Be 6.480855124285253 8.73608526667274 8.41595653292438
Be 9.242392273196323 7.14749331088309 8.761058593923542
Be 9.84463025626426 5.277760344677845 9.50065380589837
Be 9.304508076907837 10.757024859115203 9.322610904028728
Be 6.161495079217483 6.157502656950389 8.987521646692315
Be 10.57564815692152 8.883648799775926 9.55025731007447
Be 7.365388699523585 10.157779323413385 9.873484866060117
Be 5.0036836244463485 7.857718217664237 9.553366605348742
Be 5.385806886299954 10.046681675011447 9.390725565715048
Be 10.634381729923179 10.139886516110833 7.840449810209311
Be 11.210260569024607 6.8666197792768005 9.141174008799593
Be 8.115904145497412 5.0294743479749116 8.293315770726862
Be 7.584733342938425 7.8279360677100795 9.772124594878084
Be 8.8885950854559 9.174186203959124 10.829010796568145
Be 6.0551085839944045 6.773613549391699 10.960760416710755
Be 6.1819156598277365 8.888325376094999 11.00547441042275
Be 9.701415850456652 7.227570786038892 10.751703169339594
Be 8.000193035304546 5.851072249427333 10.24611625059856
Be 7.824736207096018 7.496472410615537 11.736338076105904
