47
Energy = -138.35246431 eV
Be 5.567708749353382 9.32960545070413 9.380938443608905
Be 8.019216879563944 10.63602853055279 11.847115065496629
Be 8.014221533585284 8.507708570239215 12.070535546705337
Be 6.373064431857569 9.580873915138083 11.31457208442331
Be 5.000922784168216 8.691043868358635 7.421078244034777
Be 9.419866936005585 9.700632973963442 13.161677425506348
Be 6.004438498962876 7.134059914316593 8.572850492379656
Be 6.023513373940579 10.66939886069933 7.621373753899509
Be 8.940975842125319 7.158330248078127 10.757375080952032
Be 6.743639326358665 11.055133528935714 9.870451028822039
Be 6.790897750669465 7.77515366030596 10.356622501212584
Be 8.91976799683075 11.512697303168176 10.231137398516491
Be 10.161807670161227 7.789759500984816 12.406503194838058
Be 9.738762915691524 9.402115891460797 11.147721865108544
Be 10.138282550118365 11.378645935146507 12.015712550230184
Be 7.106398207303013 8.985597374881271 7.9954086488650375
Be 7.436907851510436 5.935842401521307 9.49706632810639
Be 6.145200389538597 7.243027299684197 6.494325943236897
Be 8.208124944987846 9.427822466933085 9.793514106643276
Be 6.176552581952486 9.232384500235911 5.9126215798823365
Be 8.066181300764445 11.124219583511076 8.222257979786825
Be 11.421312038813694 9.753062830627883 12.597775940431593
Be 8.322429070275607 7.6057995547929105 8.801556845287154
Be 11.845772373396557 8.246347634855196 11.32023577978465
Be 9.539679683824847 5.945873596898249 8.965620756861771
Be 7.811227370648538 6.212952126053936 7.3774378558521
Be 10.262763940187376 10.466437224759515 8.804937526716314
Be 12.257221192238337 11.496100786035969 11.807885560646124
Be 13.315059721037098 9.861840829480826 10.795779297351404
Be 7.9042370446088785 10.224731356227974 6.318807669396025
Be 10.938917645430912 12.311230414626433 10.224181772729684
Be 8.067342106115886 8.065035254763304 6.255237284889843
Be 9.111377257717104 9.207746903909417 7.743993941939784
Be 10.951495653185448 6.5685782137898805 10.548514018803527
Be 9.653617847230523 12.527499377591765 8.53758723151108
Be 11.413201088265232 10.169822604089795 10.42270166156302
Be 11.3562313122922 6.7174659098879745 8.51955672828837
Be 9.687735288967728 11.272263593078671 6.845460851694736
Be 9.804878445790061 7.23182138926926 7.1636873635307845
Be 12.945587637671922 11.791950463083964 9.893179499711241
Be 12.460764542559403 8.344069375622807 9.401272771623058
Be 10.248305393280722 8.356480630521679 9.397789023471532
Be 10.000526505213271 9.321553394083377 5.959736642465864
Be 11.662152312994673 12.058770513429225 8.240531113904613
Be 11.322761254896122 8.704210497820064 7.586513276016381
Be 11.59374454336454 10.576244160810132 6.762533430879134
Be 12.693309302514999 10.232714798702771 8.578070038267029
