49
Energy = -144.70271804 eV
Be 8.135306700097738 9.215246426879201 6.125021942673088
Be 6.458930310581611 7.91101919722419 6.863440163603899
Be 10.14067919063067 10.267368538651773 6.478041906341737
Be 10.112999962893104 12.159754491420722 7.312042532781955
Be 8.430921797034081 10.995934182008387 7.492315264969465
Be 9.993362017023776 8.212543424759989 6.156441519483709
Be 11.45166845223397 8.944786842973048 7.480424944689114
Be 6.829012165407654 9.706326041291412 7.769606138991051
Be 8.333826235893136 7.1474554196130775 6.833366950946738
Be 11.915756814503947 11.075274841303328 7.55378868648007
Be 11.196616843544117 12.599740878495732 8.974614970588265
Be 9.075841931439292 12.275623428499694 9.193480166010303
Be 6.677656976211895 6.302426574405028 8.203603987313533
Be 5.479354167795298 8.144306136472691 8.649794091185894
Be 9.08222397034343 9.010717308446159 7.9485376942236865
Be 11.600597996350237 7.904109857614882 9.401773641466923
Be 7.669109002376311 7.956054618396323 8.986648344468769
Be 6.951587242937138 11.75078857278294 8.912680089882755
Be 10.389969924560816 10.37592460187615 8.968836833086465
Be 10.242376056849839 7.180264659604404 7.931680732128793
Be 13.985615240844572 10.488291421985675 10.477667736124248
Be 5.358370715040852 10.263274290912994 9.038189354266942
Be 8.734588249513354 5.8052743825796576 8.335524044116228
Be 13.18454638083797 11.97131984363256 9.172412446861838
Be 12.576723440348532 9.803824496732728 9.11995826230778
Be 6.139426719157648 6.900847572769553 10.150109787601508
Be 8.075119008884558 10.001405082519238 9.564918687700326
Be 8.01026544056898 6.05432356044678 10.1967299949201
Be 9.477996549972344 8.381182968065195 10.006354402185531
Be 11.716711946206265 11.274527710123815 10.5525568484729
Be 12.963798354124513 8.740507372874855 11.04724046744832
Be 10.158771249785348 6.248252276427832 9.910250650179783
Be 6.000528543840092 8.999469083880046 10.538506743415553
Be 12.235396401693839 13.470975743761928 10.535734772564282
Be 11.100921178500164 7.4680079449836425 11.380415987014109
Be 13.744931733635822 12.349394645004299 11.24026379334677
Be 6.110409220675955 11.102702821962312 10.750440373063979
Be 10.19433281165905 12.698058716112149 11.015507869281597
Be 7.917578581420561 12.007161586603527 10.869142382623874
Be 11.101587511458627 9.448736493482375 10.851665560308183
Be 7.603470841126845 10.030383648937017 11.697858253798616
Be 12.867119367973677 10.525218815329447 12.26663049064839
Be 7.673285558501351 7.953812846464026 11.259753506909608
Be 9.253514412683836 6.740008159893431 11.744531599910779
Be 12.000689420672385 12.538266725392218 12.339877466498097
Be 11.60350742819746 8.938738406102226 12.797964423642108
Be 9.49036940261804 10.723061147053421 10.938585105115155
Be 9.52418316163322 8.848853577821634 12.1914650540676
Be 10.76936476720494 10.829374012913695 12.514524731777529
