45
Energy = -129.64134476 eV
Be 13.239090032184551 9.28086339557481 10.070910907778384
Be 11.311206084312515 12.744239726035083 8.951470412670787
Be 7.768367515712148 11.998201380388858 10.154463863390001
Be 12.888697020518904 15.028303456842012 11.183361542423155
Be 13.26984986723554 11.676001683443006 13.617597392650968
Be 9.607362835589766 9.19303131778063 10.153869913759019
Be 7.808776898715156 10.12649392587267 11.211711676631428
Be 9.727819262114163 14.950963702387556 11.255268629072406
Be 11.40933721391843 8.797489575611937 9.036884403771856
Be 11.289674383791136 14.599046203805846 9.978806404718886
Be 9.561561373856083 13.38823681166342 12.628091165429526
Be 12.951138418327565 9.71239944299537 8.050462945356704
Be 11.484693097635047 10.944254754741497 14.62661323714454
Be 11.364039800519546 12.708010477792238 11.223463271314836
Be 9.648296483176457 9.125348849141877 12.24974836165645
Be 9.541807483160278 11.59195623097433 8.817961395631793
Be 8.031967921337744 13.744491360437719 11.26423531836711
Be 11.414390058210534 12.746698667274186 13.48346992350854
Be 15.036700771380678 10.302476204240639 11.047005794071174
Be 13.107111009703274 13.479544324382704 9.794939061495336
Be 15.01595686573133 12.15778984295726 12.140334303530306
Be 11.440024701161924 10.705090612256427 12.416643768709333
Be 9.599159441692526 11.38494658499916 11.23138110295772
Be 13.189572210935024 11.471580938815158 11.148500865590474
Be 11.34618941732066 14.585196504140407 12.45134836805016
Be 11.457930571055607 8.783277094043221 11.146317384098232
Be 9.521553168847747 13.393186782618317 9.874883918569733
Be 7.788667058232598 11.98153031883473 12.30589730010047
Be 13.166737124396231 9.6761945247049 14.19439482683663
Be 13.192953664093723 13.476123689990006 12.543976707308968
Be 11.384824367551113 10.778381531666891 10.087315493222324
Be 13.297207897298023 9.21455465139958 12.166626965618626
Be 14.64059950801397 13.906290381878106 11.113435306161172
Be 11.329267527445872 10.94355522245648 7.829944576241958
Be 13.126872347461724 11.680310767452644 8.734471898442118
Be 9.621499141350048 11.586963895269614 13.701378938707816
Be 9.781433010421116 9.634690064282385 8.122787213196895
Be 8.06738726810047 10.185236454520247 9.16683917010592
Be 14.68160069462117 10.346938594194588 9.016359945156319
Be 14.937423925293707 12.17315567978521 9.99077559437367
Be 11.509655098625542 8.656563717202648 13.277962840583701
Be 14.760718284303335 10.356682893444297 13.070322257137033
Be 8.173695402033317 10.195794940406575 13.220489854771769
Be 9.848394983430378 9.594733033437956 14.269931417494366
Be 11.54622856476879 9.026188013380215 15.266968748229022
