43
Energy = -124.06753927 eV
Be 7.446929992069163 9.620982714194263 11.485308005414032
Be 7.5469066885883525 8.880248545983944 13.4827606336022
Be 7.72835465560058 7.561376607747829 11.895903076665384
Be 9.501234159249066 8.084130436431426 13.057647879064582
Be 7.939207173751044 10.832649894634457 13.129802598245083
Be 9.188687963170025 9.803159825894172 14.309302818739953
Be 8.814980777340686 10.129059358408977 10.008516015248496
Be 9.17024875899531 8.186868845978802 10.70545844868473
Be 7.3324096286390015 8.486377189924232 9.714013752580957
Be 11.072373598963265 9.73595784033506 13.534076152090426
Be 9.692795359397893 9.909332616617803 11.89086791306694
Be 7.5411794114424735 10.26740831140881 8.376922875632218
Be 10.162676369228004 6.671588772678502 11.554182039905557
Be 9.856821409327564 11.62624394936807 13.404925590314415
Be 8.77235882417324 11.843049262821966 11.468307395342293
Be 10.465790455490177 7.033161015701645 9.42574088923408
Be 11.281834203444896 8.367892533664119 11.886231807189732
Be 9.864053947461292 10.46828903881697 8.163770606222686
Be 9.089260574282337 8.448684606540063 8.59276947122283
Be 11.891783006094482 11.645209748629867 13.24532502469109
Be 7.353310084350745 8.483267246498269 7.475842512843878
Be 10.520429945965798 11.323039200154492 10.190841925386362
Be 8.517775104374813 12.027841109408003 9.219771481749934
Be 10.843399963713903 12.813660367729357 11.873017790840814
Be 9.721388507772724 13.327196934633712 10.231144028836791
Be 12.131600445351623 6.919118752159132 10.69567121502532
Be 7.5735925175722905 10.18015090505376 6.298483422470451
Be 10.8168570216035 9.209449224346042 9.853373191195807
Be 12.04627511223188 10.288128636114612 11.673131416193964
Be 9.244777938949234 9.021564358440543 6.565659699500098
Be 8.546369422641279 11.858924610462413 7.072608717081982
Be 10.163628146233911 12.80537459037228 8.256302838448532
Be 10.907095839325715 8.316031640651792 7.692246922931254
Be 12.937070264649183 8.875045563235593 10.32662910690184
Be 12.450671552376626 7.577807043065359 8.80466171063777
Be 11.752775676857583 12.963329037953558 9.716602794051934
Be 12.743468732402821 12.23206165187225 11.375943050392236
Be 10.609591761923214 12.043570118440416 6.405090919154513
Be 9.39239441781825 10.753911208760242 5.469273523672163
Be 12.430897893581998 9.619926415995815 8.209381592859046
Be 12.709507832525741 10.951254748001055 9.771302858964754
Be 11.216367072615673 10.070984338286406 6.449113632496292
Be 11.939939268949551 11.665762663080839 7.971144135703306
