46
Energy = -134.61418629 eV
Be 9.80231776909129 9.208198235625177 6.385054854407979
Be 12.241540256712074 10.695803241542034 11.94848674305258
Be 8.601006052047035 8.9736996555489 10.78052245438498
Be 8.191145268760426 12.432427842058974 11.5596873620089
Be 8.074963980991967 8.05385265312048 6.954956629475253
Be 9.179169214527613 11.410791779095682 6.654970953520629
Be 12.347026803693607 11.81115765612327 8.351191760905463
Be 8.7054782554456 10.635484335707458 12.417949521832352
Be 7.139258102279492 8.09390322768685 8.88205371615144
Be 11.224253571959393 8.43533188947554 12.445534852303444
Be 12.946895764200331 10.493869221887781 9.856861830085164
Be 9.998099625906846 7.20091026748204 6.995842312221606
Be 9.670431732453933 6.977181953412011 11.812345767591587
Be 12.052405526582616 6.862246965004187 10.596005213928024
Be 8.073593709967481 6.914647743926407 10.340768348422257
Be 7.010012426640781 11.363631400528009 7.553596538027919
Be 10.573418045514215 12.691578183263019 7.466640486405249
Be 11.737961176190195 12.11661015323682 10.416221475009241
Be 11.266790433096102 10.752249357208404 6.8144088401050755
Be 9.96886265116068 6.228683493346189 9.802819378762397
Be 12.90090114032787 8.328718049559042 9.153517593763594
Be 8.338681906183865 6.43151243538425 8.285306827402074
Be 6.453859243380959 8.526269112853615 10.902989108654728
Be 6.428704568694372 10.111618681506293 9.32307697863284
Be 7.818332611265805 9.944589215289414 6.1478387818266755
Be 6.422423677484901 9.31700262550899 7.426134732970057
Be 7.185537950702379 9.27777683544705 12.75934237850769
Be 7.678516903734289 7.413441969790514 12.307326537732754
Be 11.374228796422104 7.105702569035714 8.57250533376904
Be 11.729344806943566 8.475038085254953 6.974556448599105
Be 6.908435449027795 10.686238981599997 11.25337851603292
Be 9.22170694233125 8.623534769369146 13.118950807787325
Be 8.715460864467294 11.099570928974483 10.157327166546107
Be 10.26929558723919 12.026213466924885 11.913483262208212
Be 8.60981961261076 12.403346927302394 8.349987133719933
Be 9.755779371376187 12.934102468775247 10.107641969500225
Be 10.55970338509622 10.26584765038349 13.147828509028226
Be 10.38330815097724 11.390367331177396 8.89776618010839
Be 8.557180183468505 9.97695627012237 8.249070747176477
Be 10.566788350206528 10.190706684810552 10.834209744641058
Be 9.339228483683591 8.025018114577037 8.827671317815769
Be 12.987136244180855 9.974686753561501 7.817361425570129
Be 11.0776222521344 9.409030907553044 8.718832165898919
Be 10.64614917839104 8.137260671443059 10.4183186084952
Be 6.988867291752373 12.104461350542815 9.611948503030249
Be 12.66678095958949 8.857163097390632 11.076145391397102
