45
Energy = -131.05698441 eV
Be 11.202697594986887 11.764364464680957 8.3324092694791
Be 9.499837588506098 10.553891204232379 8.260342268841454
Be 12.827270138921442 13.014593503314611 8.704989057610758
Be 11.37826030734579 9.729600505979663 8.929407349458955
Be 10.99902253130839 13.427267188184356 9.544814220519664
Be 13.121165430057177 10.93941036388925 8.861625751070395
Be 10.276660760938466 11.337743656384081 10.163978524477223
Be 8.524830706352033 12.40462391875993 11.061316103865583
Be 13.11767958894367 8.96023024112751 9.82256628085289
Be 9.116076945944497 12.608261882789492 8.953872678502707
Be 12.935512733294894 14.254550894014466 10.317005820645763
Be 11.17642164795308 15.345483799879437 10.302982167741973
Be 9.551833647938524 9.168080774656165 9.896517118698616
Be 11.304928455303738 8.04212740378391 10.320879105118106
Be 8.119791400428348 10.860988399076582 9.691621280919373
Be 13.92772689523758 10.554738884386515 10.772676847430633
Be 14.244684828152662 12.547518695181205 10.20949547181795
Be 12.223329446095708 11.903765322229745 10.596400510383013
Be 14.989875879936863 11.826375854221851 12.118361086978881
Be 12.446921982777177 15.444062802781769 11.978148020539162
Be 11.379099390010653 9.980914294008873 11.305695684174438
Be 9.382927792583743 14.243758312927465 10.6739551459146
Be 13.986261766668548 13.681190551996295 11.998437332671175
Be 8.934227202058079 10.313706050628442 11.529724256778698
Be 11.590348132917985 13.491733443822017 11.897695562785126
Be 8.486765345160203 11.683362388857503 13.009169290756368
Be 11.531987623096981 7.244119230486895 12.139979796110413
Be 14.806660931427043 9.628253733275853 12.285159103976783
Be 10.336845609186357 15.395583023749106 12.1650345654952
Be 10.597077085406092 11.680773561997707 12.2953414239303
Be 12.92244409461223 14.374342300288786 13.6967317115876
Be 14.253097116178928 12.750933057323444 13.922250359672121
Be 9.853001457758927 8.465975701314873 11.916873382243148
Be 13.36849496652509 9.372891624938752 13.890703232862188
Be 9.256296920163248 13.596916745199387 12.697084470985887
Be 10.855999562101044 14.251046831580934 13.843573863030237
Be 13.029999106325485 8.612626299816952 11.851182069362867
Be 9.711311666872152 10.055190988434832 13.461351023679486
Be 14.971861472992973 10.775008672524322 13.927066273002866
Be 11.418007827724269 8.915250109107218 13.298386020416583
Be 12.817837123193817 11.355131771077836 12.626400041910795
Be 12.084635951812746 12.722183318079962 14.540820600372843
Be 11.512299615445663 10.684340174794727 14.345416711920578
Be 13.379134150612037 11.205730344584222 15.030470639888545
Be 10.033444157300977 12.315952288189223 14.296683080077596
