41
Energy = -118.84600489 eV
Be 10.347020551522446 11.496553633287991 7.313103425186063
Be 12.17429123123443 12.259178006179377 7.851193337929466
Be 12.01966797035507 10.022356571501621 7.696144008401882
Be 9.863731086085433 9.640490896611114 7.944068944662848
Be 13.655360149104034 11.186333006582347 8.594609544417306
Be 10.323216313314225 12.738190076670707 8.955105884667416
Be 11.820033329880761 14.100259145084348 8.726831879864267
Be 13.711241639294077 13.207621192541424 9.156110679568362
Be 11.05991453477883 10.778980433607037 9.349704467268841
Be 11.133903182118688 8.642484309910369 9.248780622666498
Be 12.954697061322975 9.619183779034682 9.664923813266324
Be 12.036204745386744 12.485492249227697 10.202292756187354
Be 9.273734620606122 9.516696869801429 9.987451220080384
Be 8.850796192777226 11.24221910909163 8.930638502337134
Be 12.328146796626658 7.982061645977244 10.784641194835766
Be 10.440783121480479 13.856594557306657 10.847682777791372
Be 7.909288589269434 11.238970499494538 10.879727292917643
Be 12.643916475341385 14.563379184331444 10.534795083983473
Be 10.208120749239619 7.918105720857871 11.182641045680986
Be 10.029547731563405 11.538057262797738 11.024141673985719
Be 12.244022212178432 13.605559868292323 12.29981466567942
Be 13.964155809903094 11.35489726458506 10.673008367357417
Be 13.98901929280039 13.243704507251428 11.308371493295857
Be 8.529199927607154 13.072105452947197 9.957665537238734
Be 8.535296994110004 13.225912494287313 11.93709330694677
Be 12.028790571162537 11.503796071927763 11.976011336494382
Be 8.954270431847986 9.596682761957528 12.010467077335164
Be 9.822224833390122 8.197385025122298 13.269739075055268
Be 10.601451156427103 10.520972697184604 13.009592053057583
Be 11.180746053094625 9.736178736451684 11.137461776378215
Be 11.821980108107793 8.357135202458714 12.766282758137223
Be 10.380195981196794 12.833716612110385 12.729806291361387
Be 13.295303820117102 9.657444507409163 11.840625766144582
Be 13.797097805308036 11.791017189179636 12.834353317847533
Be 8.673168005368066 11.439466700661706 12.897752671454382
Be 9.239402979576697 9.933390503069383 14.444232356459793
Be 12.579330381136462 10.198548795688657 13.823720575703874
Be 9.769238731692987 12.087333412720204 14.509340695414508
Be 11.915132872808663 12.207738572494858 14.019486519197269
Be 11.072540355554322 10.804602846239153 15.303812688183038
Be 11.104267865198528 8.879654887952954 14.657225775448095
