42
Energy = -121.47672969 eV
Be 7.2243734789741865 8.975374522085737 3.673744541564773
Be 9.034641872537128 7.871872962927315 3.9723066397213507
Be 6.92451434575067 6.963301013579704 4.352662824209868
Be 8.821186500622547 9.912201784769438 4.587235133096287
Be 5.680518032853215 8.554459336997843 5.135472376359239
Be 10.439565213421293 6.53440271475832 5.073141367443467
Be 6.818470936964486 10.316015863950136 5.283480923134907
Be 7.797589357509922 8.426479210063928 5.605103037391631
Be 8.551365911826238 6.538853508225159 5.618036818371468
Be 9.909603843363696 8.387580834566194 5.881462167091573
Be 4.945320199267535 6.030568982331333 5.878232528438032
Be 7.227815560277237 5.001302593038242 5.843249751815558
Be 6.6497187104146125 6.954414629159216 6.350480639511747
Be 9.32097071357461 4.804213623867649 6.385346163033221
Be 4.606551558024594 7.917192580229423 6.74609755805028
Be 5.114637444876653 10.14361231624857 6.731855375291414
Be 8.706706306267684 9.93949575106212 6.677984901705697
Be 6.613001564682154 8.951612599282857 7.235236687711378
Be 7.079873656573672 11.166185266130512 7.129421957738281
Be 8.315371967333597 7.9155837131667495 7.70335495875578
Be 10.209448012827217 6.628676782138847 7.1311452188260205
Be 7.8736056264455705 3.9248736614673905 7.902273625206433
Be 4.38628472804587 6.269149318919887 7.984561484273474
Be 9.887828232537613 4.825293700553416 8.347392606440824
Be 5.908579621574966 4.954651677680304 7.365072206436407
Be 6.201406937815736 7.046155599807108 8.254054173348374
Be 7.985625843186394 5.894206013288628 7.74027164258119
Be 6.46254251654285 5.104534532191447 9.321064148443988
Be 8.223061087473745 10.072072812539897 8.656086160199603
Be 6.094654365364456 10.437378666286303 8.763283697930811
Be 10.101134046465019 8.777189194128619 8.081281460988052
Be 5.70190217507236 6.928768164416767 10.20703941510704
Be 8.486530304237776 4.8707856483464465 9.841525082654107
Be 4.884101669321908 8.641080035448487 8.60653406597334
Be 9.728767193461126 6.7614838682678 9.111330334300856
Be 7.59878357580774 9.9750056026829 10.630959246198968
Be 7.718464832443717 6.86116722141266 9.566586480791111
Be 6.719183806273211 8.632966804002969 9.499267769685554
Be 7.168231215907262 5.770377500018059 11.259178740996703
Be 8.970339503230996 8.52837134321721 10.001578861883944
Be 9.080404450806292 6.53077504117778 11.088062411564989
Be 7.4542423545341014 7.887232280058853 11.404464090224476
