42
Energy = -121.63184456 eV
Be 7.678752418001962 9.409533809269437 4.668858200745131
Be 8.268647075682328 7.434496093018981 4.858288690411051
Be 6.971607899776253 5.774147714829714 4.9589251587510175
Be 6.1144842108382855 7.888813147776512 5.282184145052609
Be 8.999212538953856 5.524584205539177 5.818130720011469
Be 9.638941595485397 9.040986282504822 5.406290840574066
Be 7.651143891342231 8.689202833460204 6.5622345717431365
Be 6.244460256789373 10.11480067810907 6.17712492859626
Be 7.2967891419207325 6.768242801816435 6.663068696646144
Be 5.483479829071454 5.796763885045133 6.4838242003741
Be 9.446714534022675 7.364220664049275 6.589165285677375
Be 8.565805607388034 10.560336691794133 6.456189671505089
Be 4.120133317698662 7.258227987208368 6.112181287055822
Be 7.3153277585603 4.62417395537388 6.831148275704714
Be 5.829576255009228 8.078906837993188 7.5627690465727335
Be 10.668903552653548 10.034499061394518 6.96537466032092
Be 4.440421902322092 9.220338836907205 5.973530942467342
Be 11.332169957142735 7.97175930655915 7.269801957228251
Be 9.17806895612868 9.039803042853208 7.817999820549223
Be 10.662063257409232 5.876687205394942 7.524468498250929
Be 8.561061621676803 5.99304740854365 7.994161019571025
Be 9.380770657159642 4.214711894875634 7.46488047596754
Be 4.891758109672988 9.977149072547121 7.963699144176716
Be 6.427602417913498 5.884990853068577 8.388796814097956
Be 4.356615674639263 6.611091903365129 8.190896597515108
Be 7.145386194108479 10.117009394532479 8.09771102308966
Be 11.516554526460327 6.841230307831757 9.18268154375476
Be 3.3512405035943766 8.482373888002574 7.510586986970873
Be 7.89371802810967 4.368011630315609 8.961961984081972
Be 6.019457212778491 9.224080463381656 9.73135518216991
Be 9.71099187509194 7.393763326875872 8.773791502562988
Be 10.995052520044638 9.135912071875689 8.905360692702214
Be 9.26497032640593 10.750751243437737 8.70037159144906
Be 7.607947111293069 7.903346526270808 8.667925100749535
Be 7.741499557992884 10.259951838226355 10.095008207330725
Be 9.8672467028145 5.3516824916051196 9.44073862038616
Be 5.829978542423505 7.173717731676106 9.902561446872017
Be 4.230786537771428 8.383816300200257 9.29199322282098
Be 9.237684190387206 8.988096889423309 10.018033417471422
Be 9.662889428423457 7.037908267272901 10.76906131513914
Be 7.8712490223070155 6.227969042743227 10.064486419069366
Be 7.493053151894992 8.173080282191279 10.866595962973484
