42
Energy = -120.33591931 eV
Be 12.73169697075355 11.801262787956846 7.760525791556836
Be 12.836507300660555 9.72539923682746 7.868627494320993
Be 10.603853546847903 12.502951518596559 8.169420122407322
Be 12.295568666348451 13.709785777326326 8.321675037421786
Be 9.013950024257742 13.267136697191223 9.493984763461587
Be 11.258593076727147 10.635876818351278 8.875939357192012
Be 9.419197184893726 11.196025399602714 9.727872627869969
Be 14.256949759149677 12.982043383584672 9.073330451851044
Be 12.657215622947898 9.387715726499092 9.892802130778053
Be 10.72978756744921 14.590875530372392 9.503766727615488
Be 14.199515272324467 10.704388077896787 9.00103375529104
Be 12.791159232595597 14.220315708199024 10.183090137480672
Be 10.936273290810831 12.687813229256344 10.212930106832445
Be 8.204376393276407 12.254064597069569 11.06920217075266
Be 10.816868722310874 7.624052763356675 12.18414164787581
Be 12.773974471625547 11.858049184263104 9.916515102059478
Be 10.389279950521463 8.996087729176056 10.531392099886626
Be 11.361680687704437 14.656155186600541 11.551898770691807
Be 14.37689387885964 13.537155351997319 11.259925999156017
Be 9.464054573115254 13.975004571002321 11.376721064397973
Be 13.606083401705792 10.488548286959109 11.47188996747599
Be 14.94945755190781 11.757745888821649 10.68580369328065
Be 11.92005357175929 8.384206907159353 13.809075221413057
Be 11.350866230110682 10.748479881567484 10.972279798809703
Be 13.058424863175816 14.125369811449888 12.872564456157454
Be 8.930278440739487 8.209704977042017 11.950195636165542
Be 12.178471118796612 9.097713978898387 11.950425590985299
Be 8.547657474465405 10.23437118599519 11.411299935200242
Be 12.304471527891142 12.669949015381128 11.707517648768809
Be 14.072460087002002 12.029747212088653 12.788739301711354
Be 9.782782030986665 8.30253016581066 14.0299867797723
Be 10.284230992771905 9.949636516970335 12.712108123472769
Be 8.08247122598147 9.45532692329406 13.339415333355499
Be 10.115316768302678 12.049131201835234 12.069922022661277
Be 11.931952051545409 11.075340260230211 12.90600672464143
Be 10.95259670428031 13.644705416676862 13.260384520879157
Be 13.376301298704771 10.00886301179675 13.703662515539111
Be 11.414094180535013 10.046709980408222 14.755896381642959
Be 8.483596091397157 11.510278274443698 13.228073626866987
Be 12.51384042579258 12.546273239701586 14.154531241923918
Be 10.43920666756497 11.842836480679486 14.21229390327364
Be 9.291963645077079 10.214344651337983 14.737104760776628
