45
Energy = -130.95641354 eV
Be 8.008306337729978 6.34345996636191 9.591607398784522
Be 8.861244182669822 6.483729980765183 7.729860554172102
Be 8.787822303949214 6.771758485397336 11.52664895922243
Be 9.998069434295836 6.075680628377814 9.455474305542484
Be 7.621676676354351 8.00944885438578 8.254737653664867
Be 8.840812460078592 8.335281502121584 6.595487724338012
Be 10.413644527000974 7.872025356872254 8.031997064896878
Be 9.041917636451233 10.30024323469562 5.941702991765606
Be 7.302061108225905 8.12884117786803 10.549353168564418
Be 7.380725125009292 9.998461407992506 7.091232272370215
Be 9.121975891948884 9.659113865292934 8.257931643998996
Be 7.099336879361771 9.746060130469195 9.218711132379834
Be 10.216903943161697 7.544971757967028 12.977248612578661
Be 10.767921393061894 9.486698258716485 6.688956584245249
Be 10.169131016198625 11.423170710754627 8.917688103856522
Be 11.622988501505555 7.525976265149956 9.766407371438962
Be 10.243307975210486 9.20265547843545 11.61561088452498
Be 6.917456513187883 10.053779133782664 11.43417987924969
Be 9.322073835379921 8.185501402173843 9.883060761526766
Be 8.020466262931414 11.530116321232402 8.45122373955152
Be 8.365506092896322 12.081995176917811 6.528826784893877
Be 8.529291440189999 12.875181653279403 10.002105249874816
Be 10.78469452073487 6.4728258224902415 11.329704041060012
Be 11.9583136168844 10.792076427003678 7.7015813002465014
Be 10.906461013196271 9.5973086702794 9.55539338449362
Be 8.8645445605534 10.374884819313952 10.312178887267773
Be 12.388111981567357 8.796660184794918 8.118904639663228
Be 9.508087687814157 13.186401892908908 8.03791570624916
Be 8.724651319802964 10.737458580142066 12.561730845321806
Be 11.581057478700092 12.751533523675525 8.191766058415485
Be 7.417456383009933 12.073117382987549 11.712462514551964
Be 8.273785266482154 8.612030146457313 12.384831319687066
Be 12.102147799718155 7.98664341000301 11.821006773294325
Be 13.655027935108263 10.335728036653274 8.70640652169058
Be 6.651975867582626 11.629758495380164 9.976515732572876
Be 10.418027364467724 11.76636642139629 6.665194886411795
Be 9.631625119703328 9.340924504910292 13.849474691575052
Be 9.397122458783837 12.597201904882969 11.876068602620627
Be 10.610601695112985 13.117806261634126 10.044895434224726
Be 12.238926960562173 11.380653710568426 9.76678180854503
Be 10.651987719708227 11.259124511286265 11.081605387478822
Be 13.02983343536269 9.077340568173291 10.151916491452997
Be 12.327765514085598 10.15900423949707 11.770170550047036
Be 11.59351908403269 9.147047107845665 13.469898178130517
Be 10.740687429248382 10.98194414719564 13.13462311059923
