40
Energy = -116.08818941 eV
Be 12.078742257940082 7.7315896141992555 7.150326654079246
Be 12.534245161065202 6.7302908794967315 8.849438698662802
Be 10.159435357924442 8.038145894145085 6.443329463260016
Be 9.982595084286768 9.971124766851792 5.698784050849096
Be 11.34887566011266 9.650006100972963 7.160215414187272
Be 12.682289308939627 8.958012157151192 8.781463019695952
Be 10.644586520299006 6.407535924949006 7.939473344434187
Be 8.691778604730825 7.21290342058241 7.53545203853222
Be 12.6242812902424 7.8116760150260856 10.543795885569725
Be 8.195147089018072 8.907433818270702 6.140685567805944
Be 10.051901918756808 11.465063806496032 7.287356977364727
Be 11.002109873919746 6.504676875964574 10.28967914319484
Be 9.134678433456719 9.629116187957397 8.011980217584123
Be 9.089129361764494 6.104845045646583 9.401943715526727
Be 11.050240298922244 10.495789805158532 8.962750692005597
Be 7.070371001535426 6.449704920935881 8.688352465581739
Be 6.9362852715479075 8.35956758789701 7.781712526114859
Be 8.356791086949993 11.070042865993036 6.0983710495595576
Be 12.13570609527933 9.821323366875943 10.644758280093942
Be 10.511917544584668 8.275428811946187 9.056303233433127
Be 8.334530247834744 8.106841224005358 9.406337458588354
Be 6.021907659177859 7.98005820952977 9.756547284736603
Be 7.902678419723305 11.83289306257549 7.9663607825484855
Be 5.336214834272407 9.493423131792623 8.504115068821672
Be 9.466718064152184 9.713234898449821 10.329003603201661
Be 11.059143554982596 11.688227554266893 10.621377075286413
Be 7.5380343525946785 10.031353277253631 9.336210983563596
Be 6.7378684056462035 10.27944421829849 7.106597913776449
Be 7.373733881288198 6.535134793255997 10.634036875009036
Be 9.34064136288337 11.719853686328504 9.38174307102008
Be 9.207715716680006 7.3780086612967875 11.197413308309736
Be 10.920881125629007 8.380476555867695 11.598340327347941
Be 7.410117988158353 12.000724814786157 10.167725350494656
Be 10.780209359867959 10.433322427152671 12.145017948664456
Be 5.770385717921828 10.046606499258926 10.470855414301564
Be 9.047343758785587 9.232592719458323 12.338755669376233
Be 9.19509091523851 11.707160915708476 11.523907854956894
Be 5.947480070511372 11.41919035419465 8.71714960499889
Be 7.589220034791195 10.520788815556125 11.54928144035338
Be 7.357567695592204 8.55542984113161 11.279765803545912
