43
Energy = -124.69570785 eV
Be 13.21919956434773 13.085119896491562 8.504957766544376
Be 13.974100875279415 14.482972112844099 10.011295780091368
Be 13.155950037123356 14.445784915725314 12.116470627585388
Be 14.893444691541436 12.61684779162034 9.693370704267581
Be 14.90264711983945 13.440009364511502 11.559712331812992
Be 11.897943797065645 14.328122661262492 9.410972454394281
Be 11.270382041067167 14.207666516604915 11.318118144807325
Be 13.475783126673393 12.579018971060542 12.96537732198478
Be 13.479102482314044 11.074861785687881 9.349067211011764
Be 12.91217367876475 12.79237613504599 10.689893945817369
Be 11.128038815677304 13.204213540103137 7.830174132057798
Be 11.134253927900799 12.166276335182294 9.790050515152267
Be 14.375917466048264 11.34213459404112 11.359285564025738
Be 12.00032549943599 11.601442175094645 14.180744326071494
Be 9.215608083319403 12.553260796577435 8.395984068481368
Be 11.54235808224094 13.58080653267903 13.330574764423384
Be 12.325209752503152 11.450729992574951 7.655283246932909
Be 9.55720781622445 13.201128796647941 11.861875658028321
Be 12.261975482176346 10.65052793742863 10.89211618423158
Be 9.826349874111399 13.934602866926696 9.801259657535097
Be 11.537229777797101 12.120745991413953 12.031079418708167
Be 8.265908461935119 8.027805973379081 11.488223108447016
Be 8.707450978371742 7.903051406483537 13.460171263989704
Be 10.705577165512514 8.309776572570161 14.021735422634192
Be 10.339108015265245 7.781138781368182 12.06547617167343
Be 12.478018196884436 8.294009883759518 12.742108796744231
Be 8.050058073282901 10.102233202002695 10.836186902860634
Be 7.335304431686787 9.375069606461215 12.661641747063664
Be 10.434842290113515 10.236050052712866 14.81477593344574
Be 9.723505768346872 8.800235030433296 10.24213855687119
Be 9.274989065762071 9.856072121102315 13.110199795991948
Be 9.257011888249515 10.634589725025684 9.180753024231226
Be 10.082606284072005 10.859765148129755 11.173025342436008
Be 13.698802380060528 9.268320141085956 11.31551363480524
Be 12.296154715383265 9.508021682938312 14.557860902485444
Be 10.373909416271806 11.125943297957507 7.542121084796532
Be 10.028793286610766 11.795193201177732 13.393113120411007
Be 11.31645169115242 10.008863465455812 9.048954391706483
Be 8.212548294582284 11.503115403026996 12.346179055716306
Be 11.752990061158602 8.63935187674772 10.81486011161524
Be 8.484834327251372 12.23912590147924 10.342872415192305
Be 11.285640397966828 10.02928198546528 12.691936622947045
Be 13.385723489573262 10.419766502656904 12.977919440913785
