45
Energy = -131.51490564 eV
Be 8.279067577298164 9.155067323172638 6.262810243560053
Be 7.404392190141295 8.651219400869604 8.423835059295095
Be 9.51791526630708 9.163854554924304 12.145786493162344
Be 6.453352297174969 8.059173563107898 6.666976049766091
Be 12.174541809103504 9.989238085611943 6.791751173992765
Be 12.835752591084526 10.638081329442082 8.568745480265262
Be 7.288383587939197 12.087000386931095 7.948434934757198
Be 8.030100235507893 9.579607982935316 10.330704680404034
Be 9.358207832801792 6.052660216461305 8.262649170816958
Be 11.647151961852833 8.008429632518355 6.47763283668534
Be 8.799600891382998 10.217800091833837 8.409771634617917
Be 6.8655825408640005 10.330308256725848 7.049973634040385
Be 6.277913937350281 10.663065135746928 9.060217659559981
Be 9.747952988486444 8.238759744731775 7.743870321855739
Be 10.223227497526217 9.874086873884664 6.340229774104473
Be 10.520112273066728 5.993278114606605 9.925869864961356
Be 12.552340162611914 9.778641209604594 10.419505931194175
Be 9.196970153934265 12.484991204385889 8.446914929209251
Be 8.62894137671492 11.085815560648834 11.809913274422003
Be 10.111443922218735 7.2239507422217555 11.527235292402796
Be 10.33860151377281 6.412969154346009 6.511797037624278
Be 11.815364717733067 7.5990475914919955 10.156760255899282
Be 8.306977331182066 7.007228323169957 6.55967953946999
Be 6.732135306596287 7.289754289122025 10.186385761516656
Be 6.122231664715555 8.486038225402703 11.76189230219205
Be 5.478418893566949 7.447317354502118 8.510150722701896
Be 11.491723214307923 8.709102603336781 11.853107062347453
Be 5.422598517503109 9.039312767476993 9.925400826342296
Be 8.758300688669392 11.335331497588925 6.6037677644603185
Be 5.2231286509199455 9.333450597083736 7.85784669892904
Be 7.7466511431833025 11.786019338449316 9.974064471451522
Be 10.773474889288694 11.219499268048096 7.883172918093688
Be 9.714591682830601 11.371424317295084 10.078442003995619
Be 10.933496434165699 10.660056814981026 11.59573070942788
Be 6.346699824410541 10.593897960584894 11.249611652022539
Be 7.562532325911716 9.57342551202956 12.683944884083148
Be 12.547653684821038 8.570607950901927 8.406719598754263
Be 10.56154987438051 9.415158887958082 9.552058806116973
Be 11.41868140033746 6.800648363638275 8.253042382116522
Be 8.412190314887193 6.000289739328038 10.29662545229235
Be 7.3646538376388015 6.491918252291802 8.387413122245722
Be 9.04929163931935 7.807544427465085 9.683757228211952
Be 9.82542452859104 8.040618724798131 5.434786310431984
Be 8.05840070556497 7.6822704648245255 11.720981226933244
Be 11.651288607579277 11.621050648765646 9.829045308511786
