42
Energy = -118.75746891 eV
Be 9.199186035598803 10.559252531255703 5.802745042730543
Be 12.23336043010162 10.302889839434911 8.50410070923329
Be 11.632803626122143 12.286424022842265 7.920456813729619
Be 9.582493591641128 12.017508540977946 7.163112462208615
Be 11.769131907548921 13.8317508162303 9.380578841651015
Be 10.840827059519553 10.35225080472212 7.050160022035825
Be 9.934106556994157 13.362262177660075 8.684775646940134
Be 12.420059742971956 11.86767741935559 9.868724163625922
Be 8.78857406022278 10.00910734734195 7.659923074945345
Be 8.089828206916051 11.8014348310702 8.677328800897069
Be 10.118759068764035 11.127678595142806 9.02907921462349
Be 12.069557960365112 13.508244749012153 11.43408890118925
Be 8.366780053186698 13.478506658622939 9.902111647324661
Be 10.328293289679108 9.068436936514402 8.688314965714701
Be 9.705321726227355 10.085023676553815 11.336353354721114
Be 10.299995994217387 12.289450598595833 10.705796943958083
Be 8.4814353246265 9.79712347705632 9.633210409134579
Be 11.416757788149592 10.027789732977148 10.272081815224439
Be 8.208309463546058 11.535946025290263 10.786871833479578
Be 11.48402206053848 11.333308241497202 12.07022892469805
Be 13.3115873658599 10.06370457480278 10.993711058810025
Be 9.270231453018411 11.599570065322215 12.6992972483987
Be 13.574248134234997 12.066319357830052 11.724159088471447
Be 10.1588947889881 14.37358053610923 10.729747793893216
Be 14.915895166992595 10.483992660524828 12.17766026622838
Be 11.80367799184837 9.106534649659055 12.117613419100135
Be 10.465735151122791 9.896709295237152 13.508626523895401
Be 12.356562027177281 12.764659775944647 13.490037908811498
Be 8.636554958462769 13.363215959918964 11.87298758924543
Be 13.895660519979451 13.850362862422973 12.779939207856568
Be 10.441891818965194 13.415415421551199 12.765122518844178
Be 13.913117173127343 8.819702965735043 12.923549662947044
Be 15.097288401687004 10.123607841075469 14.174106944103384
Be 12.920051423569785 10.727911113006378 13.468991058315313
Be 12.016212926777195 8.622988919528488 14.045915605092276
Be 11.733463561996947 10.299979272398218 15.335916843022874
Be 13.870697202045395 13.312464201245572 14.92098339620487
Be 13.568810486481999 9.198879166459594 15.095470932558785
Be 10.627915423481944 11.814457997982181 14.2557611467853
Be 14.691621409399358 12.08134273947515 13.553093880569925
Be 13.864652075123077 11.270210421029955 15.459846918270511
Be 12.136674185998867 12.343370773863123 15.578464993785795
