48
Energy = -141.42461577 eV
Be 10.597533205895843 10.536684741259405 6.4840408573128885
Be 10.496718712207796 10.610925758928493 8.545281299951862
Be 9.671872101115218 12.266916337524542 7.093127358671062
Be 8.530285654722132 10.50900213661812 7.484435681673254
Be 8.265863289086019 12.401927568993692 8.575475334616577
Be 12.562006982523704 10.88127884646257 9.267190592850524
Be 9.863862143616716 8.806239661413937 7.266726813996165
Be 11.907497991020854 9.395366935139135 7.706369536534744
Be 10.42006185381471 8.329321468873415 9.262164929239443
Be 11.672850489298142 12.11096911727822 7.654750606738882
Be 10.34781410167887 13.635624048227823 8.587524851494203
Be 9.905457296102659 12.079410848633502 9.944826456105837
Be 8.38589085997229 8.698006428162685 8.67499641009878
Be 7.100956911925212 10.727405604649967 9.090224899182637
Be 10.846435462361816 10.058378519937728 10.499427504276724
Be 8.860612054017645 10.27765913918277 9.788218288585897
Be 12.454448664671515 8.819531512076448 9.682649624950493
Be 12.133200602956459 13.009187372957856 9.555901528258648
Be 8.744052965610056 13.852047176436344 10.063645994779753
Be 11.301302328003482 8.121760218152527 11.325253311815505
Be 10.69735348027113 13.941122950191117 10.854095698521421
Be 13.69118912840129 11.995176537025612 10.718326043557413
Be 14.289188417515653 9.854206415175183 10.296746362855572
Be 7.702690263519849 12.087130825929039 10.621735406021706
Be 9.226193270950981 8.78113250188244 11.233056563257316
Be 14.500646954080851 12.920127452099262 12.465778402247734
Be 12.666953485486946 10.099537981326272 11.383807625496713
Be 7.4834069762510484 10.096549234877829 11.311081189226854
Be 12.767862362203669 11.514226529202933 12.773969198856165
Be 9.377685184902754 11.00525347779831 11.659070724309293
Be 11.389693285182261 11.947526164048789 11.332709214125115
Be 12.67171642099432 13.606001504297119 11.67570692895055
Be 13.43938568085149 8.14462133420825 11.46417307045342
Be 14.87043865193578 10.92204866275711 12.038519336058714
Be 9.153254164994944 13.059500649233163 11.954273313901199
Be 10.131002769903311 8.293072423679082 13.118203513879203
Be 13.010098652928933 13.311710549237299 13.802542862565364
Be 11.03046057452746 10.202561037018587 12.641401484027837
Be 8.691951265637984 9.789946870300659 13.239586691569004
Be 7.709023810485668 11.631609388877218 12.686370563235247
Be 11.016516202877 13.313528070044525 13.03711726913916
Be 12.574713277456151 10.02654413507897 14.373839725409512
Be 14.28265190855674 11.437947277741852 14.05436356416173
Be 9.61879247968516 11.719494252287198 13.728660431149917
Be 11.564065929117856 11.812497332324787 14.499983323754265
Be 14.041738082926397 9.417103681757244 13.054614522775674
Be 12.228923955177212 8.391376932058643 13.182145571058204
Be 10.429917599538664 9.877040295594334 14.572127425264163
