40
Energy = -114.98038566 eV
Be 12.85940223401698 10.962762631555446 7.914461509717283
Be 11.486636436794987 9.385013116442837 8.155472589067378
Be 14.403545242586306 11.579134487401827 9.066198571049915
Be 10.963869587136944 11.434753798411595 8.5834237805347
Be 9.37506209692111 10.157079892997292 9.020710020997951
Be 12.89724587019539 12.892237885135446 8.801815716810665
Be 9.977274739000531 8.093105516161662 9.463531400371934
Be 8.945184597611822 12.319494551208892 9.134094677239052
Be 8.029954620161403 8.705211925160912 9.763955755681174
Be 13.394780643120757 9.415481407865366 9.234247639646295
Be 11.159855410359437 9.656373779541656 10.108342742812345
Be 12.05776219176884 7.87456123081153 9.753635838184149
Be 9.467871155683675 9.597939661228583 11.288081859730465
Be 12.47215557830062 11.233153285705965 10.221991525070978
Be 7.925524817400642 12.711451132792941 10.907779914070813
Be 10.119565018857122 11.519535407218552 10.718692959711078
Be 11.085055829747066 13.171184701323538 9.750703806436412
Be 13.956096253680974 12.75644977486901 10.953464213679974
Be 14.52626779122995 10.508515376341277 10.72847873570734
Be 9.364625282792398 14.020176115983823 10.444989733727509
Be 7.7962799695234875 10.700119713012672 10.345058048607086
Be 11.794600765416593 12.477446198464778 11.739102374520735
Be 12.641173729455344 14.411449005565725 10.295474278853336
Be 8.373965949071593 11.272261475317542 12.282642123766315
Be 9.618225256706465 13.099523223557547 12.324818812011502
Be 8.855344971666865 7.343871259042342 11.014013503700006
Be 13.337765566284924 10.982261352021972 12.247176765281557
Be 10.890911024232643 8.068593900210162 11.58177383533331
Be 7.576397809837325 8.981601759903937 11.845642994109975
Be 11.388607765217976 10.355480725291619 12.036183928220504
Be 11.02831182276149 14.507504868468642 11.659054755240428
Be 10.052591011056505 11.42960343175656 13.587100686193239
Be 9.19858580036909 7.957460013147158 12.917424547170132
Be 13.48867605056665 12.709640054766306 13.272251112810707
Be 12.976873419608475 9.071405969818164 11.263538927310497
Be 12.06285575257366 11.28968587721617 13.824476762464924
Be 10.669598945647438 9.268243360213457 13.549814219920183
Be 8.68906613029149 9.74504224240893 13.615102039690347
Be 12.9651587110305 14.34691922732625 12.281531077681736
Be 11.45205331965536 13.31304983267407 13.628525385208551
