48
Energy = -139.64854011 eV
Be 8.12549171341826 9.824350228985775 9.08654984403572
Be 10.289898626132244 9.703736598768312 8.880862158845698
Be 9.391954527105725 10.179091711097167 10.804718686425405
Be 6.123192688390447 9.535602500510603 9.61157473714447
Be 5.543206477194725 6.4381713331916 8.70917111971783
Be 7.212249636999024 5.600122815286412 9.727108555532157
Be 6.552599061784486 8.374372518401817 7.862126337470886
Be 5.449083602850631 10.492841647166536 5.732703690310772
Be 4.574130938687726 5.401909075769343 6.819626175376371
Be 6.560746492814959 6.916484205989275 4.366665922246953
Be 4.7644855987647174 9.640279553638953 7.5874746667001025
Be 7.62719308598791 8.970079598225448 11.115401774001835
Be 10.739119419190244 8.927839239150233 6.992567384556461
Be 8.75265792980906 7.002609071714112 4.397992438189417
Be 9.5320530500938 8.4353441436023 12.067849874002448
Be 5.238182275729527 8.667023501864408 4.0775772522530405
Be 6.087224431452844 6.699971558208135 6.620783931076186
Be 7.575626718591733 10.182248346037682 5.710263633127116
Be 4.33572703157525 7.575836172814955 7.216827381982968
Be 10.48977537500361 6.917319048635099 11.001450287730712
Be 6.010801442979728 8.592231839127003 5.889707803005972
Be 9.080963939196378 8.072785560197815 7.947684623338803
Be 9.322032108417389 8.270031003879174 10.000303146901443
Be 7.52692956848797 7.688819538104398 9.456425127483518
Be 9.548723141334586 5.081716361122831 5.725080997368516
Be 6.757581129836267 10.526152136039235 7.545626314138115
Be 11.143975733283362 8.898167890104595 10.677608436683048
Be 7.879355101767807 7.915804341704971 6.224518248177543
Be 7.855617856246534 5.072478777128708 4.194163444602264
Be 7.615080472825852 3.8510341245532946 5.963589705050391
Be 10.230663588128468 5.947900827870274 7.610718381704608
Be 3.9408610139861864 8.975767609903302 5.710625744489704
Be 8.2526402122032 6.87116023681 11.216028648199723
Be 5.571880957685517 3.568342750305883 6.378223428552132
Be 9.372335885724755 9.073124953653576 5.338085186559565
Be 7.740128178072701 5.856659273333117 5.978126981103797
Be 7.451462066240533 8.769073870218728 4.259001472034231
Be 6.535839990494974 4.8057132151535145 7.646493699178919
Be 10.94330553589633 7.618037516408571 8.868652547734111
Be 5.970678431910231 7.478484209849521 10.638455610664877
Be 9.252652003637092 6.170413246252851 9.426454683809158
Be 5.861949076581376 5.081363397605978 5.104012756697952
Be 10.02684369970316 7.1951232052346015 6.008839021150833
Be 4.582197090536074 8.215631355823486 9.19930192046312
Be 8.653177073534309 4.599147822258167 7.725088414965143
Be 4.522647663893101 6.955969970484926 5.1892776519711585
Be 9.030958153439492 10.256743063579076 7.181511213539228
Be 7.73838470675958 6.491153538613561 7.891363444085292
