48
Energy = -141.68405675 eV
Be 7.453845571634527 7.329471002303936 3.8979138039770973
Be 11.048041316503834 9.936240475295133 5.797069328797775
Be 9.187952703538556 6.9571152625817225 5.049252783722544
Be 7.416154625739056 5.776947379383388 5.415088041349823
Be 8.832864256566323 9.05321645984829 4.610337175183079
Be 10.825582729767932 8.09554403412557 5.154357280885528
Be 5.6473956331848205 7.040768388476421 5.240324835945341
Be 5.670481277249716 5.002223250725621 6.299481219154308
Be 6.453497505962099 9.011432203586736 4.555341751573024
Be 9.387991879992649 5.202840492791561 6.046951193004308
Be 4.155660595076655 5.231772431510137 7.671779789018838
Be 7.521302928391094 7.883388108029016 5.850016440430788
Be 10.577640025670636 6.786264098899154 6.826774485310248
Be 9.262127291586088 10.8171074764657 5.96434275091845
Be 10.462387258549871 10.709492235194336 7.639538242026663
Be 7.634250574590358 4.694207409101126 7.291690778116309
Be 8.245165909594787 11.621155346830813 7.709020590585785
Be 9.301775299817415 8.650388779442252 6.641288941021191
Be 5.69756517671937 8.760825205993303 6.560358309136927
Be 11.251817003120856 8.691530743582488 7.528595106111992
Be 4.333980553908862 7.1763812625520265 7.107156941329198
Be 8.444069092703748 6.647101133167551 7.2003156908094805
Be 7.4718972973209965 9.960212365218618 6.266919362283391
Be 6.3438478329981995 6.726119571173769 7.2462556780955385
Be 5.974372074544048 4.731710480192016 8.51016814961659
Be 4.781299495840787 6.471867758223033 9.151466271385047
Be 9.561922359419933 6.038847290382799 10.087275416688433
Be 9.75010394201818 5.360166351885707 8.22339580605359
Be 7.4363179638094055 8.379892055053388 7.778430602005254
Be 11.089895058174495 6.985194623988464 8.884575311308977
Be 9.5522096859504 11.359992152395291 9.448232060550954
Be 8.691008938861803 9.817275011715797 8.32681306355024
Be 6.4825933006873395 10.252389430604557 8.144727063475079
Be 5.756176154879864 9.813544178871703 10.120130698365362
Be 5.531521583470926 8.318798741172618 8.665297889816728
Be 9.27545018889127 7.81495544600549 8.698608843834231
Be 10.523349724931407 9.449365115205328 9.476969868413775
Be 7.260526763447203 6.78224754722846 9.077664622235098
Be 7.97346234490614 4.829703495201403 9.425194064705858
Be 7.52159118504783 11.118884026598272 9.74243275155213
Be 7.604574384501722 8.801268000367191 9.803512800757522
Be 6.010595390403235 7.695883174150947 10.744760527014547
Be 9.027398309946884 10.069153738831096 10.98823979810281
Be 9.513045317689656 8.001630451224857 10.85290530578561
Be 7.058296227243686 10.281248567696776 11.59322418852144
Be 6.131568267197214 5.571714031369979 10.403929728740582
Be 7.856166433175568 6.588405175053015 11.07935823386303
Be 7.742979639943281 8.437837115475446 11.936235490038825
