42
Energy = -121.2868045 eV
Be 9.422264131240484 12.110702229586835 6.8825855991605644
Be 11.511809425759353 6.852745853332166 10.545092866003408
Be 9.385377399122445 8.412653460044657 10.236614197798433
Be 13.031305964305728 8.416744859562623 9.270644432299688
Be 10.35261612125359 9.45863888134692 8.705492936234467
Be 6.570863893935838 10.627292435001285 8.05204509865145
Be 6.845596675191607 9.849977104416995 6.10673585130725
Be 12.176104149986834 10.59950955538508 8.903421875427485
Be 9.150505951071652 12.096224188207033 10.640551273796396
Be 6.007572250049745 7.489200073937858 9.527961344921934
Be 11.811680874087191 10.118274508017096 12.308834002826508
Be 8.098001633494023 12.066139055885557 8.564221928081375
Be 10.861929366212038 10.680256802891428 7.025446149669252
Be 8.620171165052822 10.389478722948407 9.690350546765334
Be 8.579183462868144 8.279704388727527 12.237188028619864
Be 7.9775570544522685 8.24927557790452 6.59708148418557
Be 7.4898340230881555 11.69842681957122 6.525458528024011
Be 10.241072128087058 10.314369511651146 10.82133846426496
Be 8.702372969851137 10.062178191099537 7.632839236897046
Be 10.861143256920373 8.125100411463457 12.267959793645364
Be 6.759715924828643 10.93569361288034 10.171914434449821
Be 9.67535205260827 6.605187763938442 11.523351953466412
Be 11.305971528842628 7.389043527612386 8.489298800639963
Be 11.692888292168044 11.720141920947334 10.728393383765503
Be 9.60589945964875 6.2964040183257115 9.486641031334694
Be 12.872817969522586 8.346935246462479 11.57683420539388
Be 7.56827331116911 6.728245645330307 8.3303272168208
Be 7.8312956428932035 7.033202514755274 10.440836726142958
Be 7.660771954159553 8.778857300431405 8.903479813910796
Be 12.099077814945625 9.027913051627692 7.469973945960765
Be 7.004980855330354 8.940939415188003 10.973133206251566
Be 10.277256708063817 11.69322387755195 8.84499913422078
Be 8.284141508194878 10.444032583083498 11.815528366770234
Be 5.529978183635831 9.447530979444318 9.398633668924859
Be 11.463815001832435 8.907345472755596 10.333510139554448
Be 10.213326431668076 11.60990768336627 12.38569954481311
Be 9.300536702702704 7.741298423079514 8.083210479927645
Be 9.864999402838112 9.724852244386279 13.101036310826604
Be 10.197431385727606 8.772535872318771 6.572328230946959
Be 13.141263111254778 10.223033739742744 10.688847601827234
Be 6.075944715938515 8.379494021510192 7.5697729134054255
Be 8.96089454888273 10.329802976108107 5.625711142903559
