45
Energy = -130.51924483 eV
Be 14.595100088413473 16.78431486358374 13.19015520373646
Be 16.863555589278153 15.746790177153693 16.08762661974353
Be 12.371239169551691 12.16286818147642 16.836418420532503
Be 17.988603536336342 17.538580128036113 15.25725494489444
Be 15.35917028357321 14.023622528881624 15.937225137565601
Be 15.254307964048323 16.05743111542319 11.47017780841739
Be 16.492517102683884 12.725101431178254 17.631215115385153
Be 17.104590940191308 16.890418581492757 11.961745408528596
Be 13.541981645350527 15.11278565460107 12.44980819258213
Be 14.942786723673196 13.949951953738438 18.2419337873699
Be 16.363717417971085 18.89805799351838 14.707662016728586
Be 14.47218199117574 18.03653516111798 14.74095296872171
Be 16.749122180455025 14.770522865568923 11.08411796291082
Be 11.840182926767458 14.499982827049752 13.428971637414593
Be 13.241543829805147 15.149410935091232 18.442960252780814
Be 10.870137067781913 13.64725691257901 16.420907555150066
Be 15.775011392017575 18.398776662040063 12.76604744192191
Be 16.805747999521486 13.210383866124365 12.369871178085177
Be 14.918864415108269 13.737952063794221 11.612010528925556
Be 14.818373893835462 16.010466064150915 15.168631157648372
Be 16.192553259641887 12.136110971128797 15.59365402832382
Be 13.331546841344842 13.025350701946495 12.982912950742296
Be 17.67980821177977 13.75193250012473 16.359067032908335
Be 13.916740261078283 12.258686923409886 15.21146276558974
Be 12.835670258332305 16.385200969257724 14.154389763082465
Be 15.266189487019359 12.850969813868852 13.737239017537634
Be 18.72098794704724 16.85937648525939 13.390980220469807
Be 11.484259760952192 15.476247744413394 17.359537409201675
Be 17.048931412242425 13.794258816772944 14.431586480362148
Be 15.502465788708518 14.938367888260832 13.395963438270664
Be 11.65929870655163 15.16852876579791 15.33127470390289
Be 13.176481437861401 16.37506418403403 16.424296322732783
Be 16.79727363281023 14.820083911024623 17.911579399279333
Be 15.052575844475161 15.82303686959408 17.314389832341977
Be 14.567173701272512 12.153578566877341 17.130243918537968
Be 13.330997614476768 12.881482151626875 18.60126594658968
Be 15.899959678290832 17.547302567294825 16.20920490254454
Be 13.317195835063865 14.096390954413062 16.58267475185728
Be 17.774964563469354 15.039981701412385 12.854051765082618
Be 11.546914920415993 13.711363519386508 18.334688450393422
Be 13.731692266409226 14.318132254209269 14.545638610069622
Be 17.756021092338262 18.57705810825333 13.258349085224275
Be 18.376023485325277 15.402482363907042 14.821303184282861
Be 16.520514197498237 16.63307000793807 14.123289006699121
Be 12.022580969971399 13.031232588493692 14.876959760380444
