44
Energy = -128.16773112 eV
Be 11.333581732760212 9.367244840046286 5.771183520643725
Be 12.348904439394936 8.27003925826688 7.7219129527770765
Be 12.096488992742133 10.335722106327808 7.496200857800749
Be 11.099255102365252 7.301444289538183 6.484291586806696
Be 9.025723235036107 10.111522815085374 5.754515227922876
Be 9.264304069116069 8.036472318308858 5.8186693948082056
Be 10.561751565194024 11.247632900113553 6.471364682164258
Be 9.511966156779716 6.159611891653063 6.975394906246515
Be 7.318383747809306 8.947910146132664 6.304079254336177
Be 10.26894261671567 9.171314806839655 7.450153783634396
Be 7.539043729959378 6.854782064145446 6.383930627838351
Be 11.5654145353407 9.479359032077078 9.321393752353439
Be 11.730976805174004 6.132281190125269 8.16253304971709
Be 12.252116728734329 7.536618696794642 9.723465356821878
Be 10.42706634719053 7.5539468885395875 8.687387258512414
Be 10.278802533786642 11.095850002818413 8.605677075801205
Be 8.382745692586683 10.039368617079155 7.8168745401002155
Be 7.280318689196862 11.154751552128447 6.472700299069025
Be 9.806574975041908 5.428250601204869 8.820499751725212
Be 8.879688481583141 12.115970472978185 7.399474299755686
Be 10.689756663528629 6.270098628445204 10.463986162997958
Be 8.580795957301493 7.942707482584287 7.863383140289441
Be 7.758475185847837 5.958264921239985 8.372295616546518
Be 9.488484551557612 9.195405507742496 9.366994076403428
Be 6.262614822694896 9.960007998236176 7.97302794532107
Be 6.3707993639327025 7.791188903046513 7.870587884438674
Be 8.854673381396967 5.2243704918461535 10.631886809382632
Be 7.0614686339608586 12.080527534523602 8.424995027041058
Be 8.724639446292766 7.250061768914262 9.893284939821122
Be 8.939892033023494 12.60570052655089 9.651106714673086
Be 7.4637741964557955 8.876011790891223 9.422970158098874
Be 8.231077282537957 10.722707859229065 9.715701384136459
Be 10.62211252898686 8.323215915899736 10.912890920247976
Be 10.215372019699144 10.628046404418022 10.68787613732027
Be 6.498907850654838 6.962462288616279 9.74986554738742
Be 5.735603611991825 11.039764823622274 9.6841655729295
Be 7.247590781493111 6.0478222098524945 11.460642479967884
Be 5.543620005558539 8.92354992368519 9.928602585542166
Be 9.090713424075854 7.079734621526082 11.897996793265245
Be 7.0295640471298935 12.360459055870406 10.537650889485539
Be 8.713851137197743 9.287960266815642 11.394137797319985
Be 7.000878286804026 8.096164200858789 11.412327647151834
Be 8.530388943360785 11.553022241267934 11.591558814663676
Be 6.738617359799804 10.25830021126112 11.30801024943928
