49
Energy = -145.03291628 eV
Be 10.49308256420485 9.188986150804986 7.942099343227367
Be 10.706988541883542 11.378648695780907 8.64846102698183
Be 8.575539610380337 11.985963490441295 8.894425600597192
Be 12.86007498032817 11.748384273657935 8.871524926446734
Be 12.447472220855841 9.729987095798275 8.72105326713291
Be 9.843431195747037 13.469788191696347 9.448331262066025
Be 8.26559784005076 12.848634543364641 10.899988481722252
Be 14.010050507734675 10.297816209299638 10.048546457819425
Be 11.544759256146856 7.834003188132786 9.060768513810322
Be 11.666661712585533 13.344087140843754 8.31412791196298
Be 15.279777149835768 11.493515398867784 11.36267561230471
Be 11.702528433754798 14.701839129170732 9.965313133243619
Be 7.4731297426616585 10.82671610508857 10.317259047783685
Be 8.938401511189461 9.986582208284789 9.006337570382032
Be 9.434915091180518 7.928449425399863 9.434669715849834
Be 11.547724894591811 12.652694060926397 10.295013559075104
Be 13.522618454299614 13.75743450460694 9.384554820779897
Be 14.82041806518867 12.048069208556587 9.332339963360567
Be 10.741625516254867 9.547984160409749 9.99173990676392
Be 9.81521447122138 11.45281943762227 10.736405583148873
Be 8.011121378904694 11.09338099860437 12.306028254390018
Be 12.044868087957491 10.667001102370396 10.996638203326993
Be 10.835796094608947 7.586673418074755 11.02188617809101
Be 12.701822426349652 8.65822979075548 10.593433091801618
Be 7.515167110669781 8.695529999666332 9.817221993010163
Be 15.303367568414414 13.499203794261456 10.654546255520872
Be 8.50447872136435 7.533065263312988 11.374839833626606
Be 10.100233840939211 13.850424677139383 11.461177836661175
Be 13.329786536054804 12.331625080029385 11.263205954902666
Be 13.792024379644669 14.786612158307912 11.193226736071152
Be 7.064622215899316 9.282962552632506 11.723870482652757
Be 9.089235461939465 9.453557676501934 11.183361582582425
Be 13.780100737259625 9.906255518523553 12.041306152101635
Be 9.381850545516997 12.548279214612307 12.900850290027106
Be 10.309936716249126 10.455449903887763 12.522836974048495
Be 14.259139839699083 11.485895594218691 13.251635806782021
Be 12.054529259485136 14.083502060663449 11.880200415155771
Be 14.644120264404682 13.436413828641006 12.643767805382728
Be 11.440190479303897 12.172969385604649 12.32667097002805
Be 11.931242160367487 8.774193792270559 12.57706391400755
Be 10.02917174861777 8.088305974643124 12.849016489998105
Be 8.472163989309397 9.230244718727766 13.264662756613458
Be 12.36037760202872 10.555512569756724 13.57968210515592
Be 12.803296622739548 12.765931783284989 13.912753860802901
Be 10.97874845726405 13.776782997167206 13.604496333389058
Be 10.83649325240844 11.756183408624716 14.345258161317592
Be 10.506735228489648 9.531102848361103 14.31221318621868
Be 13.176231900923163 14.67486939129567 13.370704133947985
Be 8.928210259116879 10.972512525330178 14.226883183952808
