40
Energy = -115.80387669 eV
Be 10.728104971278896 10.455097622356334 8.569416561544838
Be 12.544604889895144 9.477085009184549 8.99323880957077
Be 11.02493665176319 12.528038974273365 8.448654962535134
Be 12.544231249201227 11.242134815239261 7.859234310223019
Be 8.983204815656315 11.775870209287419 8.659557439027626
Be 10.792451454001961 8.257687897073765 8.835025348336798
Be 13.246968916249646 12.917345138239815 8.900190107561823
Be 12.530371849501378 7.934069665863763 10.392134164472928
Be 8.940790878053782 9.567488011130628 8.935496128318963
Be 11.970137395934469 11.516463848010225 10.15325076990711
Be 14.043116959810565 10.838901503405966 9.088056395030666
Be 9.805926675126917 13.469821389660801 9.876896390971373
Be 11.684111194736348 14.165673188065288 9.510717634033316
Be 9.16170736555045 7.8212162883269745 10.012784425374392
Be 11.701242731686435 6.934697030579704 12.158479984260435
Be 7.881202710408871 12.776852604949038 10.251272663527814
Be 10.8468285153199 6.808721383789739 10.354961438556463
Be 10.93449663018385 14.7911575122946 11.453778772913596
Be 9.859876467246362 11.359761856588154 10.675944040576228
Be 9.097586588973057 13.485721214912147 11.835228047038854
Be 11.160099451215588 12.771524958900088 11.627590032747381
Be 10.92974965572859 9.443617439169213 10.586337876104988
Be 9.536979671278084 9.938627335701394 12.844551803207954
Be 13.3114022981399 10.105937924354699 11.054034384788025
Be 8.597710919739727 9.521249103913167 11.05787214197667
Be 9.718742442411193 11.997206314047224 13.18197372645162
Be 13.021453720510973 13.841520020362832 10.941029025711101
Be 9.95348589494941 8.032920563535326 11.97323693007287
Be 14.140475587519038 12.143931205229977 10.619437834511281
Be 8.076260554338935 11.511712539107371 11.905240929748635
Be 11.443837145623837 10.80717692813181 12.155254378760148
Be 10.471479427672834 13.917655714857098 13.399974126525835
Be 7.565930051634509 10.837172092997926 9.872583879620585
Be 11.710465463075316 12.292228339454978 13.938246506173533
Be 12.402911562823846 14.027858625054991 12.9329417055083
Be 12.535764397183305 10.280413188214041 13.827563889680476
Be 13.096199823281449 12.063758646715586 12.360714426023936
Be 10.966313209407563 8.688263763107392 13.805100350616312
Be 10.639370728277187 10.61724859128494 14.474687784498254
Be 12.201528400318981 8.838230858337452 12.279369189200116
