44
Energy = -126.88283742 eV
Be 8.096429761907618 8.376790367135998 4.141503941936793
Be 5.933832198032251 7.856273460873039 4.548348517060547
Be 6.4661675227567725 9.910268659533608 4.897186046137068
Be 9.58406099597513 6.7355759829362905 4.454800392317825
Be 10.202818686202301 8.735066759195101 4.5352737880434075
Be 7.5624860242661605 6.523204461730996 5.100425551176825
Be 8.647427664332486 9.951555541522888 5.495558699281441
Be 7.200476471406111 8.487503112060173 6.014106312850143
Be 5.112425860671095 8.883958761265685 6.315322762987061
Be 10.622432576354367 9.37074075436592 6.51283489874842
Be 5.784263757588838 6.697710428594273 6.341572975417908
Be 9.108095213786585 7.908944623736458 6.015135832536368
Be 9.406793454238521 5.7852185380569345 6.447035932272793
Be 7.249078481978476 5.077880516356986 6.7122328715314765
Be 9.46093833530655 10.968947563852295 7.160301862326475
Be 6.629041647137005 10.2609551667275 7.133938685811917
Be 11.005162547901076 7.189117806826161 6.166220789594043
Be 7.808939056031708 6.917650612490046 7.141724204827618
Be 4.578347455698276 7.406018376288819 7.955990601667971
Be 8.365564595143319 9.196974575339855 7.6774757002284835
Be 11.686342571047602 8.185166113635976 7.8782748078841855
Be 6.376803329791281 8.215745997876079 7.827730825289836
Be 9.667592608862778 7.619259179432971 8.097536398844609
Be 10.780466418749045 6.022535744061558 8.144420034357314
Be 10.57687306832688 9.839397197335247 8.554146095546223
Be 6.282584171427417 6.088243408788094 8.385832207255959
Be 5.022431359128826 9.431240235664024 8.633724783439717
Be 7.749377406204555 7.4078290569271745 9.004996888653208
Be 8.549103627555148 5.488642711140561 8.507238352339021
Be 8.75673394789626 10.849120445801889 9.203589006283835
Be 5.721697495589259 7.701528830016548 9.82787076797675
Be 10.913089482058815 8.186674516422013 9.903689307397997
Be 7.222910091733105 5.991319679570915 10.413870708266401
Be 6.985952678741198 9.63243997163907 9.386542451393181
Be 9.010437215483568 8.869108025223703 9.640627144848324
Be 9.336305575291851 6.732277671449144 10.188215108482595
Be 7.613192522410651 8.062866832849668 10.813404034809759
Be 10.16799758748815 10.122630801099314 10.699665498055495
Be 6.0362339068748785 9.241586768171201 11.295755341346421
Be 6.183968146255295 7.179014420234944 11.946723907170547
Be 8.12373412165218 10.08641877227689 11.2139959508993
Be 9.497685535618613 8.371933670558436 11.691121535355437
Be 8.222532812928801 6.6662772191511515 12.164332111471888
Be 7.598090751825349 8.675305401439747 12.716625105533154
