43
Energy = -122.99686187 eV
Be 13.791272612135671 11.168040814467124 7.655243190881804
Be 12.368743450708697 9.994668312165219 8.572466708641555
Be 12.16621226271764 7.9392397090911215 9.092301581433253
Be 11.302166558292221 8.622576037944757 7.253462830893217
Be 13.215407598819116 11.673598505368801 9.711421567642669
Be 12.262994188617919 10.343327263657224 6.474388914044299
Be 12.663689545482935 9.577894962587912 10.505972444958505
Be 11.133271114821396 6.374921047041612 9.964379092534687
Be 11.680393926494189 7.871052839497395 11.283534962054476
Be 10.271252452208378 9.882558637375475 5.907498586027517
Be 10.142266033229165 7.258998540111611 8.402536816898976
Be 12.758122977825153 11.185845342849646 11.741743305159366
Be 8.720028138462986 10.904912749939275 7.004567673564162
Be 12.012348134530537 12.055371804704317 7.789778782661377
Be 9.204011052235005 8.972298081340403 7.591905426851487
Be 11.076768845705654 11.255214332590713 10.044076704866654
Be 11.164814626944725 9.856904076317525 11.978332387004393
Be 10.065404557271583 6.551353671273392 11.66916911864901
Be 10.498769169183 9.1970632856083 9.740045729187077
Be 8.945187705014261 6.387281247945643 9.912041192443159
Be 11.834562903184285 13.374627512095906 9.314666283699502
Be 12.298231098837315 13.030120381357635 11.238774890390182
Be 10.561350819471327 10.63280363396363 7.8308807213690175
Be 7.337661099447006 9.557397046844939 8.096208732948806
Be 9.598268735362726 8.555460293680598 11.861599018727297
Be 10.881765934777397 11.942201888386903 12.373972673126435
Be 9.209291518147426 10.438608960050148 11.01185287836825
Be 7.87159936914469 7.476300808646172 8.333628333903553
Be 8.004622462619235 7.162858549562082 11.701983472959938
Be 9.961541119695502 12.558979118366318 8.615155298717648
Be 9.241513518562959 10.646121215778523 12.999669610169976
Be 6.880342906687598 6.743440148505293 9.982015150112362
Be 8.94271099072483 10.723389377706804 9.009637873330401
Be 8.297927780878647 8.786492742129058 9.993940163786752
Be 10.283978358699526 13.343433383399457 10.712997798799549
Be 7.618937819175742 9.230859554156934 12.151794411538607
Be 8.971634594973773 12.554033785528842 12.236856259027192
Be 8.444315072744706 12.396301430535235 10.267042165777086
Be 6.103731689720061 7.931253246534492 11.448534852498009
Be 7.044636231422847 10.701616911774344 9.82597729169266
Be 7.356024440978528 11.32373266076965 11.819060580063947
Be 5.829456195289332 9.923431204886816 11.205456350692835
Be 6.108899619010312 8.688953844901995 9.491881656538261
