46
Energy = -134.57709411 eV
Be 8.635212336047426 6.406123951755566 12.357877348292233
Be 10.957410868785816 6.528359677865926 12.147394908045
Be 9.43072053356605 7.958314241583695 13.308633913946403
Be 9.5503679322021 5.67999046852922 10.572477353746049
Be 7.498077154339415 6.855798702231197 10.670160940961985
Be 7.623373257129906 8.316268298820445 12.170354291172506
Be 11.127466760723912 8.68047870376342 12.507224184765077
Be 9.74172286739341 7.725302152813373 11.102027688273486
Be 11.582833520495774 5.990734180877947 10.041204710377217
Be 12.073543034782626 7.896336650793889 10.864516438292744
Be 9.226921653711907 9.693835160359114 12.116125568338227
Be 10.105918064795652 5.540803037186369 8.540300769426475
Be 8.709084525492896 6.918885218727112 9.037566272841268
Be 6.798575203801645 7.694077753334592 8.76844439117649
Be 6.259569132736419 8.792597530260704 10.452407149183223
Be 8.462541386802577 8.844668579203455 10.066801922078096
Be 10.647853774568862 7.722986736828762 9.189903639106456
Be 7.319323577036513 10.327351985501714 11.346955330104215
Be 10.781005834812133 9.610773131400101 10.68078572318354
Be 12.794368431601916 7.565395641571182 8.952521984693417
Be 11.726521450045315 6.413010022444009 7.752617716076763
Be 7.80168703440528 6.754844457623568 7.171955763196537
Be 5.518420374127048 9.243424266105018 8.511644941985057
Be 5.817762205397533 10.958399420494166 9.87689933800038
Be 9.140076150166799 10.98243498637464 10.323629706430678
Be 9.893116550332046 7.221412836826055 7.109552913324834
Be 11.700194993565324 8.534538919133945 7.376799307661202
Be 7.41528887726153 10.18356671058279 8.965854149687075
Be 6.552978692146897 8.578584217140943 6.779818369108776
Be 10.106309335826507 9.61906795565784 8.706860532665113
Be 12.185660354895834 9.56839643425119 9.17608456766815
Be 8.440040100965026 8.072487445583088 5.784911551062312
Be 8.445520355083922 8.752639494850689 7.801076545580826
Be 7.4754203284473215 12.173636780590154 10.337094364936483
Be 8.9380375737463 11.029570537303202 7.847956477736641
Be 10.967472078824493 11.419579937557366 9.353244871024632
Be 6.326790926442976 10.67188798646562 7.190068489457232
Be 7.161845138026878 12.362767275479646 8.319894308219
Be 9.186108529393653 12.75234877244085 9.187460895282513
Be 9.967949461243778 9.455174246343757 6.438245077090424
Be 11.371143570599605 10.73536314866444 7.333480439852226
Be 7.985343388339 10.083651854917381 6.005175676872373
Be 7.58129556562983 12.068233016220425 6.246744454806797
Be 8.782306877387228 13.29160271497039 7.215445553427497
Be 9.714068536728297 11.636951773070932 5.994832778483509
Be 10.62767676502171 12.603960376832223 7.679726825719008
