40
Energy = -116.02377388 eV
Be 9.302770171545111 7.67460187754206 4.598105938402421
Be 7.763021175441281 6.43084312137955 5.1878528550156044
Be 6.01262013492936 7.556090615424017 5.167463882774781
Be 11.026306948898338 7.840934407804195 5.714126657280351
Be 9.824337544436053 5.928504526824611 5.745498790488324
Be 7.812933229785587 10.70108494634053 6.3738595337919355
Be 6.09914677169256 10.999922092247719 7.6471174656353265
Be 7.747047413919222 8.705269194789638 5.4543318156347285
Be 9.644332984471962 9.420553607115984 5.962206347894854
Be 5.864429752536314 5.770024159038896 6.342038891419311
Be 4.413354347909402 5.818191045742745 7.975495198060332
Be 11.391047825044536 9.235143138617097 7.27996233941675
Be 7.946814214505081 5.425971740486915 6.98365299318374
Be 6.077084398993172 9.243854345196691 6.58786820416309
Be 11.220906755839776 7.019548511108998 7.558301957212962
Be 6.478398860089871 5.734986991864281 8.485070510875174
Be 9.721523113581036 5.680060495247584 7.894467646342215
Be 9.045282808868967 7.477425186487825 6.765556671294425
Be 9.674108932613919 10.602068907738325 7.644797686510924
Be 7.880360349637277 9.109583965594236 7.780417558762015
Be 7.9172107275869195 11.470205025842613 8.351037437359471
Be 6.2778252295861074 7.9002154384797505 8.76279972726837
Be 4.859035667583846 9.360214816482912 8.361593945164556
Be 4.936977647402988 6.140143938822195 10.000971600619069
Be 3.9777425774629447 7.539566910328807 8.995811034992238
Be 8.421027337927079 5.272606037459131 9.573807328412137
Be 8.776432955745245 10.094755964221823 9.610993488817506
Be 11.702763667008602 8.242715808523519 9.212774864297732
Be 7.0007676968302865 7.377485498852165 6.963017261325786
Be 9.766141074358025 8.475074717332797 8.404368008881411
Be 4.768140776080631 7.608826710188923 6.981351520137331
Be 10.853982308742186 10.087067462663558 9.259807093496974
Be 10.368150097013176 6.602406526632027 9.579246673968312
Be 8.208249785805998 7.091453177456241 8.69707714645029
Be 6.603088592946015 10.046182129746896 9.435683669937648
Be 6.896014956332458 6.54609887559727 10.443439149712368
Be 5.43583923271197 8.181140910550763 10.524051068558414
Be 7.706790217156408 8.481911896290683 10.439703477230173
Be 9.93659622759096 8.543552022328218 10.525549489316509
Be 8.8688950086974 6.791212774915273 10.956222589202486
