49
Energy = -145.40193561 eV
Be 8.131761058761594 6.084184507032742 10.208379234525914
Be 7.634355438076149 5.507444129139099 8.232405747554182
Be 8.355163578334745 7.516996532484523 8.62409933586271
Be 7.807352690045503 11.08482272507201 12.267924133760475
Be 8.231322811571623 11.241568809548513 9.010211049453718
Be 11.415827814415907 6.5470148176481455 7.638272615449538
Be 12.80340039352313 9.553739573073011 10.236893376731157
Be 8.243174250461808 8.490238223494119 6.699702835464972
Be 6.580102351670831 10.942669311849572 10.553242130185817
Be 8.969764198568699 9.285899123810445 12.460628266779185
Be 10.324987192813856 7.734072399815968 12.178819499790162
Be 10.272903940551114 11.1279375844439 9.479223405991286
Be 11.762034418092453 5.98819788414941 9.58599330251479
Be 9.76135073621881 5.610706276122169 8.818792542512949
Be 11.831887016184425 11.276879677645345 11.078396200380707
Be 6.180634886882598 10.902471264580901 8.501194703272297
Be 9.270142266474068 9.386602473567997 8.728132607720347
Be 7.014626808281589 9.187828749086686 11.668336116189078
Be 8.51482626492425 12.448033071005797 10.820001515245341
Be 10.62849610536784 12.933083257988233 10.50522490328259
Be 7.8307978770375595 10.446831761033904 7.112602049403866
Be 10.441915573237363 7.676686057036091 9.355064560788428
Be 6.851912780079665 12.75372758471438 9.525145066841576
Be 8.818153289212809 8.179889339410058 10.538006703508291
Be 8.727285703013768 10.232493444306368 10.662449503680177
Be 12.504381507317829 11.522748176312561 9.20834356250114
Be 7.382664384236844 9.294173181370839 9.326125738457073
Be 6.659180212543749 7.4538432248661515 10.684870060635763
Be 10.089629402230354 8.032617906265184 7.345085210706017
Be 11.069959981229113 12.879680325615317 8.43688061156419
Be 10.100290155758527 6.1741730096321055 10.889626927630035
Be 6.297125433695919 8.869309106128616 7.554643542541722
Be 11.962672435089905 7.6251471014073084 10.838931062262624
Be 9.05242398394895 6.324229720468742 6.923150671002254
Be 6.985525804370176 6.910353658919586 6.879600260609112
Be 5.502151519486608 9.017091936860565 9.769740420556369
Be 9.941984174123508 11.339485025039874 11.905049706703991
Be 13.271616187419399 9.840766578937103 8.215009878033003
Be 11.276917072376932 9.481883445383588 8.72703662534943
Be 9.0390509224703 13.260545154050563 8.953884092422717
Be 6.195133268261653 7.100671807585226 8.765341832586527
Be 10.70933572586491 9.437994841756254 10.964480537666121
Be 12.728071749442627 7.802644485242246 8.84546941734485
Be 11.637435511172779 11.102420141078142 7.351324923894706
Be 11.985390226179184 8.648509180245775 6.979341527013211
Be 7.45476517173524 12.506915867265054 7.621372223495159
Be 8.242389405418661 7.218819648883942 12.17951062222736
Be 9.555740576902991 11.916457388773079 7.307996184202298
Be 9.992324958626357 9.96807059614365 6.717031511150935
