46
Energy = -135.28262792 eV
Be 12.007275326970948 12.582505607006853 14.564197356588645
Be 11.738585725653701 7.473318648645974 10.309031444291984
Be 10.818515818337135 15.095786022698231 10.341702382601278
Be 12.5793883627893 10.559510083309199 14.560614301706144
Be 10.434002409500719 12.535942560109953 8.006374043193377
Be 14.309566040732987 13.122857818162787 11.733965812168726
Be 13.120546629321732 8.246238058600401 11.719683986223352
Be 13.69168706188226 10.832841521814576 9.104426023872664
Be 10.608002403588875 13.64629825496356 13.466776768863559
Be 15.086755406427585 11.74445831759733 10.31462550796177
Be 11.27624322176043 11.28627396914767 9.670110576763323
Be 9.868124650635082 8.851910342894941 12.90787821691122
Be 9.731182648923236 8.093177293034346 10.814494855343241
Be 12.912769059240372 9.00712774780179 9.630971047046625
Be 13.692720060972444 9.862790214950554 12.909697733007391
Be 8.879107007354452 12.683974742936327 12.931419201644434
Be 8.096160413717397 12.83332560594718 10.841397182278165
Be 12.111708442365801 10.051466475744865 7.99308833805885
Be 8.921726197843904 10.590478244157586 13.452995497092969
Be 8.252801038865377 9.434086907862088 11.73336023707032
Be 13.547225777553257 12.918919306613319 9.636945291930175
Be 11.385531578085903 15.114983193457721 12.251030741535072
Be 12.699869825554906 13.696126608630678 12.922692306271465
Be 9.443603242903242 14.3122634596394 11.753253685397224
Be 10.821207119144374 8.862394122884274 9.097420713473152
Be 11.197731815102037 12.919752099971616 11.289851226264208
Be 7.466544676140879 10.824342626811303 10.32741498206019
Be 10.567105521375515 9.950429443296185 14.557965781757222
Be 11.179937340869099 7.439395016764396 12.219761435355514
Be 12.827392017286845 14.470411342009168 10.833786507669378
Be 9.99671707959777 11.97565866449538 14.572865556614783
Be 9.640761352983075 13.568897315801696 9.655801555885937
Be 11.72862963161295 13.714245357095916 9.11558142199508
Be 7.446054804793605 11.380659808640495 12.24998547240416
Be 9.640091222881008 11.197285724826457 11.286080308938864
Be 11.961685674210454 8.898175540798421 13.443500362546086
Be 12.492948674616246 12.119345835219914 7.996554944012487
Be 9.009033930282632 9.65557036985442 9.636731132782403
Be 15.117062705657824 11.173662634747773 12.23131021644844
Be 13.647910450366876 11.952625094231312 13.445910552040985
Be 11.285098131437755 11.272086329195995 12.88969715749094
Be 8.859633373065282 11.745996201404186 9.118229760109733
Be 11.358685386609396 9.63857922039098 11.272618586328324
Be 10.052682842412684 10.467741518984683 7.992748880957171
Be 14.46358147611765 9.730465732261392 10.814676945875362
Be 12.918946251428444 11.358964324549035 11.274622798896525
