40
Energy = -114.33888281 eV
Be 12.51200830792875 9.87502273409118 9.361115871487703
Be 8.606532215627452 9.471898819082979 6.155026089824246
Be 11.877013009463395 9.065769069072665 7.155095476091445
Be 7.018058666048889 10.265756212987887 10.073086779273059
Be 7.539750176338362 8.57660546983769 12.136099402976289
Be 10.066487916350718 6.538661477130537 9.104919845608894
Be 8.488849314641365 13.11657737591913 8.625380105179527
Be 10.41095140142658 10.085874580802697 12.781187397002867
Be 10.52134011017301 9.508507254679989 10.32504821551508
Be 10.330794593789905 12.433909321534314 8.035641639782796
Be 11.451375687888326 11.651423560344284 9.860076569726022
Be 9.023420142496297 6.2012580787053375 7.420212390608848
Be 7.580766031691389 7.761102019064694 7.32866409830742
Be 7.173550267170544 11.669071839669188 8.578590900488672
Be 5.808732907196122 8.925720539408045 11.20223800501626
Be 12.675286602541473 8.443337971783302 10.78069623894838
Be 9.926181604386244 13.035481358249422 9.983357121450062
Be 6.821979318114378 7.160169430149404 10.80547568238289
Be 7.643562337053673 9.715138560353955 8.08063323516019
Be 10.853818944550138 7.151318759108007 7.106948704423507
Be 10.602461867360418 8.706262015494625 5.661451675425833
Be 9.026354939467774 7.4739781797423595 5.90510697237139
Be 6.727417627504897 10.6127723129959 12.017265720718099
Be 11.727627140038999 7.956367618059827 8.897435296310354
Be 7.872490698802527 6.594199304887528 9.105540610007758
Be 8.790740736894186 11.342443462205368 7.246989584323168
Be 9.663468221628277 8.75699370382571 8.118714227566425
Be 6.485776574164772 8.333833053317987 9.155121478442974
Be 8.880580323072643 6.728428145485247 10.93816623854536
Be 8.73214866112205 10.29708178789897 11.499770467277118
Be 12.138348056844432 10.426728606401591 11.538120164645882
Be 9.132487877175052 10.775636062134886 9.368883850578742
Be 10.475652661158978 10.636279837055719 6.277594461127026
Be 10.952756369183502 7.308869132184475 10.867225925395418
Be 8.010651285847766 12.135119647089592 10.635254809974082
Be 10.940773993053254 10.521967750265226 8.239136268753104
Be 8.533467220515053 8.679777638458148 10.07565640676159
Be 11.63949393204453 8.521885496732104 12.490281514827615
Be 10.212450486369004 11.697859396357098 11.483531709892407
Be 9.625296540692752 8.341817185250155 12.080163615619037
