40
Energy = -114.99599446 eV
Be 7.5983797692574715 7.4676178458537406 10.973459252776525
Be 8.764189569366327 9.121864126533104 11.893724341720711
Be 9.748753326758916 7.232684698508606 11.591744689304019
Be 6.869736058473251 6.003222192895245 9.645492288704455
Be 7.270083651200901 9.461007702599732 10.205299473811298
Be 10.57411049997824 8.761056830477358 12.866001934412955
Be 8.949157825223704 6.302252777990927 9.756300276538232
Be 7.660911203294085 6.0102658939958165 7.676346400080944
Be 5.816089029383106 7.962691214306464 9.676928893007359
Be 9.125603311327838 8.487199699819849 9.868249748098783
Be 5.572382995665153 6.560310182752238 8.139553364509945
Be 9.056239221655446 10.59727510832186 10.325649696021733
Be 10.938457505757155 7.229151349712325 9.832205616737538
Be 5.473274300472577 10.114657520135381 9.331636731251685
Be 10.26658444120795 10.694203852768227 12.180039374171827
Be 11.921750745006452 7.830227949317925 11.627863994578266
Be 12.325796057937435 10.075674740089546 11.546443109273513
Be 7.728026973500485 7.70674987078517 8.660461401963852
Be 10.674087815124004 9.253078614336992 10.81389670406935
Be 8.427530199980465 8.03583231296166 6.571195457632668
Be 6.784217241393945 9.310159070168563 8.09682710042442
Be 9.729703935454888 7.36442163553859 8.053384335031492
Be 7.39083881133467 11.262103030840967 9.014031113678257
Be 4.9752420470395124 8.597935750497838 7.750477212581369
Be 6.469509768816573 7.577060478430968 6.693737266103489
Be 12.545413196565319 8.767692676702659 9.775813752346272
Be 6.0177858360815595 11.063377572290682 7.469078917506763
Be 8.774872857805965 9.648053296537103 8.102180752877887
Be 11.057892668981538 11.454986499765585 10.362405880663674
Be 11.789326131168762 7.912053071929277 8.053130469932364
Be 10.680392482222326 9.76205392785205 8.86739393718983
Be 9.488524339507606 11.729802675448754 8.618563081559799
Be 12.821324195191336 10.751159224810898 9.5388053838277
Be 6.9668153646113815 9.63078526072139 6.122183917044732
Be 8.064973945059586 11.397562828651683 6.96255341031098
Be 10.480332394309348 8.856626900724489 6.720801232538548
Be 8.959977938168555 9.9121605774501 5.721430677352383
Be 12.275093505245671 9.927526256190012 7.5601665744032225
Be 11.564229477576948 11.763895227904861 8.32898738888131
Be 10.354114672168969 10.918606425471776 6.873898201777819
