40
Energy = -114.99284072 eV
Be 10.360276885690634 5.36790262475107 6.498434314558521
Be 5.135681007311109 8.817952833094738 9.809953706489507
Be 5.006153722284517 7.967137882194254 4.523772456447491
Be 6.9532289544550565 6.03999104397228 6.333665773120978
Be 7.013664254975549 9.694153924301903 6.702395593674521
Be 7.141323706697605 9.60312757136519 9.200162572034388
Be 8.565288022753352 10.309344743433089 7.910623817856136
Be 9.14206554763482 8.792346284460905 9.499547445484886
Be 9.067173025875702 7.760072585937022 4.207619596602103
Be 8.028444028119399 8.103174092195298 7.8904336362574
Be 8.806820846132444 6.325228390065999 7.2144615281733975
Be 10.370256075309348 7.065752066454003 8.25304919906544
Be 7.26429144798071 5.423948660151882 10.178920683043575
Be 8.992464009609984 9.470682941337927 5.9524144330793565
Be 3.9299811931618382 9.19197776899294 7.931732864008831
Be 8.272182701951058 4.371503424321648 6.664901034663861
Be 7.352761866270242 3.961225294181634 8.545174050972088
Be 8.709985173237374 5.821426640194995 5.126074237884728
Be 6.872459352821805 4.690161063505613 4.925682163366556
Be 5.6049373946675045 10.33289810462599 8.067682132076612
Be 6.054056642027742 4.326091821249294 6.961022611321957
Be 5.444348615147591 6.6339344754349945 9.799856150701439
Be 5.89433179622853 8.09897572884347 8.15988484325823
Be 7.0556789862375 6.238753396263614 8.351534150309568
Be 4.99562333322037 6.097183017787997 7.478905140276767
Be 8.019239435304339 7.726898458099236 5.838725710820467
Be 10.152345432142212 9.06808308924221 7.645897502600581
Be 3.844436293362453 7.317566191848054 8.697344033659995
Be 10.127859181705638 7.5901623448296425 6.126609999313941
Be 4.972333337798413 9.55074787854057 6.1618616712037095
Be 6.86305101133053 6.84537671103677 4.318065579414432
Be 3.9723246552577645 7.668560483155987 6.5051874017094855
Be 7.150827672005611 7.7406213969992645 9.98479551232562
Be 5.492517185954971 4.756125109827543 8.994701855098459
Be 6.941761033213789 8.96959242310642 4.688871206976618
Be 8.841233047589238 6.705727504053888 9.537127294255914
Be 6.014140692175695 7.808081675614103 6.184075141192778
Be 5.139421847525356 5.987239205087724 5.348626151378459
Be 10.646722042518165 6.229809940199083 4.573372917968516
Be 9.192378699046227 4.93453136597377 8.610904044085412
