45
Energy = -130.94590777 eV
Be 6.723416879410224 7.811809951986187 5.918768908188913
Be 7.5792805304917295 7.961264671277794 9.253306979750404
Be 9.166993147959587 4.465389854193129 7.821771964457127
Be 7.959328230293631 9.065347702717895 10.951148868839477
Be 9.092218225094614 6.6824433129987755 8.629861540501725
Be 7.2011388786114745 11.516609342316594 7.514971989317479
Be 7.399231875365601 5.8613615912923684 4.94015869886454
Be 6.822985940737128 6.763998022943428 7.775416447839538
Be 9.711639771297184 8.55481366333789 9.840204392554234
Be 10.406995853249459 7.443101579585442 6.978966883741946
Be 10.080685963285507 9.086120782490534 5.877701497057943
Be 4.883477622629165 9.333819408951705 6.171081712592576
Be 8.517195690704114 6.283033832016432 6.6958358670203015
Be 6.509811234209682 9.066716725571046 7.7398432852115535
Be 5.959283375542714 8.933089555441857 4.252843638151788
Be 5.247321108319299 11.071448335094908 7.148547341323182
Be 5.776820138534171 6.7737492864979 3.965431495339638
Be 10.497734927262295 5.513197281640514 6.484765153332372
Be 9.339472529833115 5.019283870645685 9.912410595059148
Be 6.088234288340603 9.255287966617283 9.97721385639384
Be 5.282281285443021 7.556494433876805 9.200680136184614
Be 8.178530047816201 9.995877497227186 8.878345315059123
Be 10.602519666111977 6.634574289427214 10.322294081040921
Be 7.370864210636845 4.685551342477852 8.886868855641715
Be 8.826027210287181 4.49381582322682 5.72403930545568
Be 7.579555423757409 5.432297247926926 10.928241230849158
Be 6.56875513046281 7.420272660984697 11.05810411582119
Be 8.655358765351428 10.328621381942812 6.717610777981087
Be 8.24201133327902 9.199600727513351 4.922039357703858
Be 10.139621702484662 9.3642543465608 7.959672029564942
Be 6.7253278248482395 10.284304988116286 5.810453445947261
Be 5.971021146434374 5.846495910223301 9.86837230691896
Be 5.972813347578321 11.029362782919037 9.012846573634382
Be 5.470124764641355 5.9163273756826875 5.895685250717685
Be 4.75441331055428 7.493183752557648 7.210697201856812
Be 7.0536541270212 4.699081813751655 6.80289444896606
Be 7.60544755338828 7.606000146023415 3.7745797704072093
Be 11.322764473368292 7.729444504442728 8.767269179627892
Be 5.316512484158163 5.442979802933545 7.960957312536447
Be 8.724846002284156 7.065807211640178 10.996603431799556
Be 8.381660865526666 8.27165795694245 7.24948493448816
Be 4.556918401453003 9.424344313925568 8.349240115880006
Be 9.289497234918715 7.265436414880688 5.09610946640265
Be 4.440861971723127 7.613017969056258 5.130781784386019
Be 10.914730083424026 5.648693146248282 8.535263033715694
