43
Energy = -123.68870702 eV
Be 10.602433048560393 16.21560209029149 16.061117540098053
Be 16.121897889893166 17.707891226240925 15.221659604539092
Be 13.566305508014768 14.636234450903022 11.958638622483628
Be 10.98113359760716 15.087797506796539 17.732062960477982
Be 18.654476232728094 14.3835925456977 12.34044266461243
Be 11.174421715663497 13.215442343359703 16.611404819907676
Be 19.17514693454658 14.8189141207489 14.294222442889192
Be 12.785853716676904 14.267597195823756 17.685183273411344
Be 12.49481848376324 16.38172473777179 17.11936532727426
Be 18.091501935467413 14.861760607581973 16.129264671846595
Be 16.772616544560982 15.40054929942974 12.144350652098149
Be 16.52622337988935 17.20466035475499 13.251924854292936
Be 14.833741001128292 16.293436229423584 12.393584214817086
Be 11.059461325548444 15.93472676820783 14.042286206673133
Be 18.45880165804389 16.317355308310685 12.969439537896134
Be 16.872400438424112 13.66194854717182 17.16384256277337
Be 11.754592186473499 14.322600758339133 13.090555544794968
Be 14.925391716962187 13.823721649621884 17.499361840857414
Be 15.079616778063306 12.166610313888963 12.490250410966237
Be 12.614844985597218 16.890774311191258 15.076577930898452
Be 13.615118156793114 14.48890620540128 14.2660495008808
Be 13.173766678606093 12.825739139402225 12.848235896762612
Be 14.274174783216345 12.126257582084007 14.456824990877646
Be 15.436790957554003 15.804324576620123 14.449379447809857
Be 13.523062843954445 13.096354182030968 16.152808286298548
Be 12.864821216781705 16.34127827295356 13.016171705944476
Be 14.36589708858711 17.316539647538765 16.124597119585943
Be 16.987892869399566 13.204040450708394 12.235744540335377
Be 18.489222686108764 12.77232776294555 13.599916023748719
Be 10.351467520100268 14.05834042393782 14.72301430125253
Be 17.715377990092094 16.417897636178886 14.900980110319788
Be 15.509833570101035 13.922695640500407 15.306062247741353
Be 16.192783719712164 15.772085524960595 16.478513409735715
Be 12.121381588907937 14.783960524815406 15.633192424489513
Be 12.112027030923212 12.82676265548046 14.62948142223414
Be 15.670087286109267 12.136677013638968 16.228625334422574
Be 17.093795867154782 14.477795731308122 14.105019839837379
Be 9.506030864401227 14.47392109607498 16.542702218397274
Be 16.444733883803988 12.18566025411863 14.082710789877048
Be 17.71831543076656 12.84945024850458 15.529431627218477
Be 15.278331416177009 14.127626933793456 13.04127412322009
Be 14.080389445505224 15.273864662413022 16.255308935551593
Be 14.382779724722097 17.664469771902525 13.984437698580242
