47
Energy = -137.63358522 eV
Be 10.8542102271003 10.642134330086996 6.418702186843716
Be 7.80773846294943 11.754001316895422 8.54471492626415
Be 11.873753468123427 8.6758982978939 9.180829482548535
Be 9.546552135592238 11.95332421000811 7.2788661174749665
Be 10.87327903995625 8.88890314981793 7.30901122896024
Be 8.991711784990521 10.021281607759384 7.679445917150997
Be 11.586089611111694 12.309733596584296 7.480094922539299
Be 12.652544018984317 10.162689692282665 7.552401845157163
Be 11.002935457758356 10.585006339051962 8.723792633277757
Be 9.447311070935145 11.489728402848021 9.517198049199214
Be 10.318959770623692 14.279843723422095 10.38276097191929
Be 9.48300652675058 13.461127367633253 8.583863925106296
Be 13.07252416663413 11.705040818700796 8.900625547627776
Be 8.536427863982565 13.299790034307906 10.486006766304278
Be 9.732069224690031 8.598988236404525 9.007442708652349
Be 7.965951931285614 9.71609635251624 9.530163090046102
Be 13.537593344336528 9.865073754201482 9.700354781035566
Be 10.714715556193948 7.853195406915755 10.775293088452512
Be 10.15622308622327 11.948291793980903 11.464279484131351
Be 11.890803387509889 10.996262858759847 10.651409175781884
Be 7.724669684362206 9.48390382674662 11.72695978594244
Be 11.232187279050406 12.683810684267119 9.48672633507842
Be 13.014171686171988 13.41038038603517 10.171886901550446
Be 12.736370768537753 8.292701834756764 11.05022187858206
Be 11.969162455318713 11.685934347022402 12.713290471496663
Be 13.605140777146106 13.25508912044164 12.33290308521956
Be 7.905131386571379 11.325146441840705 10.855855452262348
Be 11.64219221847139 13.451082625204807 11.639062722391508
Be 8.198296511717054 12.501168144362051 12.454371419093459
Be 8.650398217931057 8.036059975088323 10.746414901883595
Be 9.713664034921422 13.906464390221831 12.40815634981296
Be 13.473129896966212 10.04022497560354 11.852384871500417
Be 9.625637900895779 8.503207021572958 12.642917358632575
Be 9.872700342100387 9.87130839306266 10.746254231992102
Be 14.064959481959276 11.763105203776242 10.828848989020376
Be 9.083539616611814 10.59597450641987 12.754056960600016
Be 13.302878370557453 12.59849146900565 14.295455007082193
Be 11.492409703313605 8.602608481557557 14.242198798112147
Be 11.613710189250584 13.663067732410514 13.715412725742281
Be 14.332619062354514 11.417287455133865 13.01208231774571
Be 13.235562033698445 8.504379419289831 13.166124328278253
Be 11.327074302859621 9.715667924099495 12.321319849722888
Be 10.549873134695865 10.438877808924671 14.220872798608607
Be 11.550772658004758 7.420190408089838 12.58246597723087
Be 12.747607315417056 10.351379511033409 14.13328202255482
Be 9.861204730985365 12.395096430798185 13.809773210973027
Be 11.539962635023075 11.990406723785904 15.032870931041872
