47
Energy = -137.46082631 eV
Be 5.884268479723754 10.36539996049349 6.498388906819149
Be 7.080961221526805 9.421842560697295 5.017288341914553
Be 7.2399699897293335 7.283644276794688 5.291254099277666
Be 9.036966951627827 10.431347923790854 4.990555995692151
Be 8.88114461448014 8.487927263796728 4.164544250451217
Be 5.304289852558781 8.266644692767198 5.891668080687595
Be 9.38388370570752 6.550514300694352 5.636999408153966
Be 7.211470131074388 11.553393151500993 5.287982542973473
Be 7.3236781559206685 5.345295317415189 6.088330558937427
Be 8.939229133427219 12.076817646665594 6.46355080797073
Be 6.955144741407504 8.620907860146655 7.064329976242766
Be 10.036314121099114 10.223010177284058 7.077545514670629
Be 6.215842192436419 6.790507613846344 7.439103475503113
Be 5.4834727429016 4.787283135887447 7.165558227610067
Be 8.732434471178218 8.53977961951109 6.11221682795117
Be 7.162758606851174 3.6109857829144993 7.220951719473494
Be 5.412156816645169 6.188398125660619 5.585521042919643
Be 9.012368219543411 4.712815790271432 7.292391121022106
Be 10.611638766882722 9.051981894924689 5.421587918703256
Be 8.006691293248743 10.285181849350879 6.801536799745496
Be 6.175178249695802 3.837664394189072 9.086353036546253
Be 7.056699782693305 12.093439767437829 7.295252971343023
Be 4.226935749456271 6.876302358313971 7.348619348933464
Be 8.738563905944902 8.906092234779791 8.294568604172273
Be 5.0092506044481055 5.564080274761175 8.926399813540005
Be 8.268939320064991 6.9234781672137755 7.269576414049939
Be 7.387200531464718 5.518046603456978 8.612554628677552
Be 10.356935809813042 7.862829191455785 7.142564288582771
Be 10.488658070593742 6.006127363257466 7.780871453973456
Be 8.271785585703272 3.2830043139343577 8.86784400576735
Be 8.717783608093743 11.195328649200542 8.517293339304887
Be 11.564342447675646 9.288935493345058 7.949802680411538
Be 5.13212617223854 8.775747751179646 8.020365799201198
Be 7.152305608291355 7.748657470730403 9.070001647305988
Be 6.731084079870433 10.268359473383402 8.431664422637725
Be 9.459103794626017 4.864453687728339 9.434584190462934
Be 10.166148683337008 9.897856149811373 9.478530805002217
Be 9.089408260530783 6.831445005246701 9.085158503509303
Be 6.2479959700842835 5.921331246221453 10.5523475925183
Be 5.0324939769781265 7.446647700630606 9.636523294204471
Be 7.727491933664327 4.351408081150236 10.487528423500137
Be 7.874770583744454 9.924936194019134 10.167458392218002
Be 10.7838330127146 7.871208106989497 9.230434720476865
Be 5.859647696900265 9.32713583073617 10.005527294237924
Be 7.010776656150824 7.98987120919761 11.169905292791713
Be 8.274664199520803 6.289716654563946 10.868259040123442
Be 9.03981508230586 8.300841267227886 10.517327964363515
