47
Energy = -137.97803937 eV
Be 8.10534746630529 10.64088877604763 12.10213831079804
Be 7.56433318753102 8.586825695500888 7.491626855886509
Be 6.978216971122208 6.723213355516952 8.651226409290075
Be 9.94464164628339 8.023540778124111 10.99843935606073
Be 9.285373711307319 10.038974831889174 10.410903883348146
Be 9.626267754289671 9.344311755459854 12.733411155417462
Be 11.671213934621324 11.944228014984592 11.905135720460095
Be 9.308048152261016 11.890706223455725 8.930764936064577
Be 8.422328807954507 8.289451472413155 9.422139584308175
Be 5.910929482232861 10.806427230093089 8.968617273597074
Be 10.84592712921365 7.352598822450231 7.207276609533071
Be 5.459829276558481 7.4688393527786845 7.420519091832881
Be 7.628267413802617 11.63237780252857 10.240773618981104
Be 5.018340521531848 9.53047602414443 7.426256694339708
Be 11.028386093794246 9.214740466875275 9.357039218337723
Be 6.108079685788877 8.649314659053076 5.906703270543903
Be 11.173302591030545 8.004235487771949 12.66425537407731
Be 11.252185457683485 9.838448779646592 11.294928135003357
Be 11.17003333803787 11.427706087451988 9.7419348086507
Be 6.823380512858243 9.714179022410079 10.652118913133316
Be 7.226121413084344 6.814908996850812 6.491494294978859
Be 11.60134144005676 9.972911555175973 13.398660895256883
Be 12.444946241219846 7.888654496672448 8.597377454134715
Be 9.607893528314941 12.114040795477084 11.070330256948221
Be 13.296732141066435 9.131055321471907 10.168837340427258
Be 10.133347815597027 9.746985347587653 5.93241722882539
Be 7.3455107881947574 12.119594641722124 8.211387888137379
Be 11.975048008825905 7.617317302251677 10.704964445047484
Be 13.000114036830652 8.724374080243061 12.20891668588143
Be 6.670966926563711 10.634454856295179 6.853081419808526
Be 8.49717762002521 6.524505120581969 10.312696160538692
Be 8.060901631824338 8.37603790050162 11.702804007843657
Be 8.902543191441586 6.782489585176402 7.845094929408892
Be 6.030213687711783 8.710454531311507 9.018410447424412
Be 13.262250662326078 10.727329824718394 12.449998907117891
Be 9.998875314440296 11.316672424631609 12.907496700823259
Be 6.6289606034832875 7.473341525029913 10.567765745329003
Be 7.896170023564019 10.200879803643197 8.703239895090393
Be 8.057006280851255 9.597492475114226 5.625652171721637
Be 10.810328546949487 10.94469598922131 7.665138081807978
Be 10.46782225859534 7.0889129379103855 9.212437097861484
Be 13.097275089948608 11.140374393048146 10.512746404302172
Be 9.109739715050587 7.8395937659265025 6.027274361747003
Be 11.730356449217373 9.178944915406246 7.153487262293354
Be 8.793812532950566 11.073156334252472 6.9228940065806865
Be 9.573039960574132 9.04528828098426 7.836561291964788
Be 12.679769996208401 10.316747199322391 8.595324438161107
