41
Energy = -117.77265536 eV
Be 13.155153861580262 10.566289357918244 8.348671133777374
Be 11.28361057919797 10.765787998699736 7.354564396438972
Be 12.076597558624082 8.937387999320537 7.67024228223191
Be 10.227484402863041 9.235408712562167 8.363087327785315
Be 12.108865508160934 12.82778119755423 10.608007612949228
Be 11.311471185755577 11.530685734155648 9.228466074746827
Be 9.391974543665665 10.987976367721737 8.944440319188184
Be 11.289598222767705 13.954221420250828 9.096636859678103
Be 12.698511930078292 12.546621872390343 8.086316821389703
Be 11.887508044879223 9.271641301110902 9.838134285848147
Be 13.427506744631213 14.204574352751608 9.032525803892058
Be 9.759659460953255 12.603789755217017 10.395920055534052
Be 14.260967974567484 12.30670796142278 9.425686700923245
Be 13.0970791100411 10.92318958187417 10.314748809365899
Be 14.150048808108185 13.709402236497693 11.064578581174146
Be 12.556881249605322 15.076927276879752 10.593649876098054
Be 8.53142353030609 10.815367515773179 10.751682388186257
Be 9.099057067172449 11.533610384448101 12.548092106670545
Be 10.679414423852041 14.409658396274601 11.193845449240309
Be 9.77730660845729 9.1283953861194 10.365830254027289
Be 14.554933305548344 11.714499733761638 11.57705941002793
Be 10.973872310636905 10.787878780708123 11.206930400162777
Be 10.84501506201647 12.602444811607306 12.315104388572124
Be 9.296311561669686 9.556440955424636 12.380052566311418
Be 11.178340784552395 8.721533572944525 12.048652225694585
Be 12.63294973690498 11.735271302884192 12.242695714604276
Be 12.471914355936788 13.979541761840974 12.385588646013456
Be 10.70260037015539 14.381905159171577 13.37526467592029
Be 12.956227947748738 9.68683287736378 11.980442435189138
Be 9.05845484756993 13.59340558758295 12.27088561274075
Be 14.068930083641167 12.959140290298144 13.176884971124787
Be 9.762242631014988 12.61860352763783 14.132321261393825
Be 10.285668694519204 8.66430823866399 13.933523844065553
Be 10.937188682294538 9.59105911409946 15.578762295292371
Be 11.070681299631476 10.782740518744632 13.353081692712477
Be 9.238641470929863 10.455636633486016 14.432663189811182
Be 12.392227632285499 9.105811561729608 13.91786907148767
Be 12.035733245220568 12.69447431171779 14.140557235352038
Be 13.73502273025765 10.849446501812567 13.65597663020522
Be 12.545541816810786 10.800168410596788 15.300316465271068
Be 10.714577772818346 11.610628696411169 15.597437286331994
