49
Energy = -143.12048722 eV
Be 15.998495629464665 12.623528232134875 9.60201741827472
Be 14.817900349560214 11.619582463885175 8.124243003439792
Be 16.473108953418336 10.68552974999655 9.03416463882118
Be 15.18729780630669 9.514109105452782 8.142128666543876
Be 9.670609601554753 11.062327416257776 9.254033169202268
Be 13.986798142315493 11.488412498636844 10.03031494316333
Be 14.172246713023252 13.667117033897378 9.548562591649304
Be 11.793536676951595 11.114081171218796 9.665034698493217
Be 13.307456303436155 10.112676139517161 8.706119352586605
Be 8.74349678333055 12.749675669872127 9.93587274954622
Be 10.698503705709648 12.921984878952346 8.957004895235887
Be 8.568372905344514 10.939622156163136 11.178759263212074
Be 14.833754691494736 9.508164780139762 10.20045458947353
Be 12.150684538142757 14.432089209795137 9.498134947470392
Be 10.562160718739005 9.959125825647025 10.848351768745312
Be 12.748566771900544 9.537196048391188 10.788263448690778
Be 12.779180533837238 12.511568799215247 8.535425366469948
Be 11.303244083118429 9.007754836800109 12.48312080916675
Be 14.906744522379872 12.943645374417303 11.367462955187442
Be 10.471867289801557 12.012095243447616 10.954114865242444
Be 10.246733166438103 14.17603072182943 10.648355236146898
Be 7.848761615286753 9.936475828346017 13.208563262223953
Be 16.017051257784463 11.089753620416086 10.918746877745045
Be 9.039655977872075 13.142912892318732 11.952344335132953
Be 10.0440387448738 11.096958826074152 12.88627441088959
Be 11.71573928265946 15.266925353957474 11.475408326997284
Be 11.183423433435962 13.19791753487157 12.451475462771617
Be 13.309169536751776 9.372452985279164 12.906075629488381
Be 12.073048089297183 11.137805018398097 12.155065975021284
Be 9.226109017415007 9.061601641462422 12.047293675962996
Be 9.506905808740402 12.902345555247088 14.019692290685201
Be 13.608892520994088 14.607968034785898 11.38793870475657
Be 12.507071776640217 12.829943811902783 10.773290872586184
Be 10.079311010145632 14.829444668331476 12.805918189301085
Be 7.77251459966153 11.909749134112305 12.94589022143043
Be 14.290740908096788 10.939282274455353 12.046554026106003
Be 12.514889145792683 14.834889918979446 13.304664854886111
Be 13.315658695940838 12.896385181912418 12.749242733239091
Be 9.681175626154198 9.270068919168656 14.083766806134093
Be 11.61086470333322 12.087431575187791 14.050191479188598
Be 11.811332811296706 9.956418158829388 14.27355172275641
Be 13.544179179333517 11.18281052554412 14.00315685742305
Be 8.435160510915749 11.148009537034552 14.740095746155765
Be 11.085390711829124 14.199654738265107 14.647627661854086
Be 13.192648426944853 13.287587109959706 14.777140258019749
Be 10.316833610799641 10.902352708218046 15.277570426292721
Be 12.023433981191195 13.632783222874833 16.405268700930932
Be 12.262746853357013 11.641233918748892 15.914121878305426
Be 10.276796722402828 12.766824394865289 16.00543368216699
