49
Energy = -128.75923951 eV
Be 17.698760976524024 21.294197506021426 19.0100347547189
Be 14.838443181576602 16.534271381104105 14.084669115829547
Be 13.503020155774822 14.394846423712996 12.124996774760675
Be 19.656090503784917 18.152244514718866 16.433366819268567
Be 14.93258916895164 12.892015492429696 12.021144552675416
Be 16.762841740759338 20.12135938170884 17.503520455381032
Be 19.15906946468115 19.7637937287355 18.859722653577737
Be 14.319501267472049 11.199824048083 13.333726458696226
Be 14.136941838477842 16.528085254436206 12.152894099072876
Be 12.76932402483351 17.19968484458707 13.650229986139001
Be 17.777545902983054 18.294223325152185 17.445858371965503
Be 11.016021348109218 16.130749247991584 13.866971492558159
Be 14.216546465588195 14.698318420159753 15.749360855905774
Be 17.23571894223128 17.189322123515048 19.149051155113817
Be 21.929587165507815 16.901379652024595 18.741768254821427
Be 16.67879808490969 14.002974796168587 12.260972488222079
Be 20.597893443630618 19.86663762067014 17.221043744161857
Be 16.14250229058024 16.03463027015898 12.49403234432456
Be 21.22520664134524 18.89299035744687 18.999843074949162
Be 13.92008822266751 12.710829555035263 16.545550511005555
Be 13.261012441882222 15.233727695103816 14.054839878165438
Be 18.619792464836568 16.112712071658088 17.936711212643146
Be 20.536601490988645 17.13322745887996 20.240631108607126
Be 10.718113342098816 12.475325118153403 15.192454079324518
Be 19.446692991728476 21.554916963720277 17.89392286690624
Be 17.65202761219617 21.91349960182173 17.098304503494976
Be 17.074560087769683 19.27375081781668 19.32348568536439
Be 13.803990905193956 13.132893687279994 13.899715089662413
Be 15.989670875965505 12.34688720944484 13.629466813763784
Be 14.762093180652764 11.282554898998029 15.285651448736628
Be 10.671086495609858 13.839909199308547 16.792610018142717
Be 12.653580536307187 14.189602422849577 17.223575260745136
Be 11.652429356430284 14.111614727717855 13.336300104687782
Be 18.721808610156604 16.111767793117224 20.050664540983664
Be 18.6284171141026 20.031524863311645 16.565169385458024
Be 10.326848172472436 14.512245346643986 14.916773096340936
Be 11.957734090364818 12.138645800996652 16.841543899398992
Be 20.4008747382114 15.476330367492931 19.042038067120647
Be 20.648467399870942 16.405598405509636 17.215385679363745
Be 15.635757081083792 13.14034843245355 15.50528112528428
Be 11.997003989359186 15.681662083484044 15.692202625397181
Be 19.588491590360363 17.781408911782155 18.48481744118756
Be 15.195297154520238 14.864515396767787 11.119740765799612
Be 12.375461951630871 13.686873660952955 15.237205369311733
Be 21.710880061207142 18.14000710809124 17.096583451917777
Be 18.62537722600538 18.228250766423507 20.277242474899985
Be 12.730993481485207 11.538794168663724 15.01615435451677
Be 15.458212179896165 14.553113938000962 13.926112584294103
Be 12.116090374737784 15.927813356863021 12.167737739026382
