43
Energy = -124.92588406 eV
Be 7.6584356086435745 9.725349904168509 4.451561489514289
Be 8.623341660809258 7.967784525742361 4.14540501443357
Be 6.316431608949214 7.652281565552394 4.619365684326354
Be 4.334579399323019 7.586390089647058 5.599314408419515
Be 5.938632244244926 9.451977466044248 5.80346348079241
Be 9.495353272649075 9.478485387689092 5.414966454568673
Be 7.931178547748534 6.213244907200195 5.17653302694272
Be 9.624102026094251 7.311956938807784 5.953451213931047
Be 7.865664694450517 10.416594652559088 6.5431212795136116
Be 7.677148022344436 8.279166310971547 5.9448799825602885
Be 4.308408223527293 5.876524218159175 7.051153666662332
Be 9.020474972293647 8.742053589351459 7.346428903646928
Be 7.527687002694747 4.679372139610027 6.520985585005382
Be 5.962357560958549 5.839187375780471 5.759446089223329
Be 3.475264309019826 7.614318268912872 7.557133025889154
Be 11.346689350465828 6.484320962615131 6.91493905495907
Be 4.173907118486323 9.378403712353585 6.8276470774556435
Be 9.559025091695359 5.270498559105928 6.401581947633303
Be 11.05709342861503 8.500996852982052 7.253268654470668
Be 5.816502019755465 7.528239456006953 7.008683280843497
Be 9.957076207574891 10.469156574284204 7.339477143406544
Be 7.789512983518938 6.7870030367229885 7.391296824685216
Be 10.837286921731382 4.92631357384325 8.075143881242393
Be 6.991480217064437 8.95780405895391 7.770735658690799
Be 6.259257013723462 5.432534706383795 8.0982978811814
Be 9.64729294850429 6.899485228107208 8.16431456169454
Be 5.791735759823528 10.514304388700422 7.728496922008374
Be 11.483655744583999 7.106008960332097 9.003449684028311
Be 8.684869312742071 4.7103446735281915 8.2558871404142
Be 8.255990057985866 10.328368793197772 8.679803975029985
Be 4.861388882465132 8.812302587317951 8.706782330524955
Be 4.514418755355341 6.580655857440221 9.002505442765521
Be 10.24222434261881 9.143410930138883 9.079916598517405
Be 10.099700766806983 5.57328662924542 9.80082051969668
Be 6.450486646615086 7.385441477021661 8.986990455574688
Be 8.296171357961754 8.189414617637729 9.144971836005588
Be 8.08439964530391 6.176043920485991 9.58595209598627
Be 6.6363415047693355 9.429943796445324 9.794338134738629
Be 9.768699756163187 7.5336928927049795 10.392621166062082
Be 6.095537622648294 5.982047740971138 10.39334183447781
Be 8.699877996075637 9.454405413261952 10.598206121403745
Be 5.328221651962227 7.861753842289808 10.665199633736098
Be 7.417086516686309 7.654118193179103 10.953109612791657
