49
Energy = -143.96291623 eV
Be 13.7305128830326 11.628667544459573 8.53139541348637
Be 11.184109069208066 9.47734689754267 9.461355218092562
Be 12.349237029018063 10.26123160634205 7.927233935506187
Be 11.563913813505481 12.17749158959506 7.350956014913413
Be 9.604163562319728 12.339157816485898 8.235471075261856
Be 9.632150528953645 10.882606906920884 10.04632183574735
Be 13.000651171273974 13.464699965495313 8.197393105590072
Be 12.437619838032102 13.72781708956735 10.1462462225063
Be 15.041779758589907 10.990234371013733 10.11573367625659
Be 10.973502978637534 13.819071868030266 8.68046256102119
Be 12.102407331810905 8.097909121495208 10.659662048047155
Be 10.647803517245103 14.760311585656034 10.712710794509155
Be 10.302464464798216 10.50804714539632 7.980055339451781
Be 9.653833312569358 13.04432626021945 10.155641422720521
Be 13.283579009356759 9.818558179156918 9.816398447497916
Be 11.588895168998043 11.698374968712475 9.48144274367354
Be 11.904180316932349 10.18014401014799 11.440552786896005
Be 14.990902636292528 12.150533982198516 11.84258985858481
Be 11.018858813701852 7.599014972261752 12.336421797608693
Be 9.975879427156206 8.701731947192988 10.940319545019292
Be 14.495646058119842 13.124392012326455 9.857163045642151
Be 13.202351141191585 11.780294392191005 10.714416399082353
Be 11.104642281534712 12.183039103995654 11.517717478846176
Be 12.991659980438335 15.03832149294867 13.47496700745503
Be 12.458796797082714 15.367241485004229 11.496352161999782
Be 14.185554869420727 10.087102957204754 11.883276828976467
Be 9.463544968158258 8.645798193211348 13.234448602792604
Be 8.740403008071604 12.037293466132404 11.695292812615
Be 8.276097237947473 10.548291277003859 13.313838356414859
Be 9.622527293814532 13.872152694207307 12.321633317485732
Be 13.640979510181355 13.707980504535572 11.838680468669308
Be 10.887100359984872 15.457038955596621 12.81829994940503
Be 13.054387151258664 11.745729174507673 12.702006197532794
Be 12.950046615206134 8.355056406567078 12.553644045473524
Be 11.330262616668612 11.045017663126439 13.422514332717192
Be 12.438968194739125 13.844738670437868 15.163501940284336
Be 9.867768357823476 10.367385752393263 12.159336599372761
Be 14.122242321520137 13.28763006058671 13.807241717340808
Be 13.194941973378368 9.901648885132612 13.863893666947016
Be 9.467953945691098 12.236867118408808 13.65563973812597
Be 11.7355307121349 13.270122264556283 13.2330200752423
Be 13.060162317821202 11.810868648419413 14.877119490250733
Be 14.775590631406494 11.222284595315282 13.704092189878018
Be 10.238290906230715 14.176601258984624 14.392063648086276
Be 11.372809859852406 8.798816617425338 13.998103334705082
Be 11.789549009064583 10.299115481997584 15.391139096266741
Be 11.531518583571197 15.676180983132632 14.759655089507516
Be 9.807209359627025 10.264194189479168 14.616092200438176
Be 10.9455220536322 12.260020614283224 15.214989113057662
