47
Energy = -137.92669273 eV
Be 11.187804199567308 12.309027601751755 8.288233673748286
Be 10.811058706603523 10.179690234559652 8.213236328739908
Be 12.715424109696121 10.854539358999666 8.246294685522273
Be 12.405010920547577 9.162141701232581 9.360128819420126
Be 9.976280852143244 13.357949085232098 9.59065128117494
Be 10.851330336626908 8.17826617125733 8.419351525402918
Be 8.131919749109429 12.323992869595001 10.470314342312978
Be 9.404806290469933 11.311691423317159 9.159145974686725
Be 11.482794702377637 11.210687101477996 10.19224457848903
Be 11.856260413821142 14.27965538174733 9.067379185906393
Be 13.297701130038332 8.703337411885464 11.208437380727295
Be 13.082551795312838 12.453229722082787 9.469013727144032
Be 8.894631898236742 9.108741981427725 8.699950596971338
Be 8.062169486379746 10.210074306929863 10.399039629517825
Be 9.543825074901235 13.470640297696828 11.571108520384538
Be 14.00856342981704 14.243809989064944 9.660132685370797
Be 14.283210377958016 10.323901167955816 12.207308059342683
Be 14.754494200920957 12.40247097450941 10.75142238696452
Be 13.780253748968315 10.51040231240706 10.116523554067744
Be 11.620711871714457 7.522581199252713 10.329377445094323
Be 9.636119818703737 7.134189101594592 9.608616075523727
Be 10.713544014443954 15.101486403366012 10.932719963500556
Be 7.681785969940129 13.163409513915658 12.306483847584907
Be 12.723073917529945 15.510469766430832 10.47046901209478
Be 11.775497084685473 13.345839452237737 11.075027330967226
Be 8.242570239925412 8.1843951111919 10.564554570583857
Be 10.272536327815459 9.431117630019724 10.291495053439109
Be 12.266100983957365 15.147683786086603 12.416790791959828
Be 9.715743399657622 11.214650587997543 11.416773426698551
Be 11.475768181500253 9.952268798179643 12.050634785830074
Be 11.869109239869308 7.61619849729158 12.384498527708887
Be 9.90069385235509 7.465659405098324 11.671746905168531
Be 8.94942101793939 9.269081771083524 12.182197122730376
Be 12.969613288779192 11.776215325509352 11.660816247710827
Be 14.528072217743588 12.413142508037524 12.885974708272565
Be 13.959819816684103 14.10033657458046 11.734157912523314
Be 7.872604280608127 11.125679225023374 12.389469320359716
Be 11.138538945256556 12.023337868867195 12.605549306866175
Be 10.695706820229608 14.063360532902848 13.137519083675054
Be 9.248653051765297 12.483551195317425 13.397962469293024
Be 13.022079907710566 9.073023398362082 13.355392814441524
Be 9.704027100872826 10.544730153555909 13.692688880974837
Be 13.017899352971833 11.197407572145611 13.774675178138665
Be 10.432252689265349 8.517165148519126 13.518011196712983
Be 12.68075214444031 13.283818332799665 13.359609534525697
Be 11.14103408275987 12.070554477261723 14.562264507106445
Be 11.525585986906773 9.983804599768495 14.444014074148733
