42
Energy = -121.69062449 eV
Be 12.13893739455465 6.970165898196504 5.885811389640741
Be 10.141442732804572 7.429833273211025 6.092092603883921
Be 8.113732532892994 7.944115502992707 6.341090134661145
Be 6.014776517257751 8.350842552795472 6.476206848703394
Be 9.568311112803194 9.438724422931257 6.385063359772346
Be 11.672518221789513 8.960642478849959 6.278316055312716
Be 7.342618970262126 9.839477932230588 6.814769931219661
Be 12.916253451392654 7.67843785212134 7.613266014532314
Be 11.181439016530762 6.211433620571323 7.538845542256921
Be 5.2719698289277535 9.951122218074488 7.624623522605065
Be 9.121946710050059 6.825985578467871 7.841465249763576
Be 7.0137763267839 7.442631221446107 8.075650295139264
Be 5.020589624479909 7.920950749650199 8.183390289477336
Be 10.884992026383005 8.224895219641047 8.112782365639308
Be 8.669999281763959 11.081174640349278 7.90690465742501
Be 10.696461821626041 10.378856754373947 7.949609637633163
Be 8.851295196025585 8.95318746834506 8.277364849042408
Be 6.91592489360127 9.469016380175825 9.083111858146863
Be 6.6079369119628 11.485794461866625 7.885679760855291
Be 12.669969561486548 9.747587187382205 7.919989382598972
Be 12.15224703651444 6.662440134108225 9.32783562404319
Be 10.143940641331575 6.791631399370118 9.734221290120537
Be 4.449204079029195 9.373179945106854 9.438153100192588
Be 9.942302810624284 11.593127140319531 9.535195046198409
Be 11.923726630573999 10.69139558347507 9.662122521209085
Be 8.182528206627323 7.643695539862565 9.805891350882474
Be 7.64929497491764 11.845935143555133 9.608443074104276
Be 5.582925547689242 11.099766227500508 9.705129499087096
Be 12.669270266904318 8.614572081762487 9.593579531012708
Be 5.935091510536344 7.758511152707312 10.027558750400818
Be 10.474497320802945 9.035866814745853 9.961275489247575
Be 8.626696526029326 9.966445993510202 10.165415197804311
Be 5.448118794932432 9.449376914906738 11.169356764725592
Be 11.540105052603455 7.538641022647061 11.156074333567052
Be 9.33299736775275 7.840381290509361 11.517868514206075
Be 7.286122065435468 8.604006892981317 11.476070633554151
Be 6.998823023135327 10.751269473464651 11.32550378167957
Be 8.818701921940217 11.740551666601085 11.354595473227109
Be 10.627666883307935 10.784020545857059 11.409519106562911
Be 12.302007450300865 9.513302650933026 11.385751714817498
Be 8.812774493333286 9.834481556104496 12.295577426409128
Be 10.720082243035913 8.996542397035315 12.492845009375396
