48
Energy = -137.31684893 eV
Be 8.369551310099823 10.198264704082924 9.384550802936603
Be 6.475035939562889 8.049165939054536 6.971527694556252
Be 11.626431350533048 7.82896097781517 6.102388932469009
Be 6.401353150170135 9.597170295438449 8.540661909474476
Be 8.129144632335771 6.134816822798367 9.680485452977347
Be 4.5793957551300615 10.71124040224224 5.879296483567459
Be 11.388363156285044 9.638588933193276 7.267240847336213
Be 8.330961816676504 6.347233242632923 11.926513532613914
Be 6.804165308158116 5.904147201114917 7.570232281114084
Be 7.631654848300761 11.448089222717957 7.80688641722396
Be 5.840128430765224 5.901617496244015 9.342170654992536
Be 7.413318124988471 4.297404106377395 9.228196772271223
Be 6.768139013748333 5.139082934826785 11.131769679447629
Be 5.077854184607664 11.134620351035435 7.8651306608755025
Be 7.706088931685097 8.911391606678228 5.266326606958368
Be 9.427234595903165 7.595929750276837 5.107941451031187
Be 12.133383220333414 6.0558859027161 7.246601795627223
Be 10.253289726324908 6.1806826818583644 6.362026153570658
Be 5.288412089506674 8.055492749712444 9.363259098961539
Be 9.826239947273157 6.844097700390842 8.67725915704831
Be 5.285381396876128 8.800111032193657 5.413089361707051
Be 8.716438212157795 5.117666152203501 7.585910105050646
Be 6.1282427754919295 12.816470437625691 8.110182601388697
Be 6.915260510117384 9.220265494203709 10.47394979384738
Be 6.64251330125828 7.2142665517145845 10.788810198772063
Be 8.645964438472785 4.4620069613101965 11.123615021722921
Be 4.8930640941838615 6.988162701224417 7.648829558153033
Be 10.706743733961785 4.529630483568062 7.519808512528441
Be 9.688419663091013 10.785505018293291 7.542388336101492
Be 11.718585258914397 7.755378494272824 8.293498956191497
Be 8.908749236949237 8.04041628548207 10.502342314617815
Be 9.647494233088388 4.545854903839282 9.337882145064734
Be 10.025369705127867 6.070232693315479 10.716596750651686
Be 8.258503269796032 9.330430531884879 7.326458276039464
Be 8.447287038788971 5.662739105685328 5.582734976590845
Be 6.245639996363114 12.097789613293878 6.136021541026183
Be 8.256576892478213 7.168510356514912 6.800102607199538
Be 8.183505015747484 11.017546546883503 5.786764372664816
Be 6.461077739155136 10.089491667232512 6.604202588421662
Be 4.625931265641727 9.065085247395197 7.409790672839326
Be 6.472977905078801 11.33626373788209 9.575322883748083
Be 7.697606335810961 8.289982435848794 12.173775214412272
Be 9.86284048095397 9.680457615421345 5.714555727783482
Be 11.508959490119304 5.556706295553254 9.119995161568758
Be 7.64109330474102 7.896349281021184 8.776730310377202
Be 6.302896008382107 10.566677863693428 4.665831244336854
Be 10.076205510971464 9.126940337902989 8.863851632252311
Be 9.95506351984687 8.183714999288412 7.0750286158445155
