49
Energy = -144.98579919 eV
Be 12.765989372387521 8.044115185588481 8.538030362834071
Be 11.656879192237525 11.377809318518574 7.913098822168249
Be 11.407087216114075 9.316827124916147 7.749208225320814
Be 11.375453342809974 13.416366319183494 8.653641298776614
Be 9.76460698054864 12.113110574295051 8.035728972362827
Be 13.318675911443 10.07672027954116 8.120357417787357
Be 14.656618749558994 12.63435788069701 10.601829748454586
Be 9.363111855311166 13.676675594655816 9.237831843196899
Be 13.214903579338893 12.15267870055983 8.98063503719629
Be 8.769753750069883 11.706718783158633 9.888906961258753
Be 10.713192655988093 8.244094420576118 9.551991676713616
Be 11.028497831628549 11.870026238767515 10.170046689186064
Be 10.01119789667398 10.260275568215905 8.843255115600927
Be 11.92182765390783 9.921758035219062 9.978495002557208
Be 14.139953877974643 8.931274073853931 9.85620892032874
Be 13.133698968059944 11.328121962311185 10.977163351368963
Be 12.601046467560655 13.479980187311623 10.50736433002548
Be 10.740879613777011 14.43269741205119 10.580322526140911
Be 14.712559441522501 10.822190834428799 9.477043578672468
Be 12.577931128425027 7.652505999070487 10.489294517081014
Be 8.944890460973001 13.496415407574377 11.25523002152507
Be 9.75289598284682 9.839935856320233 10.835844832193795
Be 13.158429098138072 9.227978552441163 11.756419344028549
Be 14.15670061987165 14.183320264941537 11.819240146119185
Be 11.098197350689796 8.4815840150842 11.685389233920596
Be 15.004195265756746 10.437936039042231 11.48590775548265
Be 12.871061093407794 12.614379038750116 12.641509049752152
Be 10.083350961599868 14.826979653550374 12.731628182247757
Be 14.945396412097294 12.350450217798906 12.659102691769883
Be 10.867324002359657 12.877950906931432 12.062979770222515
Be 11.459948596402779 10.719071265739634 12.046064289642345
Be 9.899970944482728 9.591190248141867 13.053789964229477
Be 13.784091431038123 10.669540706871713 13.123485881287456
Be 12.125440172866039 14.646731159737284 12.375869198152303
Be 9.132211989901267 11.488930241881352 11.913661482107376
Be 11.88358681172336 9.19672969561562 13.552472809318212
Be 11.445408574653149 13.217015562889456 14.050664927478804
Be 9.05364705716557 13.147141367446798 13.361593873602063
Be 10.180946657925489 11.542792681353706 13.613217425258746
Be 13.711243191403694 12.352104316120352 14.599145785778783
Be 11.648199488420243 15.27897142644896 14.511942252443525
Be 13.548079221972156 14.324112053026484 13.838697467507474
Be 12.143740530165962 11.185295200140596 14.131115478849832
Be 10.612532802717096 10.294984198113013 15.136865786425075
Be 9.847749423491205 12.464711737421327 15.42639101773092
Be 9.653160766003245 14.532498144152814 14.769027493696212
Be 11.81935585031517 12.081683237228015 15.980251269922588
Be 12.850737217109383 13.894910889423976 15.683816520711835
Be 10.93601731725668 14.068726200986298 16.24059642965561
