40
Energy = -115.0899386 eV
Be 11.87420104815169 9.948519801595225 8.840935281431385
Be 11.910227367840431 13.678399275553934 9.079119414680791
Be 10.736610118804741 11.880077717367817 8.22914309189895
Be 9.785087858862486 9.773023363125658 8.68042112444428
Be 12.384621262245004 11.800409861504027 9.472163843114467
Be 12.55564665969836 8.56158316737829 10.513409056354487
Be 14.117961762186159 12.897581137896193 9.53293726585626
Be 15.648473157947924 11.757463429382815 10.167865329288349
Be 10.304329513027513 11.176999925781558 10.094323339890403
Be 10.288859272515847 9.040320142172144 10.68347190743692
Be 9.88108274835945 13.28619344943499 9.6231817549499
Be 8.667689208096041 11.588994700985623 9.020389708920488
Be 10.965753446751709 14.854288198646378 10.475574325405749
Be 13.904652220758543 10.312158649217944 10.061922959720961
Be 11.917323475245434 10.41770243457122 10.967440265123065
Be 8.4787584052951 10.062019324320845 10.479141199756837
Be 11.118964317727876 8.10915709199097 9.042432462270185
Be 13.034341184192517 14.023575102621944 10.87378983495297
Be 9.615587642028512 13.952627755556616 11.837200459251019
Be 11.562233124004093 14.682507552784385 12.366309766142745
Be 11.454399666166111 8.971850149419964 12.446053828454122
Be 14.981089316601254 12.90829857378768 11.76444626534518
Be 10.016438177826041 10.72977188707028 12.14091089219415
Be 11.321583836195407 12.6348250348166 11.261850972869604
Be 7.651327094080921 10.748349464976846 12.217115091479732
Be 8.647385275519406 12.220105689848994 11.037655794184207
Be 13.31337754452067 11.872967342611865 11.351202700773865
Be 13.433813472732096 9.723479407642424 12.253087786488646
Be 12.34333811984881 12.168044162946348 14.571222672029622
Be 8.858256574963006 8.985169492144799 12.376598542439945
Be 11.903928488751298 11.305192021100957 12.80208307241838
Be 12.928140843107512 13.240763516796758 12.86600383651808
Be 15.188585915577884 10.759488094657028 11.832527043435594
Be 10.208398672238388 9.273359350456966 14.02615802404151
Be 10.781535099661655 13.085056997531137 13.474213423188651
Be 8.528303643924005 10.370768887789184 13.99133944534116
Be 10.406563574217143 11.283573805740952 14.46309071173317
Be 8.822640296774084 12.29628777414654 13.238551044739104
Be 13.959229819420258 11.437075830853287 13.37219308621409
Be 12.243932059082637 9.926641718720829 14.217194660169508
