48
Energy = -141.20514884 eV
Be 11.993546723971034 14.074412422200563 8.690089857431564
Be 11.717195699861712 16.144592729524398 9.072704392622143
Be 10.003833869455795 14.988115807557929 9.393416329966579
Be 13.524975319104986 15.383118984235912 9.496840433347433
Be 12.119898217727693 12.265375778682236 9.835940108737018
Be 10.659949797066297 12.513168134145799 11.531225807992667
Be 10.290201570826301 12.929599967600103 9.344777819798145
Be 15.224434994691116 12.822863899324075 11.352169699203275
Be 8.663696124706398 11.700467622886023 9.616657071114046
Be 8.61058082757709 13.530500892160786 10.530062685073364
Be 10.61986109295705 16.627221496613522 10.639735401308108
Be 14.274784202321733 14.77221359221894 11.29806148887388
Be 13.994623970572635 11.381861342432895 10.481070979691767
Be 11.632903231212621 14.415476003403695 10.827168290790606
Be 10.40686478795971 10.784377394595278 10.334323094942508
Be 13.850419799643397 13.387615776878365 9.756880471871883
Be 15.484088731942292 10.624335939691958 11.828602031174096
Be 12.2067638033615 10.901288039284456 11.438238566230527
Be 12.728833466166575 16.40450391278007 11.143083795938756
Be 9.550542071437471 15.080463346897762 11.525192354219975
Be 8.608979712160947 11.590858910413464 11.616810759021302
Be 12.82765347544391 13.055095465131346 11.79169056336573
Be 14.542584392740551 13.728359780728685 13.16315958267449
Be 11.663429331944409 8.917735050462298 11.727972519554612
Be 13.063707100073268 7.8850840682438585 12.866884259128879
Be 13.707024942112902 9.477041939074061 11.46863565268264
Be 11.707713178170225 11.83899055181283 13.241607003065186
Be 10.2948934589099 10.29296518080959 12.44494536755624
Be 8.773484345984087 13.507567504639447 12.599764966479054
Be 15.010432764958592 8.752135878654073 12.820723378465274
Be 12.684901412156409 9.954502297208812 13.504406161379869
Be 12.890360161856146 15.075337491908005 12.811115285443762
Be 11.119216573748462 16.036093883620676 12.483486881541184
Be 9.55818500863061 11.888500975521488 13.442500029684604
Be 12.7598721075856 13.409938033340918 14.234305996429095
Be 10.962245875508787 13.963580069606408 13.067745301028761
Be 12.390146859387638 7.416644743835807 14.742407098320676
Be 13.80252668715035 11.531294022210615 12.848048741715994
Be 15.371254135507378 10.33737734933848 14.038770547608468
Be 15.907098495877905 12.14374358763571 13.200444570752639
Be 11.047365061056547 8.558315572641211 13.717712692061797
Be 10.768092648034074 12.699835673413405 14.847769566563466
Be 14.124492067303391 8.513287232948976 14.655713691115817
Be 10.703128451292052 10.503020178123974 14.58760419304233
Be 12.511013569603346 11.500649013541558 15.189077481996241
Be 14.090710047303913 10.303400018280097 15.618629540236693
Be 14.506648723099195 12.23342633156886 14.791515749217016
Be 12.202066927046152 9.31087192938163 15.497537556749991
