47
Energy = -136.77103856 eV
Be 6.322837928068382 10.366579570984888 8.73235351846558
Be 9.044320837023156 13.52005166710435 9.457686715412688
Be 7.100645580108099 10.837389060789404 10.664318022047357
Be 9.410514962549097 11.062134918209054 12.122324298686367
Be 7.013806585049356 11.538306856714692 7.148983730857416
Be 7.241037325797882 12.303342936680087 9.189324630143583
Be 8.336215916815371 12.521902472979782 11.039601687168224
Be 8.356245283642481 13.0627791567092 7.563546762152095
Be 7.5531463498683555 12.897500906814285 5.675742695382035
Be 10.419810714988133 12.350910521579417 10.548015144899447
Be 6.280412206966105 8.281145500283218 8.549592880228378
Be 10.006565052044762 9.14050583746234 12.528379027883538
Be 10.300849769146946 12.534662934218476 8.158447800183165
Be 6.224727428378663 8.855004087363033 10.49764596563574
Be 9.03137309707331 7.340993075964616 12.10633981061645
Be 9.250525197606015 10.66472042760417 10.142744067959946
Be 7.231354244881274 9.370386942408839 7.004489392603225
Be 11.166964676377791 10.174916981497859 11.186195700874345
Be 8.051361052087211 9.253697721673571 11.67405106776638
Be 6.995285240588164 7.3533230593991235 11.66963784532425
Be 8.014653400974153 9.26763303529763 9.386858743845167
Be 8.785693188846128 10.777192978438238 8.083463440065902
Be 9.193901904094563 11.670629701636598 6.287835010670075
Be 6.894470229726454 6.5695433448490235 7.690379301659971
Be 8.190584956280148 7.225288041698719 9.821356743079523
Be 9.762193391979144 8.621551361348253 10.461035440546889
Be 8.20363213986368 7.457149731113897 6.076594075293866
Be 6.154598978561154 6.66997475991308 9.851525861488991
Be 9.350553227199644 9.3469951973124 6.372800170611005
Be 11.265897462810614 10.938525902222594 9.192587331850529
Be 10.876423825962686 10.78795545884827 7.092583602067823
Be 10.255181188645336 9.170153449076782 8.39738488172672
Be 8.49333803128092 7.983424636013314 7.901795163798889
Be 10.122580695007159 7.150428714021687 9.00198709701839
Be 8.104605907861004 5.592946132508842 11.085585657981646
Be 11.901525170410014 8.679727675128346 9.767046438270985
Be 11.308452362680095 7.758976128156032 11.584589445099459
Be 10.219115474917672 6.053166311345613 11.082133141889072
Be 7.50593705191535 5.220864209524744 9.074306166612336
Be 8.877166935146052 5.856856110614764 7.509734007035852
Be 11.87222293420196 6.508077249715204 9.871497064790223
Be 10.234073546678788 7.293981302949216 6.733425709371876
Be 11.451012177812459 8.92485991144 6.405583391220785
Be 12.395476337535174 9.657022141360509 7.999292750191394
Be 12.027793800016731 7.570443053219474 7.939518191054067
Be 11.006352166518015 5.701778401756766 7.945855648450365
Be 9.499720789310771 5.138894165594899 9.41148079580792
