45
Energy = -132.399071 eV
Be 10.55233240043807 7.929967424109973 9.959488038141593
Be 11.436188313589456 12.229455131557653 8.453980883614067
Be 11.186952305831577 8.687012932853447 8.092822812058964
Be 9.19056982271111 8.689115177181074 8.522195850561051
Be 13.691985791905223 13.269126913161935 10.607999370119618
Be 10.228199890175906 10.540737836293244 7.945665675488618
Be 13.570432011964167 12.098365969277362 8.836618908578995
Be 12.481413759759404 13.871822453172468 8.974537281648997
Be 12.372990134199183 10.403157459223698 8.061080909454045
Be 11.590953788158094 12.750658895113745 10.934146394773334
Be 8.525882043773159 8.841642108777611 10.472392898364768
Be 10.032731212341963 8.919477738681545 11.807908010512172
Be 9.851894249639848 11.968541041521059 9.726630173133492
Be 12.57934199040604 8.788710400659049 9.584031406538266
Be 12.273393972341694 14.951242606766696 10.652647377473441
Be 8.465277408761157 10.432930764779424 9.15333043588073
Be 12.470606911293682 10.94700229203365 10.257362917495907
Be 10.603725013137083 9.982195964668286 9.985105872630026
Be 14.135848731113963 10.069699160134286 9.165022247165497
Be 14.656043701255665 11.495094160960463 10.672732022821714
Be 10.527307813973554 14.115797718315733 9.77760925159004
Be 12.814427732427825 13.919772797191388 12.36952977197819
Be 8.676267221762112 10.863909212618688 11.229975964630972
Be 10.753876284992685 14.638375434488562 11.947427350585185
Be 11.586455429594249 14.55949939225495 13.899897785669001
Be 12.010419131752988 9.131729667636892 11.568465660908492
Be 14.649125455218746 12.71019380608034 12.552813304861564
Be 9.475085135058261 13.046233135551956 11.432024088544011
Be 13.995756533724363 9.508068860969004 11.149489252918533
Be 15.144158644887524 10.61846608492225 12.473225515962822
Be 13.3884641474885 9.639394466105182 13.187228556502962
Be 9.3829484601988 14.062850990665714 13.399069850258037
Be 11.100643748875994 12.665214157340522 13.100641119881631
Be 9.030538757344873 9.973875624840373 13.161864561045062
Be 10.714901896789645 11.045184773109023 11.847531275898117
Be 9.187700707242081 12.706000072347292 14.998283273389218
Be 12.859741179926246 11.57828034158927 12.268685768783486
Be 12.323546231089958 11.010801888985295 14.482773974173805
Be 8.939930165191052 11.99451603888465 13.103449585382371
Be 14.331083219608981 11.321464154867401 14.16088388142099
Be 10.078570344379084 14.445819854890027 15.30386023081256
Be 13.100115025306629 12.977497302080815 14.165247071109201
Be 10.262159568619248 11.050581473209231 14.540448826780334
Be 11.339442790760753 12.76141930449173 15.313064448881804
Be 11.197597819066186 9.556123913713144 13.46783703965242
