43
Energy = -124.53649689 eV
Be 5.960162012332769 9.915046002791552 7.343111044217519
Be 6.868692075961418 11.045093174455712 8.967433915675072
Be 7.022763367162615 11.565992946911539 6.90518923147906
Be 6.512743087200378 9.40464240985685 10.762756497357799
Be 8.668579731362316 12.112144729886312 9.959809547810503
Be 7.165979694773322 9.861679478868972 5.609424329977201
Be 6.8438863267829015 8.73366217875833 8.833053590682141
Be 7.899007317441502 10.87709285158827 11.4672658538678
Be 5.986719651509599 7.284102205636868 10.092090702727692
Be 7.228740322512007 8.062388107156046 6.8182871570826284
Be 6.007624541948425 7.870445297078552 12.08884868078172
Be 8.399750346451915 9.94314474742091 9.654494931241379
Be 7.764023367558851 8.7998360028217 12.458537135104802
Be 8.907152358925153 11.632234447638714 7.971706016146209
Be 8.12143052378915 9.756020373564112 7.550956701390539
Be 10.108408417342762 11.189754299983553 11.083584261045502
Be 6.004536489585412 5.9273245101735785 11.620617037288513
Be 8.89384854421587 10.951225549949445 5.971445399274648
Be 9.362696227081882 9.306724192551092 11.33341398748604
Be 8.902139996501571 8.72444094593284 5.709097043258945
Be 10.697674402275025 11.820287740707261 9.074036192367211
Be 7.417480621972182 6.741124244276976 8.508286543955116
Be 8.979037704264456 8.21195474433369 8.666235650864975
Be 10.456781466015643 9.563644823217619 9.490794806482414
Be 8.065022511482567 7.797634674055483 10.490153147313361
Be 10.76740454041043 11.503869579824306 6.845381658390571
Be 10.430541326002691 9.972067717267617 5.131164093365768
Be 12.031668465086314 10.70468763405683 10.309204989383138
Be 7.592296908275852 5.683968462683349 10.314826938467686
Be 10.161422326197561 9.507595838840373 7.388062613474559
Be 9.184230555017546 7.1006478263960275 6.987582832626262
Be 11.344651857797137 9.176249543430167 11.4745057776922
Be 9.336967112778702 6.202562198079554 9.187203629480354
Be 7.804856163593766 6.655950899702591 12.367874527418145
Be 10.563110980712555 7.4964995317634875 10.394620243346708
Be 9.65199761177718 7.622594330698299 12.313258602854992
Be 12.092428731401615 10.476963043750986 8.211384579365575
Be 12.113698580295122 10.011806199883633 6.182561102562875
Be 9.40785967551901 5.892094873268651 11.240017601706812
Be 12.36203779274715 8.713336281560393 9.543732256023175
Be 10.95366695206935 7.451543720891097 8.270923124730755
Be 10.992483493986363 8.050515105299011 6.052715750631386
Be 12.513077938651726 8.513027131085687 7.484340894186425
