50
Energy = -146.94965141 eV
Be 10.137463299989586 6.5927961192848725 3.672916089598493
Be 6.6318338289286265 7.2225967822930786 3.7804554721082253
Be 8.19066733725031 5.972128783318735 4.130026239179445
Be 9.802583925803233 4.78167606553142 4.752897210534407
Be 11.40337318324584 6.0071530908993305 5.373411931931349
Be 8.666643273012399 8.356627827041175 4.297466149756795
Be 10.824764361843796 8.08682280707972 4.996789822307807
Be 6.336530092470023 5.4780269346497095 5.15386248389994
Be 6.227461088715151 9.0307757589306 4.688971972924152
Be 7.639219272977031 10.58036203946779 4.537212311463127
Be 9.43720667362648 6.650249843921313 5.6293330418568175
Be 5.242297468203896 7.2867348774776834 5.403087784393603
Be 9.62089217212478 10.07931677998486 5.396744407290108
Be 10.167034097943016 5.012239355884599 6.904364133035767
Be 4.730887325706503 5.614618932893679 6.48280345761554
Be 7.494727404253469 7.277975834242141 5.7937669117826305
Be 4.4375719771269 9.246832216894665 6.009458332877111
Be 6.072091979960607 10.636406955740497 6.083654864661572
Be 8.108108894320074 5.091466655923056 6.187871946552123
Be 10.928817554769537 6.953977852411321 7.27378656568005
Be 7.8298395273567225 9.377110424135617 6.1297841435761455
Be 9.650319460683102 8.437989993981306 6.658988066716559
Be 6.337755347772479 4.3619859543694 7.23148858687777
Be 8.14937480250839 11.347220956180555 6.4629275827798445
Be 6.121645257671441 8.55625988415318 6.793041935291849
Be 4.844734859415824 9.782684075313542 8.027517809972174
Be 5.670150949391427 6.707457516518868 9.463737920292196
Be 8.878846972199813 6.551863381192024 7.53015172458681
Be 9.117070518547237 10.028287298031707 7.882534734215665
Be 4.702576918467003 5.167562259543915 8.464827333940406
Be 6.536401518504499 6.483584180134723 7.500989183142544
Be 7.937227417949569 8.277161304375312 7.755667043940175
Be 6.9974013906550185 10.265184301723314 8.007662863106846
Be 4.4602933287436395 7.520207634213999 7.724837034549562
Be 8.355672248005327 4.64484652954174 8.26398312937372
Be 6.273554473968502 8.437333499030297 8.770961951875531
Be 6.593124519909907 4.770593964219733 9.350213299278169
Be 3.6074925801961393 6.53966967260492 9.721824509949057
Be 9.65706492498015 8.020523419452 8.898153712326327
Be 4.903463026692736 5.132351114942053 10.6141192770555
Be 7.726635312753467 6.858937968681973 9.224774723491384
Be 6.0264359060999935 9.97278018078267 9.98558424264616
Be 9.926073830781823 5.946901735598351 9.182819543306138
Be 8.084012787512505 9.173705572105165 9.722776280946702
Be 4.468521684387817 8.50252914338501 9.837889662874717
Be 8.427325219534753 5.089217518144191 10.369151543380832
Be 4.807635649715635 7.078474286001435 11.376293397750887
Be 6.778530166674411 6.062702989232781 11.199034088285257
Be 8.792162719483352 7.223364558611991 10.864150192788689
Be 6.646165789453035 8.130407492215506 10.842917674520853
