54
Energy = -158.55147087 eV
Be 11.972628940859808 8.832704251656512 14.11394968384035
Be 11.230975820027961 16.179879606161975 11.06118542220604
Be 13.651836235292972 8.520595616757918 12.617747375555505
Be 14.43558449084835 13.752149432051501 11.890996876591103
Be 11.749983852329956 9.8028327794652 12.108780202681105
Be 14.250920415032109 11.660471454749363 9.894938880913932
Be 14.518624062783536 13.071821348949102 8.422410090058547
Be 12.698949955749164 12.040063069953097 8.172578965248459
Be 11.888486083420327 7.449492334229351 12.423281993356655
Be 9.081977067666857 13.99447764377952 12.820509037924657
Be 9.303078818409547 9.965650975956846 11.852015552620747
Be 12.873674196105739 14.089647905076339 7.966492506907794
Be 14.080656061378178 10.055306014675066 11.291524251741437
Be 13.928091577039783 14.552091884137367 9.868251190438798
Be 10.71396014054013 11.601078020554038 15.253362405346465
Be 10.137712191968152 8.260899672297391 13.265765333635997
Be 10.285713864693665 10.194437444896613 13.681874441198888
Be 10.806466756681255 13.552849712000722 8.294610497588243
Be 15.175837810947145 10.116403178619324 13.236568150790486
Be 11.074293694288317 13.383258541310378 12.026659044123717
Be 9.065315370458247 12.14954656784451 8.233975122412582
Be 14.30168843688022 12.400727979216555 13.556806144717322
Be 10.601280999018895 9.46443178229116 15.48836264379389
Be 8.215448516079066 14.33854911930677 10.806641228210971
Be 9.558631341260188 12.055353049333831 13.377182407483717
Be 9.989294844055035 13.236358859849435 10.172521466581307
Be 12.490543417450263 10.635806520323982 10.003287742330768
Be 9.408517043816806 15.750122772939516 11.752093211224352
Be 12.991171532409698 12.019230001835393 11.815410142603639
Be 14.397880912785652 11.043876283315534 15.109121949967735
Be 10.66554675633479 9.69095020365022 10.015037641319832
Be 8.568352648854628 12.309698450688034 11.583401514815536
Be 10.860933980133344 13.502364536081583 14.228722391019113
Be 13.245204305155351 10.495038267363832 13.429310027177209
Be 12.460053319885114 10.423792185274031 15.574957354513154
Be 12.758248452578616 12.488446209917665 15.059541086840296
Be 12.168688376523864 12.942122909486942 10.072192570826058
Be 8.997122350725126 10.93903625248671 9.969583526311634
Be 11.830424014495646 14.996903797869743 9.477203813854025
Be 7.680478068572314 12.551870663714396 9.6993306646247
Be 11.638072418698629 11.727815092115744 13.339634505081042
Be 10.749883193634309 11.503509649465755 11.272267949327984
Be 8.562545933466117 14.077360707033442 8.696529619019572
Be 15.241193357463743 11.74248631841521 11.816428402950187
Be 12.67863076046443 14.789176920057985 11.505308939240788
Be 14.015682731575273 9.009283134814236 14.756631734823767
Be 11.103931505469014 15.269949752211991 12.965159143389409
Be 13.219432511302644 7.19097282323902 14.078714340301437
Be 10.338037721961634 8.141111980311097 11.268969751825196
Be 12.741487830463894 13.78036254211366 13.350218537446473
Be 10.839164411091078 11.530550438369405 9.0302658486712
Be 12.452153796269014 8.555556953818616 10.648921110444181
Be 15.515823363989888 13.26106480706335 10.239135551469095
Be 9.814627098300402 15.398949129387718 9.697298245915572
