5
Energy = -4.55086343 eV
Be 7.472810561149733 7.058301449360823 8.496134864787063
Be 8.889042179642805 5.541730854455073 8.649112324241639
Be 6.963692042995519 7.9371164304869986 6.667077759206635
Be 6.183135445709095 8.603526297900643 8.403610862639313
Be 7.485886551180966 7.66238499328805 4.669235699248014
