50
Energy = -147.47415282 eV
Be 7.046696687142847 9.81340775745048 12.016610837876112
Be 7.0567212066122895 7.824374712654145 10.855625838837337
Be 8.367579599795095 6.977534001680553 9.362474490650326
Be 7.262115976637884 11.514564368763628 10.781447265958507
Be 7.778494422521467 9.926878439385629 6.219525057724363
Be 6.447557140250207 9.97887854311877 7.796915332205203
Be 8.307344410766117 8.333126136463553 12.439689445656244
Be 9.539030464029679 6.885652412215136 7.597993706822927
Be 9.463516186337369 7.1656882898811505 11.249337939018837
Be 8.483699053455304 7.810856764408479 5.880712740863327
Be 7.783393711797682 11.612893674410568 12.796192234922604
Be 9.249863751973 10.585778864503865 7.5191576855487705
Be 9.580705922666402 10.372020031073385 11.71150730110395
Be 8.955469956906317 12.704129043134985 11.451431621270695
Be 11.600399769197018 6.672314000881114 7.688986815305747
Be 10.705526654536788 7.3576529215167525 5.953989160755982
Be 10.37444834135964 8.768478563120544 8.428888510372248
Be 9.980564594009817 9.19385736913667 6.263400630205108
Be 7.719693238205316 11.889308808953961 7.511904131911342
Be 8.33550919365525 8.735354010129415 7.958100910455941
Be 11.975256124778277 11.95543871198402 8.933969888665702
Be 13.601948744033907 10.98483609321666 9.882290344015995
Be 12.30634474654212 7.761397165063806 9.272760152910118
Be 7.439538390440244 6.729389027128859 7.4188494467635975
Be 12.03284918507834 8.589416164268457 7.097268759411313
Be 6.53588488372576 8.275442151750658 6.609668784291114
Be 11.257969772664895 10.635519478707511 7.39469011443481
Be 10.525397755483631 6.700500726822193 9.549321229941066
Be 10.832604291970807 8.98377830704158 10.568407399038644
Be 13.52825245098213 10.78595753497065 11.882854817383821
Be 6.4479631736547605 7.9909701599598355 8.790610189758658
Be 10.064192746865592 10.714938485705368 9.465285272430082
Be 10.079685073233733 12.396202567032708 7.992264850404177
Be 11.74331815198725 7.376544071454879 11.360359187056192
Be 12.17322291024928 9.796971477981645 8.989971974167428
Be 13.119683416052595 9.070890203940538 10.74101524028906
Be 10.594103174328305 13.014252881328638 10.019326799916435
Be 11.556380967452927 10.919380274977023 10.901563427384026
Be 8.708538073376884 8.997697017294241 10.233332900639883
Be 7.924862546005004 10.588649614204495 9.097137025338672
Be 8.607784750390918 12.563233463774921 9.37961010389013
Be 12.676441447381732 12.631270921319246 10.938099487023331
Be 12.139820023443693 9.332840666207085 12.52670604193557
Be 10.284827144634408 8.354540680226176 12.763880211252367
Be 9.7651320006043 11.896119425630147 13.346906331237161
Be 6.367329843200156 9.632913571031036 10.060306740189723
Be 10.709643050244422 10.141607737790464 13.780886372485242
Be 11.948542102416186 11.555859851882193 12.96912291560426
Be 10.902521715977278 13.038486656454367 12.042652254245828
Be 8.65112926915482 9.97125865902703 13.60262434991237
