5
Energy = -7.33409706 eV
Be 6.261767109955215 4.792793008064913 4.3306739993090515
Be 5.02562695247843 6.285423680666671 6.9816107595633605
Be 4.618292429334098 5.8886212709816075 4.981375802781439
Be 5.694824154195051 4.539401562657523 6.243210910770326
Be 6.411753214720092 6.503001936429589 5.471588919414537
