5
Energy = -5.30764528 eV
Be 8.03748521284832 8.312483311746206 8.52722725366019
Be 7.014064611048853 8.447568226594584 6.783626613512218
Be 8.95286199087555 7.71641446394081 6.843511220046792
Be 9.94425966332511 7.630673895670128 8.663195100611732
Be 7.05361740619034 8.895148986336679 10.184728696457356
