53
Energy = -158.05651865 eV
Be 13.759461712671445 9.517212091188243 8.043366678518192
Be 13.770412775553874 11.437723049667431 8.633494664639768
Be 13.687632625278596 9.899680261552806 10.151449486564868
Be 12.62231397700717 8.229932708110598 9.17280724728825
Be 12.888216623052354 10.196136788304658 12.16654156792082
Be 12.880870564208237 11.758726702223278 10.500396440631413
Be 12.650290323931156 10.87319005695608 6.87953019176504
Be 12.965846181319893 8.301816790605907 11.188460000000378
Be 11.802689840695557 10.379987595062026 8.911602813167878
Be 12.017759089921897 8.826744344646979 7.109074281773723
Be 12.058016880016634 12.582054196334342 8.57713629202418
Be 11.453319394277232 6.996339993540406 10.507662086669981
Be 9.54643923745003 6.09377093753165 7.353511917226117
Be 11.202784876741115 8.338259776008622 12.257665533560282
Be 11.09343207691202 7.204880110604727 8.213672096233465
Be 11.260860308590873 10.199163200683259 10.94201523525926
Be 11.663994536012892 11.969730656192365 12.322184810500508
Be 10.92494609679165 10.21351516687871 13.278481063464962
Be 10.170331815171108 7.965509482864648 6.379696162158068
Be 9.670633694491036 6.35463172685869 9.486664847104734
Be 10.948503396772532 12.544747152855583 10.382078950106777
Be 10.858072346305137 11.73704934930285 7.143631984243605
Be 9.577835296664158 7.282445005447891 11.51407343115358
Be 10.637793781950796 10.054222683802983 5.980327275722165
Be 10.305613718185034 8.645395811011 9.714071097542464
Be 10.100476018060084 9.633491887704471 7.876772558060831
Be 10.256022012745023 12.261468245810367 13.782392652578569
Be 9.295064735851978 8.786357489501498 13.133172575364533
Be 7.616769360592956 6.417605551543704 8.302105239010167
Be 8.18029896769558 7.192708621585285 6.3242946841066185
Be 9.611821116068176 11.205005770747075 11.763750928002095
Be 8.958140910027677 7.943029835036084 8.17520086948771
Be 10.060062357294271 13.38018600024404 12.157555962689838
Be 8.956305362504715 10.700978418096565 13.903217089848077
Be 8.929682947817742 9.373906236718812 11.080248128988368
Be 8.15226340915639 7.599725838958563 10.088015250958096
Be 8.855235904156745 11.27863672661544 7.176287827376663
Be 9.707597057852402 10.853962581509478 9.622796092091024
Be 9.840728010914917 12.790012490730803 8.564932288395058
Be 7.560975982861943 8.066701789471463 11.995981213701542
Be 8.4384646015387 9.29760855606924 6.509461643970535
Be 6.277278576218586 7.750948920597823 9.462428730286387
Be 6.806397674575606 8.332237233582724 7.511876554214759
Be 7.5595276358645345 10.115910654042283 12.577665991470049
Be 8.0275634217648 9.671647799756228 8.960200936307524
Be 8.247647831235707 12.364598943771625 12.726210564297949
Be 7.715233210759854 11.1808666692299 10.798084089852905
Be 8.85290750805825 12.872151886955626 10.515669049899305
Be 6.525969186748801 9.420261455986315 10.747710784746856
Be 7.910579195679744 11.994559297977023 8.821426619797586
Be 6.809904103083066 10.581688460344129 7.422944550212665
Be 5.552736034151855 9.46793777822758 8.710164018152728
Be 6.146342581608956 11.166524363274224 9.461942174366369
