51
Energy = -151.53371848 eV
Be 12.322294715745814 15.261862562195263 11.408292468676585
Be 10.221902839740055 14.756965378325122 11.324261996373815
Be 9.814561747482776 12.614985170940988 11.193372174515035
Be 11.551050923745578 14.518819739114408 9.576690979118206
Be 9.345877766752425 13.770326585550265 9.480311198676366
Be 9.148235409317785 11.891052927823392 8.341115356115658
Be 8.257637129459752 13.94911675634667 11.296512001169177
Be 11.02065100939015 12.449266908969182 9.318526110554116
Be 9.773289007661482 10.848509542030314 10.038678112186913
Be 9.845479957459284 9.784360693402416 8.231864550242985
Be 7.962940568573503 10.31375732833732 8.933485202015493
Be 7.894240210216 12.174100428175299 10.075220164379024
Be 11.862132623919374 13.295920160998762 11.265941272339479
Be 11.503274365349322 14.370084572078879 13.168568295025388
Be 11.017150113508109 12.24684431438408 12.940275302036367
Be 10.680267148682724 13.130817860645779 14.709195384977516
Be 9.73063860828641 10.741355626245207 12.17799942978836
Be 9.339346277751744 13.646336979170595 13.102922169915912
Be 7.887287574441287 10.167271551420688 11.043060312575927
Be 9.101751582556185 8.697143456791581 12.143689824019168
Be 8.050306337692078 10.136022232940963 13.224028688216134
Be 7.956202806314815 12.061609842927778 12.300731882571782
Be 9.248259023534898 11.660674133817427 14.127736669358919
Be 9.063653046022479 8.74831227616296 9.878187536867596
Be 11.22668970699054 8.384836398564032 9.159093349714317
Be 10.843781244081583 9.271332892731998 11.019028078664098
Be 11.363250780323431 11.330595313971532 11.141970413908485
Be 11.691121646119205 10.210003525322664 12.821475214776761
Be 9.947794832675674 9.504370333363271 14.002660239328366
Be 11.20742891303715 8.134370517316743 12.812037363766947
Be 13.446422201410337 10.59654591095807 14.067789257027895
Be 11.323058920462964 11.097645783317315 14.778247455327937
Be 14.837597969762145 10.521126552894996 10.045760592371346
Be 12.724090847534171 12.751854012885767 14.212673247348063
Be 11.993218507859915 9.09299588255036 14.50301711383934
Be 13.34194286341182 8.71805255324077 12.840558381050661
Be 12.529594339643657 7.909558585889855 10.953271734557616
Be 12.984343421065404 11.781222419689279 12.260632159584375
Be 14.730605433253107 10.391735262673041 12.275999115034812
Be 14.617531553381415 12.252002023151341 13.380003917893516
Be 12.88205753493815 10.0228214908481 11.062026912502455
Be 13.356379065021182 8.998503287807878 9.252267507778027
Be 14.492981612950047 8.649125244136911 11.038779665186318
Be 13.607813729835993 10.990097485265208 8.361445167994225
Be 12.904609958402524 13.15664017256921 8.473287846077294
Be 12.982843561788963 11.915643303248666 10.130300622225722
Be 13.60640389584959 13.889028007308438 12.480724604988431
Be 14.833943709206943 12.402972615905297 11.242828160926518
Be 14.757166316625357 12.533383383736117 9.145252819101433
Be 11.708247631194979 10.427821214388528 9.209889330409421
Be 13.703382740865448 14.07293183487795 10.271046609490849
