55
Energy = -163.88916346 eV
Be 10.795418285786209 12.136787326845168 7.884840239023814
Be 12.505352348642505 10.845733051153019 8.0811780842337
Be 13.607680228270098 13.91581686873897 8.917828085910743
Be 12.590669408426237 12.9370758320773 7.404162322022718
Be 14.248138678822837 12.012903998135204 8.133164528696753
Be 12.14292002026618 9.153678366047835 9.520206143035256
Be 10.108757076892482 9.130905907464879 10.27509375284479
Be 10.886397497350575 10.86984253653241 9.546986462177399
Be 11.215821192397142 13.938505762997087 8.757530356741619
Be 12.420707005140319 12.343183180367902 9.688446969588599
Be 14.696037058088473 12.312962795842353 10.104478928034395
Be 14.456086549095781 14.338283453652823 10.923668498199344
Be 13.616201686971905 8.893050532462738 10.94251694775162
Be 9.698530871619722 12.612676055278017 9.597124279621687
Be 12.2563164675687 14.349946237099887 10.590127864911548
Be 14.004144571935852 10.440963813100614 9.519481517001758
Be 9.136990295283452 10.938581470561635 10.845999177416418
Be 15.517545404312319 12.817043305146811 11.991954317978493
Be 12.500790215582603 10.725794779403556 11.042185776790719
Be 10.06819479398858 14.353607698807604 10.590872108176937
Be 10.765405562554708 10.399533961321355 12.192101999692726
Be 9.546200474943973 14.661241019767516 12.62826242734042
Be 13.113920878218087 15.34694664860433 12.355908238939826
Be 13.290396144816242 12.69536955126065 11.64942830833377
Be 11.549430706316972 8.405649316667072 11.488490569733992
Be 11.122732669303128 15.638343877267639 11.76032741651701
Be 9.226819614522373 9.07138383468295 12.218336789111175
Be 8.860496934143912 12.897638038942905 11.543779791454199
Be 14.53228541409177 10.804426751397918 11.791109500727828
Be 10.270294105155848 12.182363844487494 13.247864338279268
Be 11.123110743772461 12.39820566408605 11.3294301507902
Be 14.981980648307397 14.635407320160425 13.036877203930961
Be 11.256903132423654 15.592222623166839 13.801430424782614
Be 16.3665644124502 13.211526781407391 13.807378430531301
Be 13.345183779613052 15.040277960813357 14.393130799482599
Be 13.910014859336542 12.759162388291614 13.678600209487517
Be 10.91305149047364 8.775883418181484 13.60260161265902
Be 12.314009568217994 11.478745077973734 13.160487048577336
Be 12.663691208402936 9.345170521696021 14.761885376529607
Be 8.375050184765257 13.10552469493136 13.561569763133551
Be 8.405294363566425 11.133507183038057 12.785051077757773
Be 11.879892133088745 13.633084410284559 13.115385445076297
Be 9.982392528317902 13.931140953088992 14.564406148867413
Be 12.823864507207631 9.438624867876744 12.765935970643032
Be 15.99784819402943 11.347255992807012 13.329061849054828
Be 9.256374700816796 11.796392128700804 14.95566294162591
Be 15.132304824792241 14.101271399654452 15.090671281045926
Be 11.754447968934702 14.4930400372196 15.481594899735107
Be 14.363174838888455 10.307792789541192 13.922002708007136
Be 11.446663026550489 12.48090590051773 15.089213104186127
Be 10.971703706067265 10.446506426675462 15.032364632725436
Be 13.401243808845162 13.266803583045062 15.747015682998754
Be 9.212559736740323 9.853975419647819 14.164347553067573
Be 15.184515629638799 11.946735813418375 15.18975564890398
Be 13.109964414842672 11.233083398259184 15.323170866711
