5
Energy = -4.11728444 eV
Be 11.290079697541685 8.567636866943046 10.627733476771157
Be 7.600447466956942 8.95890071434025 7.60128149494403
Be 8.861203071765512 8.642559304916391 5.912166480864627
Be 7.334334164035685 9.137657064622493 9.640605000348845
Be 9.202853089466121 8.982163538943766 10.50713103683716
