52
Energy = -153.55323274 eV
Be 8.871209047721916 7.323004675782442 4.594169938238866
Be 7.2821050994741405 8.706142472745686 4.101519462134276
Be 9.089056107647247 9.53022281758197 4.861990969150147
Be 7.056459807545702 10.37845514618504 5.3960949514328105
Be 6.741324461744734 6.8794405595718064 4.937959000617893
Be 10.795443848445421 10.20987005465075 5.937314014150632
Be 10.392006617721565 6.024062727902137 5.402216451212978
Be 5.594318096666068 8.68967204353927 5.4561856079430475
Be 8.413262265974083 5.440567485005226 5.635244432329333
Be 10.725300683958778 8.11625079906293 5.544423081034984
Be 7.671719901189105 8.380860784444751 6.091396178952173
Be 5.0564865308428 6.839301402313894 6.518360842768051
Be 7.491490923990888 9.924774920333913 7.506658970607868
Be 6.930031282514023 11.822582304714173 6.957985474097689
Be 9.414029161987184 9.122255605646231 7.002245495632611
Be 8.905811760623903 11.161797103147146 6.377527287571626
Be 5.400215267441397 10.336387591227346 6.9483953453380085
Be 11.344641893300995 6.682510346850306 7.186637507015448
Be 5.687261286677558 5.371848259306268 8.190320387611889
Be 6.107986952059126 8.344965515596051 7.556248264986547
Be 9.863917087659287 5.013555206983794 7.23244970075259
Be 11.54391593827916 8.888295835643431 7.479321462693692
Be 9.218710373985193 7.045587475820896 6.736578496101579
Be 4.142245338295259 8.629384680006682 7.049719261596492
Be 7.75867731522203 4.511301883372369 7.64574703494575
Be 7.054818448187851 6.356985804865282 6.943155662837937
Be 4.566585003228612 7.220412735003484 8.628782185387017
Be 8.61813142196184 6.184191934810439 8.60342857489971
Be 10.423452563421897 10.735979908758157 7.919013096760019
Be 10.00170099257173 7.764001914465177 8.552504118711559
Be 9.179517500176749 4.2873061323135255 9.15223071652259
Be 6.695770137782384 6.986952289319491 9.107207687248028
Be 4.764400630589953 9.42603484568541 8.922294195991647
Be 8.350170214418192 11.598885327223096 8.465256946673401
Be 10.70929059644517 5.772795408824152 9.16098066253504
Be 6.244693054070463 11.09590486401565 8.877586261917488
Be 11.967578172414639 7.479607025978843 9.05908517261052
Be 9.054793641107521 9.752473111757999 9.166394727150955
Be 7.204248212284206 4.946942551419225 9.73308244051695
Be 6.889657214131568 9.063559542926367 9.373007694413857
Be 5.314270675484261 5.898822743253327 10.172303331436485
Be 11.053657643939552 9.27032556237542 9.589743163560959
Be 8.437627898923045 7.7294342897674975 10.017976716391512
Be 5.383779468376717 7.992846950585983 10.564877424506882
Be 9.053490325070035 5.7316586377770795 10.713804872885976
Be 7.694611623351372 10.668987546124459 10.473997960586617
Be 10.515078180114298 7.421209787335071 10.65282385531142
Be 5.716281693292975 10.084702683783334 10.70698916138557
Be 7.020743874995212 6.57972283072667 11.247942062929406
Be 9.368359453356462 9.231281153487314 11.171334375857953
Be 7.237549135833393 8.786851166859712 11.515138744013653
Be 8.827709945417393 7.4046203250376275 12.007943339953988
