50
Energy = -147.99512243 eV
Be 11.78664834924637 10.56879602882486 10.814755144888565
Be 10.617942944032897 12.419236666911816 11.023702205512985
Be 13.336545603648652 10.286365898908278 9.247647923643102
Be 9.958774608659168 10.551145943232855 11.974396435820148
Be 8.990419931949669 13.027502682975966 9.655754328660228
Be 12.40846351850241 8.615289203195612 10.360178519244288
Be 10.289360183437825 12.602579254927011 8.058923245090908
Be 11.290927529105964 8.959488515915394 12.060887381008667
Be 8.517373285731663 11.964677238449438 11.379904500893993
Be 11.849939991662385 11.904546203473062 9.238757484031819
Be 11.45795955757679 9.736427128665076 8.662136114347287
Be 9.869779682390536 11.059080109774081 9.83188150754517
Be 6.587185214594101 11.492141656880012 11.73307346495765
Be 7.941499721311328 10.117639777481918 12.850772309291683
Be 8.242730080477985 12.409076005116233 7.760361990304082
Be 6.918648138961282 12.551044978228937 9.91452155830743
Be 9.320633669032672 8.448810438284863 12.276186427568776
Be 9.667443295989703 10.461733433548341 7.894240219649788
Be 10.665031842975505 7.128039657626574 11.106378364321825
Be 13.27858175032587 8.248869763430406 8.494103875737565
Be 9.685457620573468 11.494490605953679 6.218083987892815
Be 11.77539260434888 11.424652846952798 7.20843820281735
Be 13.054378252024517 9.720220002430825 7.1335431790481225
Be 8.096482438249659 9.809627408980413 10.836136662360563
Be 10.116532773976159 8.97281369713143 10.117127047619674
Be 7.9355823580529075 10.978791866145224 9.173968607634617
Be 7.269836939825605 8.031770624733763 12.233751912176333
Be 11.13122173339942 9.696667083938225 6.319645526023808
Be 5.992104295834734 9.580848635873151 11.967967502557304
Be 8.368918650309606 7.776559042884017 10.554669108965808
Be 11.577391564135372 7.178955685008988 9.132911172225864
Be 8.862206469680974 6.027267249887972 11.452701077914965
Be 6.261659154621481 11.464890828148075 8.145313497343507
Be 11.948064162765961 7.709334990718488 6.97780029306177
Be 5.865289954865285 10.541071670814341 10.010273213308647
Be 8.398062236094951 9.010322899816881 8.843152582004507
Be 9.448696119820355 7.136533209679456 9.080193534030117
Be 10.127181002162411 8.414088005555397 7.745123664837448
Be 10.259131333777283 5.4553384960823355 9.848931284409419
Be 7.679774394377815 10.416779122383465 7.002379140654889
Be 9.158633029058638 9.381671682539375 6.002804192585634
Be 6.3202092412041155 8.461832076007322 10.251435713147533
Be 6.810535788397197 6.449462060663586 10.79881438792307
Be 6.356223768718045 9.309164148051785 8.282700432497494
Be 10.613871708966869 6.125210555932312 7.649407719560144
Be 9.798225196170959 7.279263643969568 6.1328753193834595
Be 7.12472313373711 7.16940116199315 8.754846871936026
Be 7.875323250075616 8.129404815563955 6.968970606980231
Be 8.153563548041515 5.490014634323146 9.554372584238134
Be 8.537385222817655 6.160661966456419 7.450295249616078
