5
Energy = -7.34943953 eV
Be 8.880803277109111 7.871545392079525 8.950192581432376
Be 7.641470831227173 6.461492056610871 8.206890067555651
Be 6.830746533464543 8.306646797153457 8.008301443145976
Be 8.35630466297086 9.635933193918701 8.12593285321237
Be 8.492127498504278 7.905549067765221 6.959411543411648
