52
Energy = -153.62291099 eV
Be 8.353470551329352 8.373135809895718 12.285499915196429
Be 9.082044490458658 6.583534158320597 7.648247609311349
Be 10.259380196002258 8.3459276965537 8.803158944212887
Be 9.673523606622497 10.171286359934737 11.936818388353284
Be 11.436219699390088 5.352400861897416 10.013313669943487
Be 10.369393312547194 8.400498728930772 12.841936816088314
Be 11.421723531937578 9.806549858308072 6.550258074175923
Be 6.271914787493668 6.623609163255448 9.77807330733054
Be 7.587866388983652 10.731723768044537 7.249632277107845
Be 7.6074508764191515 10.286003337859341 11.318849569248702
Be 5.632429020852931 12.262746974490922 7.364475227398373
Be 12.247135582629618 8.452741664127291 7.897468723691366
Be 9.550683629132747 6.526144506277253 12.392949000844737
Be 5.550894409931808 10.419034808902762 8.183764371436038
Be 6.720285953854751 12.113506819694491 5.42463181691907
Be 6.8314249552740565 6.933593941507265 7.765710581464058
Be 11.764069220888748 10.117044610189028 11.843216937208865
Be 9.453963786653057 10.006403415621762 6.0133655862718145
Be 6.772934795128634 8.448994980195597 10.805651792099264
Be 8.077479727756165 7.668723607353169 9.181365751555969
Be 5.843264083180329 10.281155845189373 10.204069075204195
Be 5.516744042625712 10.61766788048065 6.094773373492235
Be 10.784838016073136 11.895351086820659 11.277795491619557
Be 7.452959752290518 9.713207356350248 9.036089105820245
Be 10.802818132971508 4.919386130846277 11.939099124268347
Be 8.302308814365276 8.561547222748995 7.077284543552593
Be 12.631980522813507 9.3615494660791 9.864515551456629
Be 12.095730794279685 7.302732155823588 9.69794884822308
Be 8.996102972434764 9.065345747343473 10.303084333760397
Be 9.449277259148849 10.174387912341507 8.193328725564445
Be 10.376854973242565 8.045357788377306 6.671284038672855
Be 11.576317839303261 6.781353859262339 11.722595794207084
Be 10.629952668941755 11.674641590412707 7.010232831243043
Be 7.03054988294863 11.874776953558925 9.05636565787317
Be 6.2253007520782315 8.870891074797838 6.973617385589676
Be 7.350372382182391 10.020620713855855 5.348729896965575
Be 9.834528721314019 4.961088339597485 8.741255637070681
Be 8.764492066559889 11.943795714198394 5.93472860287862
Be 12.174247765542017 10.703068506871746 8.22833137029911
Be 11.12826413145617 6.512089381558799 8.067142262424406
Be 12.434965097220257 11.402982871468524 10.248108207949256
Be 10.909355335736011 8.497963207088842 10.908066779464956
Be 7.4337074449127725 13.100518962064447 7.034955435807509
Be 7.938644176038025 5.59273288277037 9.16837391610456
Be 8.957990219773821 12.286043334581317 8.171918746348588
Be 8.945658676740237 11.394132661689438 10.09801687534864
Be 7.847607856454868 6.558047269001919 11.16663696067526
Be 5.664548690908843 8.404554496649618 8.935830900637747
Be 10.86283503623223 12.181277743534727 9.092220989337646
Be 9.153886765354377 4.902351105843141 10.74801711571566
Be 9.82272115809895 6.822397172292115 10.078672401904328
Be 10.681931661425402 10.238424711075702 9.893567876597226
