5
Energy = -5.04428595 eV
Be 9.955925893073212 7.247422073481733 7.193289539790546
Be 10.33855723198129 8.84774063883413 8.26316948712547
Be 8.408073489809208 8.085450048750952 8.292394012117077
Be 11.893656418130881 7.9352164268528265 7.29788894408349
Be 6.7238447055626365 8.498901763666545 9.45995024969905
