50
Energy = -147.18466034 eV
Be 9.403412777814607 10.371444220861974 13.861560676779964
Be 9.013500678846437 8.630921752317986 12.755542659931704
Be 10.772534537790019 7.75372330920798 11.714516312769938
Be 8.881010852300813 6.782134576593913 11.65612958541965
Be 8.378679136734934 12.028413305220571 13.482985650793319
Be 10.574752837971692 11.927711287473505 13.05740535338654
Be 8.889580307831043 5.18601343384826 10.32023761963071
Be 10.824839813148825 9.833945294524682 12.427857108587522
Be 9.267041424858538 11.153862484824334 11.583730276551979
Be 7.372564080636623 6.574420797673443 10.109373363065359
Be 10.766416791655285 6.006086596378205 10.42346253873376
Be 9.194807876032757 13.33478226794873 12.232236740541516
Be 7.579378578873289 10.223246496437227 12.719166342635033
Be 12.234082374155891 11.299085993946415 11.77371820863743
Be 7.418193531953753 8.327263338542032 11.42332041177548
Be 12.39547134236527 7.246448427461885 10.454798452421505
Be 9.321860526377677 9.281428834423297 10.640873854845905
Be 9.397070090289994 7.432746838704786 9.636730629235997
Be 12.387678002533184 9.126256920618019 11.264015696324913
Be 7.418394785286142 12.269701933478043 11.644053572008595
Be 7.81795945102614 5.1660664647401076 8.653058623414761
Be 11.641115706695496 6.9287988911558935 8.536993367017015
Be 10.839123971689821 12.808863174676842 11.069258555123303
Be 9.83786344867174 5.724472561230406 8.454529292970822
Be 10.911700691734849 10.690024019188275 10.329960850849421
Be 13.097191184897756 8.623751976908617 9.035828163255639
Be 12.34876354836611 12.154052337992646 9.585578176966976
Be 7.323979305410542 10.368041008247735 10.57932952606751
Be 11.070878341681382 8.75753027559812 9.451374653330241
Be 8.086232583611736 7.11927310327489 8.002806582561671
Be 11.827160859922191 8.81440054135069 7.284346896617629
Be 13.287876144895804 10.426128170732254 10.055255575937132
Be 8.806790142940363 13.253979419678375 10.209735244359878
Be 10.020607805161559 7.538247619415454 7.291877801901675
Be 7.354017745856196 8.52122419295232 9.31287537915283
Be 7.0995732907906 12.25094564249424 9.438692595781463
Be 9.038034453787647 11.203802018807798 9.379848344615855
Be 9.238671167027082 9.189988023542536 8.500033953888165
Be 10.531118839459115 12.939432506469448 8.95541902469466
Be 12.916132942741886 10.518172942177795 8.05494227923183
Be 10.768145218622488 10.715059035761259 8.189741425672835
Be 7.255730531417321 10.356279068398088 8.408670723891666
Be 8.631649614647023 12.937764169186694 8.092058790549249
Be 7.948369249073985 8.97895372013086 6.97042221865646
Be 10.027033666170029 9.434843623008272 6.404877896502959
Be 8.809529385549903 10.904924532659543 7.113789497782377
Be 11.58792749921208 10.841324634289279 6.304051526733649
Be 12.077317843836207 12.420913721006247 7.555188556017206
Be 7.097257323101202 12.009732867488397 7.296324052239187
Be 10.1949166879075 12.40518502376265 6.756486700794258
