55
Energy = -163.05842347 eV
Be 13.735833547666397 13.938047477404329 13.253196098784064
Be 10.003760653296473 10.481148955822901 12.735201791313454
Be 12.80020906442648 10.036196382990116 15.291942068665943
Be 10.50297609643024 13.620826395812612 15.015024845434882
Be 13.480839508097107 12.023176268125269 12.02904447398761
Be 13.823159993853812 13.53911797393941 15.414691934507571
Be 13.808919486839702 16.155256208054112 13.911594009282231
Be 14.052973738067799 15.62367755858044 11.886353736162418
Be 15.496192939759828 16.022100813016163 15.10574765314561
Be 13.761120724636307 11.772814423302025 14.138255769931323
Be 14.162571515557056 10.02099870593595 11.323335427788457
Be 11.978830539830067 14.291563431097854 16.54769171308994
Be 10.307592194433377 11.512339091377529 14.824123798132343
Be 14.998551144263638 13.797521224784544 11.547564251887016
Be 10.810899223541352 12.648828819426484 16.77699728065956
Be 13.636772063454975 9.617904706727682 13.332735118110456
Be 15.577446327183589 11.758219677644291 11.222318200460107
Be 15.684926884875765 11.927810130268485 15.137687487975796
Be 11.935385802315196 12.905365885514406 13.497507112514057
Be 10.369382911713098 13.435537339719458 11.335942895805328
Be 14.808056738140865 10.02037535059124 14.952555557360501
Be 12.0156764024833 15.113893839938742 14.584201836218668
Be 9.375831198536819 11.704090145823297 10.870037955003212
Be 13.60180257251409 15.678951375823372 15.969320783035066
Be 11.87483664784694 10.794874795413593 13.637745524823263
Be 12.195499907765118 12.589482137416281 10.041736891676205
Be 16.1042934471688 13.991639528126292 15.174024146834586
Be 15.77277332393961 12.831342596955997 13.238382047111278
Be 15.197431502065877 13.153937780165965 9.605246128465312
Be 9.935333505730592 13.338282316027367 9.403347949506355
Be 15.571877172698875 14.999443379057968 13.33886454352755
Be 12.4835937770313 16.118453864682383 10.593665595740832
Be 11.72310053464666 14.536667855330334 9.405446080471087
Be 15.348055164235372 10.773207675350532 13.056034516158235
Be 10.651649897649945 15.394381954379654 11.036112835836894
Be 10.483004264654664 11.325744474025345 9.091508422279489
Be 12.404821120430391 13.980019517080327 11.609922660372868
Be 12.360390257187085 10.424106998546662 10.065232175605104
Be 11.368131015443591 12.942012545052965 7.960763672328998
Be 12.076807917565663 15.984504411574077 12.63379172669795
Be 10.42157310594381 9.974542340658731 10.69275509914566
Be 12.521097857803682 11.361933354539326 8.202803506591664
Be 11.412917587438706 11.669493572157632 11.72777735261303
Be 13.798954213930578 14.621581540925186 9.973363322660715
Be 13.420437934780352 13.240474358621299 8.379262575872751
Be 12.058189903773421 9.582635836555816 11.965617318322128
Be 14.155902418141391 11.416736743777484 9.663118611996282
Be 15.198771633397037 13.001886419042533 17.044920288842185
Be 9.776452194684307 12.501194814886029 13.098572051521549
Be 12.222507773154486 12.008171772420834 15.522359850485183
Be 15.511050971700787 15.035673031106533 16.85676377789735
Be 10.633228357951515 14.541553258685111 13.067880106747493
Be 13.773785064824779 14.475478281918576 17.683203300914215
Be 14.111739435120013 11.336437832972551 16.34730677443532
Be 12.93827022884163 12.644532240290756 17.415588754728827
