55
Energy = -164.49883503 eV
Be 13.848535733794588 12.902591317468385 11.340780665554004
Be 9.97072897058294 10.55754347629425 14.502822860539803
Be 7.198504190230959 12.02351375910617 13.820792703530818
Be 12.57971790741517 14.686821532136241 11.222461252328554
Be 9.859972859449714 9.29483293397743 12.923170360270726
Be 12.61593069507789 11.1060188439371 11.546239012356912
Be 9.58424344111737 10.018741864184278 10.907508157681033
Be 13.565676127379257 12.589177787125998 7.834040314616509
Be 12.271090682780345 9.097065650554557 8.315844979968281
Be 14.681021998694373 10.892304667647375 11.242523371158985
Be 9.770573468369705 13.85988378100848 9.327616269342522
Be 13.009721210519087 11.80088698551959 9.634445693257117
Be 12.882703036032648 7.666700301907305 9.876418255035052
Be 8.5390542079576 10.624416575219996 8.892337029671516
Be 11.478913286227336 6.826268516739201 11.144127666845923
Be 9.336353309105126 12.537264997620582 14.234351156485673
Be 13.399133559365536 11.516337173103539 13.343209325616252
Be 8.231863902738567 11.250364782799064 15.398512170502805
Be 10.202988863829646 9.66853861883843 8.293763947185916
Be 11.21967035651254 10.796260225087185 9.88400296024365
Be 8.687920592680305 11.255047609956362 12.474069537849898
Be 7.999585389670951 9.844437443130484 13.930997758102349
Be 11.546453147338154 7.858276110442715 12.930142236592738
Be 15.455866562828492 10.160233556625967 9.470072871781912
Be 13.32603144713847 7.360226708203793 11.877580021322318
Be 11.46404515654894 12.909822326235403 10.68639504673915
Be 13.562205600373701 9.368865250879626 12.435788806028004
Be 13.441426721508234 13.874097996485935 9.511053553245567
Be 13.98926474373227 10.539929057429495 8.034968469449298
Be 10.424208750823123 14.910974731909187 11.070340765077034
Be 14.36470740320448 8.609418149617685 8.768769323612851
Be 13.225511402682994 9.81975546654513 10.047005433419736
Be 7.8913638638178085 12.565636734729525 9.443711482584815
Be 12.207197579492966 13.082181080654932 12.653081637395642
Be 11.66032797285105 14.979303988272907 9.469457560244573
Be 11.558187165904771 9.238404747379336 11.375685578390083
Be 11.451531353578421 11.976414870468114 14.206999911051838
Be 9.42803844392457 12.054809851396579 10.65672653787781
Be 7.112905121722858 12.500828555238552 11.536881637410861
Be 9.739382391147162 7.874657453953703 11.430146825730473
Be 10.733036561345283 11.301824922087794 12.17672740310751
Be 10.772935144596882 8.03114776324011 9.522648926605134
Be 11.868442810744268 10.023978377518036 13.454000744388496
Be 7.469934364260418 10.67578937954459 10.565246404214435
Be 11.65391721005635 13.168422675005846 8.49280649777129
Be 6.662947255844336 10.55158894646378 12.46413663655355
Be 9.946326341005722 11.96421188309244 8.40324827885722
Be 10.085073647774351 13.311769084055838 12.397016943370886
Be 11.934615687361244 11.141103171683701 7.8374678385724454
Be 8.465064022086866 14.012974416385132 10.958967375860077
Be 7.991654870036334 9.0723630201941 11.87676708794149
Be 14.985092080919829 12.198177934721743 9.505082111520158
Be 8.652367245554542 8.667761279466939 9.70535761909174
Be 14.732623274854 8.59278222011715 10.840022337750987
Be 8.113494138762238 13.637278067331467 12.955678338513765
