53
Energy = -157.71901587 eV
Be 6.904054670673663 7.4897283448113345 4.1979152717371395
Be 7.851639192208232 5.777307519489927 5.175849895211783
Be 9.115712071768268 7.188654385953654 4.277683371183764
Be 6.4888412422323904 9.807084733173177 4.802224311320887
Be 8.23108633170831 9.107999969369974 3.933337090934807
Be 6.702311315368116 5.00634628793816 7.027496590012266
Be 8.58729706071794 4.328928051368279 6.559617909554641
Be 7.994831698839575 8.21574044060579 5.915167576162455
Be 4.0100844292426325 7.083189000471612 5.879030849793457
Be 10.043982800019256 5.514918699997105 5.609004840101109
Be 5.660722647900091 8.282012156153927 5.7439624639356035
Be 10.863722848100606 7.34859347223534 5.345743027076437
Be 9.893273311082034 9.179083683339265 5.201057087204287
Be 4.950368627825185 10.114156975732453 6.6741554042561075
Be 6.427754067999697 11.440903093257564 6.056017713695824
Be 8.294943195850628 10.67533524157623 5.391985194383252
Be 5.8322647338234335 6.1635684103513135 5.515404477782321
Be 8.765312128532326 6.450214785470208 7.063211993912208
Be 10.553140675956394 8.383935238197505 7.129763782393301
Be 6.914341856020196 9.516262712546913 7.199398937216876
Be 9.311344158600177 10.058062330996268 7.003344442718074
Be 6.6597759516616275 7.234307653275737 7.431421503443228
Be 10.091554060011852 4.862119102300024 7.8962760783540045
Be 4.613442793110634 8.226831460512164 7.533853695614818
Be 11.295482343795646 6.4163622984812845 7.208124179663038
Be 10.190088922375024 9.536988348680417 8.892955852524363
Be 6.121035043689252 11.374934990172957 8.215749604329453
Be 8.468694529920455 8.305064086929603 7.948413393094988
Be 11.647891478276938 8.051655307550073 9.14528012885896
Be 8.042214014677766 11.642137739466984 7.338604126205047
Be 5.000206973048968 7.211089209306023 9.261474691100775
Be 9.906762608321179 7.03008810743792 8.717095006444664
Be 8.171831838128417 10.128768816157713 8.846756106877612
Be 4.851505925740739 6.075855567693669 7.424304159964388
Be 11.487648451264882 5.892535499160427 9.287060023549055
Be 7.654473609491197 11.942439977546622 9.461756119157698
Be 8.078362649482607 4.465302049081951 8.577847651943245
Be 5.024292392536456 9.727752732024506 8.874654504941493
Be 10.832297435388908 9.181716672429419 10.770103353790189
Be 7.900840856329994 6.603747122810135 9.146013510327005
Be 6.818380659543365 8.486256303103536 9.277902533771941
Be 8.855300693982008 8.326120047976573 10.017918906858068
Be 6.1161091465348445 5.435964864081853 9.007350551664732
Be 9.541198149424375 5.310299347154556 9.992805958101789
Be 8.741362913009638 10.251131976004695 10.859555088637768
Be 10.559457299916923 7.083253749095185 10.845378899744036
Be 6.513789435048447 10.443325910793066 10.34090296215842
Be 7.523871128447557 5.0830839769746285 10.533441737235298
Be 5.360926087277174 8.691869108154323 10.753430476038865
Be 6.363865190946514 6.80631373154358 10.809173440603937
Be 8.43760039812369 6.73921848140351 11.361951669247851
Be 9.388458103875054 8.540226032168874 11.985232770761536
Be 7.298014800686117 8.714979146026737 11.489604032939493
