5
Energy = -7.34971805 eV
Be 7.560898720453246 7.021947612232706 7.277250736443178
Be 5.374125451218304 6.758672481182795 6.622966967185414
Be 6.668589472948669 8.06916584411074 5.79626723631395
Be 6.468192621640179 5.341619418701078 7.5595206922923674
Be 6.973815454028291 6.003262492498603 5.643701171205159
