55
Energy = -167.33963875 eV
Be 11.677994222298395 11.677994222298395 11.677994222298395
Be 11.677994222298395 12.771757041748597 13.418747478573218
Be 11.677994222298395 12.771757041748597 9.93724096602357
Be 11.677994222298395 10.584231402848193 13.418747478573218
Be 11.677994222298395 10.584231402848193 9.93724096602357
Be 12.771757041748597 13.418747478573218 11.677994222298395
Be 10.584231402848193 13.418747478573218 11.677994222298395
Be 12.771757041748597 9.93724096602357 11.677994222298395
Be 10.584231402848193 9.93724096602357 11.677994222298395
Be 13.418747478573218 11.677994222298395 12.771757041748597
Be 13.418747478573218 11.677994222298395 10.584231402848193
Be 9.93724096602357 11.677994222298395 12.771757041748597
Be 9.93724096602357 11.677994222298395 10.584231402848193
Be 8.221565919079152 11.677994222298395 9.536843589258613
Be 11.677994222298395 13.819144855338177 15.134422525517639
Be 11.677994222298395 13.819144855338177 8.221565919079152
Be 11.677994222298395 9.536843589258613 15.134422525517639
Be 11.677994222298395 9.536843589258613 8.221565919079152
Be 13.819144855338177 15.134422525517639 11.677994222298395
Be 9.536843589258613 15.134422525517639 11.677994222298395
Be 13.819144855338177 8.221565919079152 11.677994222298395
Be 9.536843589258613 8.221565919079152 11.677994222298395
Be 15.134422525517639 11.677994222298395 13.819144855338177
Be 15.134422525517639 11.677994222298395 9.536843589258613
Be 8.221565919079152 11.677994222298395 13.819144855338177
Be 11.677994222298395 15.335064609856516 11.677994222298395
Be 11.677994222298395 8.020923834739941 11.677994222298395
Be 8.020923834739941 11.677994222298395 11.677994222298395
Be 15.335064609856516 11.677994222298395 11.677994222298395
Be 11.677994222298395 11.677994222298395 8.020923834739941
Be 11.677994222298395 11.677994222298395 15.335064609856516
Be 12.822550958364411 8.714336193329217 13.512414003175797
Be 10.53343748623238 8.714336193329217 13.512414003175797
Be 12.822550958364411 8.714336193329217 9.843574441420992
Be 10.53343748623238 8.714336193329217 9.843574441420992
Be 14.64165225126774 9.843574441420992 10.53343748623238
Be 14.64165225126774 9.843574441420992 12.822550958364411
Be 8.714336193329217 9.843574441420992 10.53343748623238
Be 8.714336193329217 9.843574441420992 12.822550958364411
Be 12.822550958364411 14.64165225126774 9.843574441420992
Be 12.822550958364411 14.64165225126774 13.512414003175797
Be 10.53343748623238 14.64165225126774 9.843574441420992
Be 10.53343748623238 14.64165225126774 13.512414003175797
Be 9.843574441420992 12.822550958364411 8.714336193329217
Be 13.512414003175797 12.822550958364411 8.714336193329217
Be 9.843574441420992 10.53343748623238 8.714336193329217
Be 13.512414003175797 10.53343748623238 8.714336193329217
Be 8.714336193329217 13.512414003175797 12.822550958364411
Be 8.714336193329217 13.512414003175797 10.53343748623238
Be 9.843574441420992 10.53343748623238 14.64165225126774
Be 13.512414003175797 10.53343748623238 14.64165225126774
Be 13.512414003175797 12.822550958364411 14.64165225126774
Be 9.843574441420992 12.822550958364411 14.64165225126774
Be 14.64165225126774 13.512414003175797 10.53343748623238
Be 14.64165225126774 13.512414003175797 12.822550958364411
