55
Energy = -163.99228361 eV
Be 13.300952901236968 11.97947771103235 7.485452901558173
Be 13.079874958249498 9.889915288094627 7.724682946501393
Be 11.37262973220966 10.9497759738987 8.395908477316617
Be 13.370210486580012 13.827431952148157 8.512542919210388
Be 9.977617042044056 14.031962299593024 8.908759157438118
Be 9.736936241565639 10.033905695301444 9.292375205640369
Be 13.641444471144585 9.49847116846223 9.650131412750211
Be 11.493291799622439 12.990440774215896 8.054424593426667
Be 14.789651010928909 10.855144362290138 8.290811341229356
Be 14.998803089390984 12.740179335435819 9.283138775097852
Be 11.648978505467467 8.903339608300362 9.200697233948771
Be 9.406543884085961 12.051291767016737 8.283826091286073
Be 11.624093668341953 10.531724903141 10.578105857521036
Be 8.069597452191868 11.15529018312839 9.942355988914418
Be 13.003598084513962 11.76436627152232 9.572466302236576
Be 9.668229490002993 10.613222325404772 11.329428235514445
Be 11.830249311690878 14.133686613746537 9.881564839975793
Be 10.639541466079853 12.212360472860821 10.036612532849636
Be 8.38918008473133 13.199595488178087 9.797560414284296
Be 15.192997304867236 10.898912767555885 10.245200964971424
Be 13.862208006958276 14.015307393742658 10.519758866634605
Be 8.372508612329597 9.145828208906314 10.66594390846552
Be 10.393857923898748 8.675055597525546 10.980357871717205
Be 13.518343259715058 10.495191586697123 11.408946420912438
Be 7.633021249019442 10.485143844403133 11.945911897545747
Be 14.861552283209685 12.456648511699328 11.626065982224468
Be 10.428464616831151 15.242232362580307 12.99216334327655
Be 10.0173196890104 14.008442212749623 11.173924818716957
Be 8.591071258902634 12.388072331692742 11.671812426967291
Be 12.05340286890775 14.62245591935388 11.885796017421795
Be 15.100305087712908 10.636335495292673 12.668184925280988
Be 10.751464012770349 12.09377263615647 12.170030517790178
Be 12.383067743545752 8.610252378355252 11.263719519819396
Be 13.421386361194077 9.14217802663241 13.021701024238803
Be 11.251540199416569 10.05382226229558 12.5722752692102
Be 10.198402367003608 9.619655319731402 14.4997134088148
Be 12.602106986077223 12.610032433338098 11.42326515836658
Be 9.48230190164971 13.381195567222653 13.329181657195676
Be 9.143153102575322 9.066350350071456 12.75461820871585
Be 9.10543536625114 11.185272681876304 13.405103307056429
Be 13.795618857937042 13.84920362402157 12.867444078569907
Be 12.937540070243484 11.430183086756408 13.17939400470026
Be 11.405909477612902 8.210100673335274 13.251699008714665
Be 11.047758327600558 11.448584920076849 14.12250341310403
Be 11.814108507406479 13.221810527010959 13.549730631758436
Be 12.235116130598515 15.164522370543377 14.088200496782088
Be 14.327456531772961 10.268178725550856 14.510663436180124
Be 12.27997036349478 9.742088486477956 14.726827970837455
Be 10.373330934530594 14.595175110134626 14.89952254928466
Be 14.845308632283743 12.317832027704286 13.927443571538856
Be 9.75788284324095 12.591097519393655 15.22329927605777
Be 13.543885599341136 13.720377166106603 14.92160258679599
Be 13.085904552464049 11.759904771470389 15.273201626943623
Be 11.280573104393856 11.07789443913207 16.061784742640306
Be 11.676807673248707 13.221811958727532 15.764667352142236
