5
Energy = -5.60185741 eV
Be 9.598750486376183 8.058548646597867 9.292296246030066
Be 8.908043826693493 7.506655221308809 7.472934042825142
Be 7.324920841241072 7.5047215534125105 6.250150263309694
Be 6.088985710232287 8.337189608737559 7.751567370433241
Be 7.6185972338631 8.381359176401617 9.041584757741795
