54
Energy = -163.30463537 eV
Be 12.918835393372543 12.528837128510437 10.29196655747311
Be 10.807000717381925 11.199915483374646 8.397164271684789
Be 14.839373629483703 11.532003733173138 9.900040894792868
Be 13.055490267760169 11.254378041094704 8.51807682471131
Be 14.058634528937262 13.135003141674517 8.734021493939798
Be 8.947638748376823 11.412018709538867 9.608525682950317
Be 11.915348215660213 13.195086651682663 8.433939089480143
Be 9.783165165387596 13.0730166018425 8.486822672261665
Be 10.795653568453384 12.479350660376246 10.21157467553352
Be 8.960288663806312 13.496697160840274 10.362003170794582
Be 13.475773091651435 14.325771757248836 14.05299210430455
Be 13.483830716604439 12.938798378834882 12.32751553860513
Be 11.62326306647397 14.406793136477125 15.113891353016008
Be 9.94025936857269 14.207175556938106 13.88907003873249
Be 13.56009815810074 15.116027955085327 11.93649115552925
Be 11.701324951420737 15.328687968028612 13.148690553851598
Be 11.698546308555638 13.133320309876622 13.463266278464486
Be 11.785599122587422 15.921153466594609 11.06087724410033
Be 10.02592465335202 15.013222279983076 11.732561023667937
Be 9.933476877379679 12.923039792269405 12.178072640818728
Be 8.215979951027093 11.75405548018338 11.671758120024444
Be 11.777589444712095 13.876317669626232 11.474637196793687
Be 10.73366141070898 14.628174103511695 9.668561431619079
Be 12.960320839563966 14.681685621317731 9.777513090892995
Be 15.180324776290393 13.947630853897126 12.772365221522016
Be 14.747427829555184 13.661652351517901 10.693154918050825
Be 13.798930227825727 10.717909141349272 15.200906450089981
Be 12.832475156188037 9.182218242112079 14.061562337274577
Be 12.78789114594475 11.31052188076259 13.551584924142045
Be 11.792548310939448 9.894739008876765 12.271993004411339
Be 12.737099923115892 12.599054224298447 15.351041351721957
Be 11.824466329786853 7.909815488064279 12.662928872995652
Be 9.990024508657365 8.692050754084374 11.819115459005097
Be 10.075832959730947 9.489752184707084 9.68223981645085
Be 10.666157619515392 11.277248163404558 13.428704123682893
Be 8.383241983604407 9.79877960673366 10.948576278534224
Be 10.108722718748794 10.872157931045262 11.419286377776332
Be 8.808679880597262 10.126525099482803 13.053050483750438
Be 9.519146039417883 10.623914397597948 15.0433851103119
Be 10.510113674960689 12.545954107543972 15.240231779106676
Be 8.820135698027935 12.193705615614022 13.851545285983798
Be 11.638229813216283 10.623956056924001 15.314293891845082
Be 10.582669681625738 9.123013211116795 13.95741075380201
Be 11.803655046520708 11.8882904998729 11.867845088307256
Be 11.872279611502654 8.48611614882431 10.599150705996779
Be 13.576070754266693 10.90787553375379 11.57272340447495
Be 11.985680648465385 9.403067804562005 8.665581526052573
Be 15.433740626133686 11.962613637627477 12.041087684709755
Be 13.655740666266627 8.76042995754865 11.983728808671032
Be 15.295509237268456 9.957982839457108 11.287153422694256
Be 14.61002889957462 12.381234383653707 14.11954142046494
Be 14.702277368383108 10.25026124507314 13.329146424531574
Be 11.873156679156143 10.647862666146121 10.256672767481648
Be 13.740754862791837 9.553225482378325 9.8640492021139
