5
Energy = -6.58116877 eV
Be 7.063002062567386 6.519597838452766 6.390392935461602
Be 8.710702770237653 9.528206270092968 7.8835077040086805
Be 7.536695471013258 7.8444137391533015 7.956006975930153
Be 9.417514849509216 7.8497598307171925 8.776138705278356
Be 7.930463904390452 8.916401379301504 9.652332737038824
