5
Energy = -7.34961725 eV
Be 8.193800374796556 8.735780402463003 9.251330325293374
Be 9.764390003702783 8.406445031246532 8.012661380750405
Be 8.341982142490421 6.989326236068438 7.766002704712095
Be 7.872356390379843 8.898042085134165 7.274622338215398
Be 6.6045494248386225 7.747484581296318 8.472461587237184
