53
Energy = -156.73095297 eV
Be 9.086442148972049 8.725380747358683 6.223128155408443
Be 11.021226916553422 7.923316197128784 6.741004703255163
Be 9.138398513395446 6.772285848595502 7.023976719272337
Be 8.491042194798053 10.395826688352429 7.367052489426122
Be 7.435898866672673 8.456851282167262 7.569447114751287
Be 11.056463128740905 5.911875924252042 7.341347509216578
Be 10.56170608578351 10.001076556630908 7.112354132663861
Be 12.760271772997337 7.00447136894167 7.652540649382561
Be 10.113568726163912 12.21184876337595 7.3119378527956815
Be 12.34495780328744 9.118769963564613 7.93108195716558
Be 7.910807840962072 12.358803747599977 8.002519809819715
Be 9.25561789991248 13.800045637074788 8.48068393072271
Be 11.731269846131815 11.211798057349819 8.358768661246673
Be 9.403390192742117 8.41935849560994 8.256688038894548
Be 6.8209198991254985 10.28832136286859 8.644349048987147
Be 9.828508442228397 5.945421148990983 8.981132098145395
Be 11.137466909407642 7.564513207920428 9.002666046402744
Be 7.939859916916016 6.765566929305203 8.72144074181246
Be 11.07282496871483 13.079121616403452 9.164504096708002
Be 7.068017636213349 8.32340211837767 9.690116800893163
Be 9.546402310811617 11.356621196357228 9.038015952318833
Be 12.05236235624836 5.7157163069789805 9.251466021477581
Be 10.721787557928577 9.55577184446581 9.33986877751274
Be 13.239498771465646 7.92141892336722 9.521538889242445
Be 12.74571374068125 9.910557430060848 9.850563129682332
Be 8.800053105299844 15.47542347680464 9.685030855169929
Be 7.502704631566087 13.827020401054128 9.724584387118856
Be 8.561902630537858 9.702503125410988 9.743352786736079
Be 11.061330539448422 11.293186973665467 10.429874182220672
Be 9.300468583348968 12.854980688902142 10.406601949599695
Be 10.394681650505015 14.590762686102446 10.61985317273242
Be 7.501570126678483 11.776666663480194 9.918481277088032
Be 11.550506535728633 8.303641124157075 10.87561309036637
Be 9.303927792009585 7.670921742504165 10.31763865593338
Be 8.455290799708338 14.655111649105475 11.474848322881167
Be 11.526406845128573 12.97909702449181 11.385395474742209
Be 10.126193092835678 9.587626216003954 11.415129934110416
Be 6.759101704971872 10.106678283853102 10.840193922810615
Be 12.324913382821977 10.430394960448199 11.827343367295441
Be 8.832406216511972 11.098192019595189 11.356957061342978
Be 12.96156499025914 6.5357554110594664 10.965754785073848
Be 13.325380413781303 8.53695110742711 11.778977945246128
Be 10.864600868792419 6.249783785842387 10.929713548080285
Be 7.65236172115889 12.767577554797965 11.85749616685591
Be 9.73565420511048 13.325211432413203 12.437390499776203
Be 8.10764629405547 8.85609597472571 11.724287411619962
Be 10.694283981231466 11.382745311955677 12.708943045901423
Be 11.484743293344241 9.088660181403887 13.0793518092698
Be 7.409644866851756 10.482881001200697 12.825418486788454
Be 10.003413435438777 7.753645803841621 12.413501454828321
Be 11.932180355929873 7.095425895466309 12.632965204182575
Be 9.335652271816407 9.76469362203 13.317710424177834
Be 8.781738283693944 11.844971584577157 13.504144516266033
