50
Energy = -146.56691972 eV
Be 6.24119730084206 10.100917343348764 6.740851098400419
Be 8.424910871519403 8.143332677250916 10.87519395582393
Be 12.172194864715436 6.93955025157557 9.55805844117784
Be 12.715602652248068 7.017368255862276 7.42857265815546
Be 8.764312581980844 9.606999685378936 12.571972896952865
Be 7.054708464806089 9.608603380089539 9.998223657343186
Be 10.463183041790415 5.915003893300506 10.287357613854047
Be 11.610659303795709 11.820106495441985 8.359438065257404
Be 10.812675256745452 6.328866055573255 8.134652267249988
Be 10.013187957374257 8.02239178507693 12.67071438883613
Be 7.537373545788134 6.951625475878217 7.545107419802812
Be 12.36952549823287 8.933449567393598 10.339873894364496
Be 6.715077087351799 11.776088955474634 9.872286758516779
Be 11.572436331505049 10.296816085589855 6.909796588864472
Be 9.443088478324087 7.3750053983283035 6.948901135920565
Be 8.921529649600117 6.416693447448472 8.990038150007251
Be 7.9740728415694715 10.538737184178649 8.136381927293037
Be 6.785508023145028 8.952579311791913 12.138383684270424
Be 13.636577976578579 8.239720926038295 8.79687331621913
Be 6.477865087379421 11.848019494235249 5.716760469674132
Be 7.4704399864686 10.939782281300639 11.725266742410117
Be 6.357113839902421 12.100462716303985 7.801536373200711
Be 5.503909187670228 8.396857387648419 10.276572416212323
Be 10.965012552383778 9.573390585665901 11.867327425751355
Be 11.566780902273031 10.92550299677114 10.366887311321898
Be 8.34791868033504 12.482043417755667 10.775235915968146
Be 11.574879351050575 7.320216139219717 11.547465128679912
Be 6.317265388013022 8.546082132651605 8.16929215137757
Be 7.758220682107699 8.689170421960183 6.532381581482269
Be 8.07773726443203 7.262782009210758 12.782850110051857
Be 8.196810221107123 10.721579802545554 5.921217920085777
Be 8.234500157558756 5.941703634588366 10.956771909069362
Be 9.99174434059144 12.129258267590052 9.66678571899849
Be 9.76153241460499 11.694009932119588 7.270811781684903
Be 12.829062537774647 10.165351526245715 8.6687041641302
Be 9.831322613190986 6.1047372143580505 12.229986511879185
Be 11.252435720123069 8.475357531703207 8.190070053720468
Be 8.654648752932426 8.598207176313142 8.726405955633998
Be 9.006304201638276 10.174990312893378 10.286561600843381
Be 8.261344410866394 12.835803362827797 8.681703398501908
Be 13.164848984458846 8.94393564195582 6.932666048079648
Be 5.607080798150191 10.401089034132383 8.703184552632617
Be 6.47060814609864 7.029175469897353 11.541502614451279
Be 9.879966764406355 11.389054154716389 11.75220566736701
Be 8.034222193020062 12.629599385182216 6.674725340600698
Be 10.332039003496138 8.241184050015 10.062357875009921
Be 9.663864553305732 9.459843629496202 6.881911017228358
Be 6.993528997697596 7.103221035800422 9.55429778661713
Be 10.334923081895953 10.20431207539492 8.741758338589413
Be 11.347695196503427 8.182868743830113 6.185565939785767
