54
Energy = -161.68873529 eV
Be 8.437195919949042 12.373554601705818 8.882930989771806
Be 11.984300686412961 8.62316095225114 6.9114636312040325
Be 6.262163285521458 12.129824812829082 8.661169216053066
Be 9.48962597412705 11.889135517171635 7.2038305408984655
Be 10.812368921108627 10.26979346686566 10.698162075905376
Be 7.48241337747731 11.594605163581482 7.123414146790446
Be 11.674254906074793 9.70346902431918 8.817977764416897
Be 7.0951295361407585 12.199831445248108 10.535708110313337
Be 9.132112386821158 11.59939900473379 10.692961082945814
Be 10.686941894900453 11.79310203103351 9.05920012761245
Be 11.98243305600369 8.462998085292336 10.61578685220323
Be 10.7791001438365 10.37458446401503 6.922175549225813
Be 10.116925867970325 8.645105383521653 5.666393275624139
Be 5.797394960481562 10.31583350091414 7.661863841641984
Be 10.157401910518276 8.52566236164516 7.7663183148101576
Be 8.505234580067434 9.700177354352077 7.137558995265502
Be 9.085860258146777 10.621279842974833 5.477693547330771
Be 10.197477236476265 8.336061636459123 9.79574800923795
Be 10.247429909693345 8.450636288464247 11.893582229812022
Be 5.699241604230256 10.649859384579994 10.117313982557505
Be 11.81684253760591 7.535441616131293 8.708629833825139
Be 6.854945090059347 10.233355884197792 5.742498302449893
Be 7.366495968053026 10.64046796964622 11.825962875126958
Be 7.4923836562559085 10.333947111767124 9.087235704412633
Be 9.477328509659566 10.374837568928081 12.445881658414299
Be 8.79194974186397 9.502800513603699 10.623613110039248
Be 9.547208782861594 10.200793248197762 8.861740908706532
Be 6.395893468764087 4.985575968980774 9.22699783570429
Be 10.018292975877712 4.876413276281549 7.1406347126440215
Be 6.193134547409031 5.100255301709801 7.147161226271512
Be 8.184866417283198 5.350403978970179 6.484488853865852
Be 8.311886937812853 5.436964043642742 10.096992383606405
Be 5.016515338994996 6.734243110488656 6.4578468555582385
Be 10.023142160423722 4.556837696166223 9.235586186135414
Be 5.114421805173417 6.594651701859472 8.521584085637658
Be 6.6531055773540535 6.878981542266288 10.1470311060332
Be 7.31162753563791 6.5793588325629395 8.093544140304397
Be 10.796882855304704 6.403571640421413 10.302057121708017
Be 8.141629377983937 4.41576174093255 8.257078786798239
Be 9.348991255314091 6.613489411464057 5.248483077459047
Be 4.659683772896868 8.460486186547742 7.361699596268071
Be 10.882860092515806 6.8199024388171665 6.732858027321781
Be 6.981250174167112 6.779263049336617 5.788610184977065
Be 7.993661246128137 8.62437501469649 5.145226517510271
Be 9.50195767426431 6.613114757693531 8.60107309557388
Be 8.648450048584904 7.38463510517311 10.863796028943849
Be 5.851544033808291 8.611377300671926 9.07201267967599
Be 11.557701292099008 5.55382760248437 8.400296482506652
Be 5.7255508860584605 8.474095653876951 5.429655891461912
Be 6.839613416819071 8.878930275858036 10.834964957230028
Be 6.805033960908722 8.479133696354454 7.183455621991867
Be 8.206941448584944 8.787165394054616 12.481072313908667
Be 8.201651879976385 8.358638510556299 8.892685240372572
Be 8.626525598924571 7.533805015090514 6.881268795322892
