50
Energy = -148.98304112 eV
Be 12.762909849454092 8.72626489660798 10.632573098393882
Be 13.588233533599299 10.426293780200144 9.651409705155727
Be 11.88480108942315 9.162812658800744 12.45008789212711
Be 13.36016382588186 8.710514791447858 8.580599999836622
Be 11.678290606203426 7.647793091879217 9.149738495872214
Be 11.052346571455157 7.595556630577652 11.157763772517848
Be 9.935500548983615 8.509692473251418 12.813206349389542
Be 11.42108883225539 9.799950145702413 9.155200430603873
Be 8.962734413200135 7.506494536099106 11.249749987855235
Be 10.550437032293667 10.777374374448096 12.774542878943112
Be 9.264757539065764 6.4143611304275 9.408318382371307
Be 12.278693338849491 10.79701451807243 11.207945910242113
Be 11.6958780757604 8.813915463135473 7.171793576198911
Be 13.033858995804223 10.482778348793778 7.663002469364865
Be 10.280632587033748 7.253336469613445 7.709268672902563
Be 10.41282822932595 9.68374787477741 11.029236041009842
Be 8.295845294031635 9.47648440344496 10.861441287215959
Be 7.78921016208149 8.15804018330248 12.828036119351632
Be 8.62343095738148 9.99215720517207 13.208775247441029
Be 9.65267415284383 8.577852011111162 9.392376714648691
Be 11.967688174329378 11.84461832358162 9.260371620445314
Be 7.3248765653973065 6.326521081758177 10.866254451050857
Be 10.663663508286723 10.027513497375015 5.712007593997643
Be 10.635371481274154 12.041678491205527 10.98011275728932
Be 8.762396826284615 11.456134891978182 11.77107391036658
Be 6.789502261821472 10.067700030338838 12.054248986560784
Be 7.637688463298405 7.952023625643839 9.485122818932338
Be 6.410416955299973 8.044213035962176 11.394119163420699
Be 11.172910880282636 11.190593548367719 7.367213032942509
Be 7.269925318035997 5.823187792185087 8.834797541513167
Be 8.784728733801579 12.736121609090414 10.06729209598301
Be 8.599821973765051 6.106481082582426 7.293699940705587
Be 9.977603229560398 8.085827025208628 5.914029163058872
Be 9.562429071569673 10.833218623226022 9.520356250956576
Be 10.073710068026672 12.5840248595403 8.34564791133255
Be 7.909280621100926 9.866220472122963 8.746545679774808
Be 9.708035101063103 9.670705388315112 7.55654549181783
Be 5.760483822014669 7.222109090249751 9.406259985618048
Be 7.302549669628104 11.29730137985251 10.220197969865941
Be 8.292488232800077 8.239192790619638 7.494957633871695
Be 6.147547417014366 9.484150864511296 10.019391957782247
Be 6.57518050280111 6.938369016273726 7.270802420280838
Be 9.23569965756166 11.495275116088829 6.482332931908069
Be 8.079778387645106 11.931038864901538 8.245047191156198
Be 8.051087966059928 7.340127584156374 5.62035162325726
Be 8.594765011255761 9.523504275713115 5.463917289076209
Be 6.117717326843343 8.85191039189066 8.004174669718227
Be 7.338911552743588 10.556266300430982 6.765081498165963
Be 6.159719429774766 10.9351054862546 8.494249724427737
Be 6.657264031453458 8.769718808620484 6.016059631111512
