51
Energy = -151.47805562 eV
Be 7.207709778023647 8.90481817808792 6.486784796434489
Be 8.500360864004131 10.185407140790602 5.638945949482843
Be 9.340484853830011 8.467827057636118 6.338803200544017
Be 6.82919797985387 10.950146597485025 6.8948135920892835
Be 6.438786364805496 9.371113355495464 8.409695519602636
Be 8.231879075057654 7.9542694369713 8.059427409373491
Be 8.889120910869915 11.920564463220053 6.821286738129316
Be 8.532618552026806 10.038521682392984 7.86903524381394
Be 5.7740751518422275 11.262073253710332 8.736086905774185
Be 10.34197787220231 10.474364314896691 6.549177986018186
Be 7.580832044665777 12.286585110572597 8.397195912537978
Be 10.506061178594724 7.018903193246731 7.522296188473117
Be 9.489384861604302 6.994298158244053 9.388237435771893
Be 11.61807730854406 6.335333519332705 9.292281547410886
Be 9.280431299292655 9.167316592050195 9.932042397424114
Be 11.371072177270134 8.680494233833297 6.444080522612219
Be 6.557033962925204 12.373744908947574 10.27109665189605
Be 7.314660024360859 8.382186388463053 9.983844163831984
Be 9.811148969944428 11.30337908544667 8.962165942389767
Be 9.261142453025396 13.450374816667829 8.141668383122012
Be 10.369651347856893 8.984464069320959 8.251707531321674
Be 11.065301442994171 12.297424888930303 7.461113700268594
Be 6.051190616907522 10.208338365118136 10.539449112459556
Be 12.035091879707908 10.305265041905066 7.787005163942371
Be 7.869214374688995 10.667064896836463 9.78707006844673
Be 12.373459046744172 8.032852325364955 8.17340673275037
Be 8.73017414271591 12.793145144818432 10.244960205330875
Be 11.173863030664354 10.175006344327947 10.083849528482588
Be 7.445739598383827 11.481271004445224 11.842657585677747
Be 10.877108073355757 13.440037847897697 9.293476127678915
Be 12.135221923891153 11.792795537375062 9.278743786150779
Be 7.89375451432198 9.473502638341907 11.643773134058437
Be 11.167781862405747 8.139233996464712 10.159675071612075
Be 8.872688303588294 7.5395848191029975 11.37997598562408
Be 9.413140060101298 10.883656875846707 11.166433949056687
Be 13.097648489124484 9.60240271406059 9.523411355426502
Be 10.343478325491642 6.076189613173043 11.015416897522874
Be 9.181390876166988 12.52022328359887 12.359153943421783
Be 13.253900640942595 7.556168415147451 9.949205423205928
Be 10.898423315526795 12.272811462339758 10.952019632003902
Be 12.562731465409332 10.99690579543446 11.423739756093829
Be 8.914392067579973 10.587973037229764 13.25340643935187
Be 8.838715127684603 8.512283353086463 13.275632403140335
Be 10.471959658391075 9.191891754970374 11.902858744717673
Be 12.18089101216344 6.788035595760815 11.570063297939672
Be 10.858653428820638 11.285354930944603 12.904606239821213
Be 10.345122484499003 7.102252633488891 12.837259171394608
Be 12.959059483806733 8.864178107377084 11.527134434338786
Be 12.404303350256065 10.025176050512417 13.217900379387673
Be 10.547664401804564 9.417759977040696 14.043351074436199
Be 12.087611659524308 8.056004724859427 13.25497362127684
