54
Energy = -159.87153328 eV
Be 6.944603867220262 11.913961670987582 10.868596371854776
Be 6.706292809893376 10.02283934796835 11.9675983012701
Be 5.782221089077046 11.436332454832073 9.221525855773073
Be 8.89984313244473 12.696460941604867 10.11834659457521
Be 8.386805834307946 8.925109434533317 8.63785938176876
Be 7.060811013660893 11.873873547959386 12.954095187617735
Be 5.780087212260218 9.557837094264316 9.948748942847269
Be 8.326268800489094 10.941487083613188 6.734492538234058
Be 9.048581926083964 5.594909451005558 7.751194520466788
Be 7.917734334375884 6.538734414958609 9.378399998219988
Be 9.958045460455725 5.782945662692519 9.560417339712373
Be 10.282218311810217 12.691182661166188 11.716138082952412
Be 11.103078686307093 12.527997934865347 9.687555544678553
Be 9.583389663469934 8.121033188419062 7.037197152340414
Be 8.494177194985333 8.76969536924429 12.339845268312255
Be 9.133719469340297 7.020901240003584 11.06165910716394
Be 7.956683876756105 10.245011126094248 13.67434612006391
Be 9.660908698543945 9.629981111274358 5.59181028968588
Be 9.673016950103541 10.836572839527667 9.653536869040142
Be 10.2941785602286 7.7261013380439385 8.93550315084591
Be 9.30180898528654 11.993154804381442 13.540703469791218
Be 11.145671327704926 7.182537665446409 10.754692421678971
Be 7.272753714122325 8.107225867136231 10.649073954630063
Be 12.626696363816487 7.811836081062623 9.350732144307313
Be 11.416235810669328 11.571648153580671 13.124256612231738
Be 9.974633125672183 10.019984550935636 13.43215026773804
Be 10.563981383713696 8.24403766493625 12.403781087696524
Be 8.846826609113164 10.94811606992852 11.673711087551304
Be 9.562692715058736 9.01237976023897 10.512728768588739
Be 13.744751049702353 9.467550597402298 10.077744168344875
Be 10.08663680953053 9.898000045793884 7.84795033940156
Be 13.167717840835074 10.528775989283405 11.7508080712399
Be 10.89146796228422 6.374776166621387 7.3692093264132605
Be 12.616943317986895 8.452905016314087 11.464943174380663
Be 12.003701428801753 9.555743383307888 13.13112484507031
Be 7.747506177761535 10.106288151581944 10.173476754421676
Be 11.700505500392088 8.380762536464871 7.593459065942834
Be 7.747544075644353 7.030531804594572 7.331180279104359
Be 6.481726911665194 8.071608506295233 8.633046689936156
Be 11.472846179669983 9.523681926526493 9.531391659795515
Be 12.319055461619293 12.338333242417706 11.376494470828273
Be 9.373623901283654 6.5193879995673045 5.908597815970214
Be 10.949246563287028 10.49414475060529 11.370471404038767
Be 13.059508943140461 9.795785422162757 8.125427824065273
Be 8.284722075045163 13.165502999006677 12.033792442049522
Be 12.99650587475039 11.350241633175985 9.67749006317238
Be 6.553352459387532 10.039691561450967 7.8830853067218865
Be 7.758836826761409 8.978292222337148 6.54965915001528
Be 11.085949270157954 7.895519062608378 5.7153675010453915
Be 11.6809761788599 11.4121636498512 7.9211321685082305
Be 11.653432094115413 9.935859893512784 6.268677605982689
Be 7.795660242226323 11.610162450905147 8.652025273256072
Be 10.316246149610368 11.514285750219885 6.233409744692166
Be 9.706112699219267 12.175255374416444 8.03169249368633
