53
Energy = -157.2250483 eV
Be 10.1153942412873 8.96798408074884 6.317059748258
Be 10.435805164652333 7.214057391186251 7.474679872676026
Be 12.186996480427862 8.34317475531398 6.779280070554159
Be 8.2895542239585 8.043292630465599 6.970342729989752
Be 8.516901070000605 6.5949600946026745 8.513919616074674
Be 13.606677991364533 9.758084992593366 6.496822494890958
Be 10.332116177561387 6.53821704648168 9.4054954033198
Be 8.183504898525559 9.919016775985575 5.986541451753334
Be 11.659243503544513 10.374591069573942 6.1685069228038145
Be 12.124074036120968 7.570131380608705 8.772633545847759
Be 11.418941322736787 9.566751566362584 8.400954221980568
Be 7.071880705310393 8.219485171885275 8.766996909798204
Be 7.754717219866836 10.03669728841367 7.989833373060909
Be 13.52176395080411 9.267192623693985 8.459082829715596
Be 8.803152582346657 5.692058838319799 10.613064948070667
Be 8.46135399037642 11.88401032443073 6.866625508062423
Be 10.491819571429724 6.873023064884004 11.477139556637884
Be 9.375041675168092 8.637039538182703 8.607794157919038
Be 12.678488593693173 9.053930844178039 10.358638130011407
Be 9.799995061712654 11.028024683179527 5.557972465986074
Be 12.767271143550818 11.277261012407918 7.698022916904047
Be 6.95022240677913 6.401264746533529 9.795397666572962
Be 10.66964401228552 8.44483437256913 10.202405454377622
Be 8.631589740342712 7.844999589690227 10.518293433892234
Be 11.053251671402581 10.445978780068803 10.249774349786792
Be 9.758692046864319 10.863999615277786 8.255533759929447
Be 8.859659781457685 6.518540912666071 12.641805860433834
Be 13.03728329965186 11.032536584606268 9.77817873331385
Be 11.510920678939575 8.842362958089732 12.08356062528199
Be 10.883661949056687 12.217905925686981 6.907878343021347
Be 11.421404740277769 12.260227578380864 8.945587645788603
Be 7.883910164901642 11.845873200455658 8.966939732540942
Be 9.487974608917698 13.078909450986895 8.362722791126158
Be 8.89674846382393 10.002303052685866 10.07213942626643
Be 6.473139275003752 8.233126961551562 10.860114029015019
Be 9.519867428236156 8.607137180250156 12.401944025117647
Be 9.734091194356484 11.943795312067326 10.162203415235616
Be 12.445461310264992 10.637235124255254 11.95392678181943
Be 6.7565546266488425 10.107128957057272 9.879560846447744
Be 7.061907010726373 6.36625633172071 11.789288003082458
Be 9.756603376659902 10.780942346886551 11.892309723122887
Be 11.64694685418641 12.340931914576736 11.02865584921692
Be 10.440330717020329 13.850017665591867 10.190146893239811
Be 10.952815204494934 10.20990806675714 13.573495684065863
Be 7.503073997313457 8.063924690688854 12.80940947489338
Be 8.39888221447803 13.527202930399607 10.205981206931916
Be 7.817873861475877 11.709862084993068 11.000012173087903
Be 7.568231645028394 9.86747996676266 11.885321184717045
Be 11.396575026158182 12.209339885484702 13.032451496245487
Be 8.679316431047942 10.035418092989712 13.699129303674365
Be 9.577791673977337 13.024552473693753 12.074739593528529
Be 7.934779119240515 11.870757404679185 13.01608028387
Be 9.666893513464954 11.841572896325234 14.005088841795503
