54
Energy = -160.13730016 eV
Be 10.528175508709234 8.592117847811998 11.594945859517212
Be 12.241060635585447 7.712930928500787 10.504232007331813
Be 6.490897978894248 9.346370090041257 8.282648138498537
Be 10.17893416760711 10.488621500398944 12.44523822199151
Be 13.382721908751384 11.046239407407725 10.894898413221963
Be 10.96306158536781 6.379859712443202 9.3892735944019
Be 9.154754694247503 7.532570004010365 10.374672736724966
Be 10.82301357567407 6.5229554276462505 11.453119915829799
Be 7.188150819854475 10.726931768741064 9.92679711971361
Be 11.356042113563074 12.011875146258438 7.221877395938635
Be 12.205526056660226 9.911578427262 7.642930490171705
Be 9.798719338111813 12.149453107235813 5.797805325436144
Be 10.51325392962776 7.035243528087337 7.400569550881487
Be 9.630739320517588 8.286575233796698 5.570780584004434
Be 11.101525219395763 10.49118261413315 10.535542584578256
Be 6.878799726390776 11.825578565911886 8.14109385327825
Be 8.59149092364546 6.905388481771776 6.69407202129925
Be 9.176646672713183 12.519878139077838 7.721543395555854
Be 10.754796986071403 8.684418237120413 9.23491292300094
Be 8.410838032181589 11.185386833064527 11.599969215710788
Be 8.65946818133678 8.277942761012621 8.501047225546147
Be 9.277671717668364 5.458721288641979 10.554192126126651
Be 5.45748398522222 7.709211231018267 9.434114078604393
Be 12.4324185394033 11.484976627263164 9.059389788716762
Be 9.101629591630491 7.187590969938873 12.481457122315062
Be 8.364442429462034 10.412177163929554 8.019371256110082
Be 11.671430213517441 8.386922988333124 6.398055511305377
Be 10.953585912543616 10.418886201457273 5.858914617720456
Be 8.507715430881198 9.152886235672163 12.17825344719751
Be 7.6827596456200045 5.907268505035815 11.819100596234954
Be 9.116602504843925 9.715923404277413 10.067269574732864
Be 9.963714305254957 9.254743014624049 7.252644055805585
Be 10.71668758786985 12.750384977522556 9.269751724656029
Be 10.3850798771242 10.780616457161683 8.597289315640962
Be 12.175419294459129 12.74178043539429 10.72705274288321
Be 12.34071126311617 7.768576151563111 8.282182265534399
Be 7.305120097192833 6.184699451295756 9.742119489817664
Be 6.938394634957482 7.230924054798778 7.945325007292508
Be 7.28053474691544 8.508591822703371 10.213350485257294
Be 6.956820036838365 7.762696295430148 12.464406382091012
Be 5.181430789941704 8.42868074730981 11.478546150874445
Be 9.012496174826023 6.075949580182334 8.551237236864171
Be 12.428261231609254 9.42051050724896 11.81119027578602
Be 6.572236507236213 9.893830650194813 11.797574436053681
Be 8.713357664008429 10.370045536155216 5.633211208796258
Be 10.196156464526206 12.39895881007585 11.342157557381315
Be 6.70032423404933 10.586294064777169 6.4573386257551455
Be 8.785049220085565 12.002475501831995 9.6958614652591
Be 12.031579026814013 11.525790324434727 12.316838299873893
Be 12.925816757159469 9.447095253464772 9.59031221114931
Be 5.377528313991893 9.78191851755664 9.998838824646272
Be 5.828238282204346 6.55240413948077 11.145005675132033
Be 7.77657001327472 12.235761989539165 6.24692773568532
Be 7.7415366203338545 8.75702982944214 6.570170625557762
