6
Energy = -6.92809099 eV
Be 9.078618375890791 7.483787532984493 9.276727356695135
Be 12.342777335738909 12.695561892612828 9.287073734755651
Be 10.820393049669036 11.145453584364708 9.338005556511533
Be 7.277250669366075 6.871150150121257 10.099397946192004
Be 9.444485541363344 9.563791896014596 9.250116090601395
Be 7.51480263355971 8.718582549490248 9.227006920832544
