6
Energy = -8.6861259 eV
Be 6.997611457509599 7.628867694820648 9.96793236818983
Be 8.933417143073695 7.607652348677266 9.316055338046308
Be 8.015316428628763 9.361567289630747 9.530192919295265
Be 7.2676729265313025 8.252711889669493 8.037984332381596
Be 9.175667602501091 8.959892571673347 7.777648376863908
Be 10.215800627019831 8.739368477853604 6.0130558316498375
