6
Energy = -9.14789837 eV
Be 9.166944052604265 10.644856833838706 8.111220878626899
Be 8.890838558814124 8.905651097352937 9.236921830912767
Be 8.840385955953582 7.201846257658339 7.834147295144015
Be 7.134430394679999 7.79499673411347 8.438676207913732
Be 8.413646050118839 7.01304860428605 9.826343285288676
Be 8.197518908754779 9.083364393676202 7.196454423039856
