6
Energy = -9.3447243 eV
Be 7.916820290396678 9.37337449672897 8.360937386542012
Be 8.015894655325525 6.579969207796802 7.5618133092264666
Be 6.529435539998048 7.9908560881755575 7.752388190881449
Be 9.404497084275922 7.965230547960321 8.169121900377537
Be 8.167351389235986 8.381346237451282 6.578365100462507
Be 7.766871696562842 7.569302043837161 9.342680641306968
