6
Energy = -6.38874927 eV
Be 9.883831779532759 6.734367388087023 12.166374710818321
Be 9.961380965873424 8.067630141294797 10.55039622487089
Be 10.589985746137174 9.343164640132347 9.00639758260712
Be 8.988610219787915 9.81533450328008 9.937891870038538
Be 9.740314883068962 11.20805551888953 8.570856324906167
Be 9.173925708704022 13.169497111420208 8.106132589862948
