6
Energy = -7.18058168 eV
Be 9.497898613417988 9.946273996578707 11.458193275910107
Be 9.212087768290809 11.036159487041273 9.682952781053366
Be 9.041479913855134 8.844676716905777 9.799657656238896
Be 8.761377794902552 9.900567784456484 8.053523443516683
Be 8.670244106576714 7.7727223778237375 8.031631832577043
Be 8.510334697208014 6.193022531445104 6.667463904954991
