6
Energy = -5.80041702 eV
Be 11.64442700403038 15.586346275172268 9.631323685020472
Be 11.889378938496508 13.901317434213482 10.95921342076209
Be 12.221976281244743 12.117578756629356 12.06544082929184
Be 12.280665202046153 10.297194635862335 13.174043731763051
Be 12.034514793840561 8.498789467997515 14.278778312805525
Be 11.816250299913147 6.576944921314499 15.242798059591607
