7
Energy = -10.43533092 eV
Be 9.11696541263063 9.829036480267803 10.969196813859217
Be 9.941206793085781 10.39513026034821 9.149156464631606
Be 8.87541667870525 7.8087454805983665 7.303579177442676
Be 8.872585124905118 8.655415722202045 9.186114555570231
Be 8.945675900711374 9.858461735149517 7.381706658203968
Be 10.537409276056165 8.890336432987016 7.810686863168186
Be 8.25635498044364 9.108488054985266 12.745173633662336
