7
Energy = -11.64621404 eV
Be 7.549515546516619 8.898371545007993 9.002190313521385
Be 8.739059749146051 9.336544629842601 10.595574754202033
Be 8.372172508439414 7.466245570624582 10.310592175114738
Be 10.054554012682555 8.315623653989995 9.420641095035569
Be 8.179251719575836 9.395131503368237 6.976494380725972
Be 9.235050890161597 10.044961250356288 8.573095264283351
Be 10.070308126116888 8.730353635640029 7.298857120632635
