7
Energy = -10.62952743 eV
Be 6.760790388151206 8.565482253098894 10.68129447466647
Be 10.142191531769754 8.148341416622108 8.3437846632753
Be 8.37860342737726 8.857798235267776 9.32292471584825
Be 6.749128863987494 7.493003515175211 8.96374416912683
Be 11.005818281106695 9.944359923085889 8.02001028371781
Be 8.269637690952832 7.756077034619228 7.602353075491158
Be 9.090652805354907 9.631760610830678 7.462711606574082
