7
Energy = -11.20738648 eV
Be 7.5327279407581695 7.369522659489471 5.035616021056716
Be 6.907583106568336 8.298665751899135 6.742312130068635
Be 6.308104873824961 6.294689505127528 6.163319778715177
Be 8.30301416766922 6.809286304697672 6.841765778399159
Be 5.276719431807979 5.430217917443844 7.748329408837231
Be 6.713729526483451 6.820551154377462 8.316354038751683
Be 8.15760610807661 8.176551862154007 8.351787999360386
