7
Energy = -11.64969935 eV
Be 7.474699006835868 8.352061645004763 6.668971572962953
Be 8.572407144010494 9.807547336898036 7.302632234941711
Be 9.310036034440348 7.931884353359746 7.580752322361334
Be 9.2572952209964 9.148875140956315 9.281581637038222
Be 7.269230374935583 9.028324864427738 8.64879342331212
Be 9.639233434938726 7.196931307305864 9.604933802296767
Be 8.025320735046575 8.082597303251172 10.460556958290406
