7
Energy = -9.24287848 eV
Be 8.17405887014922 10.717367212988242 9.255570868852045
Be 9.952699073928768 9.956482699752277 9.957553443753854
Be 11.72976021492623 9.253313378226657 9.190608999395733
Be 11.736271283363642 10.653336271517958 10.715660853407865
Be 13.501243055585926 9.950082016798602 9.949201983537627
Be 8.173608508820044 9.191865139880736 10.654373385153464
Be 6.4053689200724415 9.950563207681506 9.950040392745537
