7
Energy = -11.87837968 eV
Be 9.048283692690658 8.73257330646298 8.039261735718341
Be 9.850345603124211 7.00185200854029 7.491332673629629
Be 8.388522931100121 7.019886950008542 8.894697020149636
Be 7.278776020457991 8.74599467996802 9.281643707177953
Be 8.017880757321265 7.49499081730706 6.695869679163724
Be 6.3926880522666405 7.476809985052638 8.072991011763643
Be 6.94707718186909 9.165296640571434 7.330436609579455
