7
Energy = -10.94837278 eV
Be 8.866608836453175 7.810412745886001 6.498925840810082
Be 7.474293896137343 9.3061014127498 6.819955352576314
Be 9.789189713097905 6.897866926623241 8.110864391942341
Be 8.440687682164231 8.436428150765115 8.427423777230835
Be 9.337011295107398 7.5124984095462315 10.039213819733439
Be 7.070116916656891 9.956239981928524 8.742390747037804
Be 8.014871338580031 9.073232050697941 10.354005748866399
