8
Energy = -14.63269679 eV
Be 10.020943045070519 7.189462830580797 7.360162761813512
Be 8.670815569366779 9.76128385084862 9.205820056032664
Be 7.375488307276737 8.172909950427055 9.319301952348724
Be 6.899997903037386 9.741283848465233 8.171233888630214
Be 6.655898926579248 7.852445834358873 7.422586476313229
Be 9.522408123965945 7.892025414796471 9.159690122036816
Be 8.215083384670923 6.654543703718599 8.00987180574996
Be 8.619110132578072 8.715789959349957 7.331078329620727
