8
Energy = -14.43738794 eV
Be 8.020748774224607 4.955476225894512 6.592589746498663
Be 6.151232936733456 8.769339700740353 6.455852216124464
Be 8.37682284177139 6.504285332816013 7.820354853238465
Be 6.743946805644104 6.558895486682199 6.3104298899352
Be 6.738089268842506 5.38511400797362 8.012390647923025
Be 7.2929874230488005 9.567023278744564 7.8380226273487015
Be 8.065441978448948 8.243922568113334 6.545133444811392
Be 6.585115377766401 7.649476629184852 8.130955833465661
