8
Energy = -12.6723451 eV
Be 8.562739242782103 5.017295503574556 7.584610802141422
Be 7.548169828591806 6.764495548457433 7.966809851641509
Be 6.815179435139378 4.993494462765154 8.720393238250068
Be 6.73901559269764 5.337496179193815 6.690771414217829
Be 6.567271883144789 8.686629260434785 4.736575457670344
Be 6.700315773710839 8.320325553039055 6.755490739109597
Be 5.888691679756979 6.893678905351217 5.480937562258776
Be 4.845948868738422 8.617337561052715 5.9093275942049255
