8
Energy = -11.44149841 eV
Be 12.883411632721089 10.541738834435717 9.332254738917925
Be 11.329137087902916 10.602791740509065 10.678435812139625
Be 8.040606593589128 10.868888369263809 13.293131430135062
Be 9.570458063379734 11.502792675507834 10.046850978988079
Be 7.8652801393110305 11.641580905875601 11.381151052314648
Be 9.781695458657392 10.022364277877658 13.847792289062976
Be 9.663972291126072 10.748134923992854 11.979346635669767
Be 11.162839501864111 11.381518184609764 8.689852088181985
