8
Energy = -12.70566415 eV
Be 8.771045868013111 11.113578810086828 8.821644688257473
Be 10.305505479967588 9.641494175594897 8.996487938165416
Be 9.302887855627425 13.065346678757042 8.860315092488873
Be 10.294371784096594 6.158187633860679 11.186406959291963
Be 10.404039619945799 11.630654138542578 9.89537486407176
Be 9.165556792767747 9.97894133494142 10.588743207996114
Be 10.18695272723604 8.132233593896165 10.468763151741573
Be 11.1982760519307 9.908199813905533 10.810900277571973
