8
Energy = -13.60797369 eV
Be 9.383743723770218 7.511353149845185 6.66753560112994
Be 9.829028064176162 9.35187574357079 7.4673083654691785
Be 7.862488830791241 8.791745707487102 7.5746760886653135
Be 9.45244163630197 7.858233677725105 8.814020493701586
Be 7.948590564797931 6.7797602915349024 7.945523020122183
Be 8.719679861283074 9.819518016613957 9.23443415783154
Be 7.4590522658269744 8.10952855357009 9.549257113177228
Be 7.336025400715679 9.769035207315994 10.738295507566278
