9
Energy = -15.153688 eV
Be 6.617293263443073 6.607358347387843 10.005787046875207
Be 8.197450446209674 10.014308794962249 10.015478066666596
Be 9.297882984784392 8.599692763525042 9.018212872262222
Be 8.4582025199062 6.655350499377615 9.130161044819761
Be 9.139696549818197 10.992731232269199 6.524236566682398
Be 9.14367077316264 7.4124801898481705 7.351566648131232
Be 10.004635975644971 9.254204300253676 7.124423278685312
Be 7.95052086309321 8.048900400978624 10.562443971041075
Be 9.439224257139568 10.663551104599634 8.51626813803812
