9
Energy = -15.41536794 eV
Be 12.138883666618215 7.69321154776782 10.897355407572968
Be 10.176456528833453 8.101129213503793 10.421587477414525
Be 8.287731029924238 8.743475607212511 9.669814741201417
Be 10.028080337430765 8.946827070454976 8.452771943977684
Be 11.760418902655717 9.24520651400292 9.648452917734705
Be 8.382695417753991 10.344811638790427 8.352452436962384
Be 9.862855970715996 10.168705186919489 9.911232253837092
Be 6.520524751372436 9.455629614246492 8.852506312487334
Be 6.621247459229222 11.079897671635212 7.572720573345399
