9
Energy = -17.55913003 eV
Be 8.965256179735409 9.12804107039888 9.423416196293081
Be 8.3733316023696 9.497783464883259 7.384804288367591
Be 8.694229405661602 8.032371995052545 5.998489424895263
Be 9.603188746596452 7.930111779627244 7.875154417889715
Be 8.582424367663757 7.095687840432826 9.494571560790543
Be 7.865950355255306 6.830268978906272 7.4453513437073235
Be 7.574579639131068 8.361073557333428 10.690708645055174
Be 7.0943203697653825 8.34354833753797 8.699243133980561
Be 6.819780394969012 8.354174036975309 6.561322050168479
