9
Energy = -14.87275766 eV
Be 13.52163449676287 9.764456338214867 11.1814522034436
Be 11.50585210050293 9.778672066745708 10.614361420202785
Be 10.918832685116724 9.791777024049523 8.59578845438852
Be 9.766833632369305 10.91497612063759 9.831299956051476
Be 8.801114948834394 9.843870044363612 8.248932355917718
Be 9.717553638458714 8.733830784641295 9.840103946598177
Be 9.60919246928556 9.832767023673409 11.527856028637535
Be 7.933365959161608 9.86766376060434 10.19645553029289
Be 6.775695996892051 10.022062764453528 8.513826031851025
