9
Energy = -16.06352403 eV
Be 9.746438251632886 5.736494430635064 9.851525377581675
Be 9.371896413162586 7.752831939632291 9.598369534859366
Be 8.159890775659235 9.003777890970605 8.510913809492479
Be 10.264089628413998 9.332452027577828 8.237079674537581
Be 9.967454896011064 9.570924431959133 10.3468253114721
Be 8.050145491781212 8.944374758159944 10.534012222957923
Be 10.338431637495836 11.243700396005856 8.99637039445541
Be 8.395286259755107 10.88476980751329 9.592571894084235
Be 8.98879349025587 10.813101161714437 7.614758624727289
