9
Energy = -14.63835255 eV
Be 8.037185272318368 10.272722946132458 10.272722946132458
Be 8.877507149407785 10.272722946132458 8.52254324856982
Be 8.877507149407785 10.272722946132458 12.022902643694863
Be 10.770512261449777 10.272722946132458 8.090102592434226
Be 10.770512261449777 10.272722946132458 12.455343299830458
Be 12.28755928620437 10.272722946132458 9.302161169778351
Be 12.28755928620437 10.272722946132458 11.243284722486331
Be 10.273081924374301 11.312548521297083 10.272722946132458
Be 10.273081924374301 9.2328973709676 10.272722946132458
