9
Energy = -16.00175041 eV
Be 12.9226609931808 10.36359593113872 10.44205639325805
Be 11.159269251526979 11.286612322446262 10.303997175739935
Be 9.385410614063836 10.28465303219308 10.960382314197851
Be 9.679287986948903 10.556191164795564 8.942435172758504
Be 7.998830428798734 9.640416275360097 9.626691189782163
Be 5.957847012837982 9.986805149084546 9.6183267009717
Be 11.323545515554937 9.385052291006184 11.126879693571265
Be 9.809564824767417 8.704297707426273 9.748308063841765
Be 11.627982893993135 9.656775648222286 9.095322817551635
