9
Energy = -14.89443026 eV
Be 8.901195281394797 7.105670377522712 10.027162238575727
Be 8.75340569025856 6.260428557267707 8.145466923252933
Be 8.108722663399659 9.025095892315731 10.422420552786992
Be 8.479534337000073 5.606868611784685 6.152010581564347
Be 7.983440936578129 8.213698829613644 8.52749167522021
Be 7.164843366326806 10.090800543964894 8.864162056715987
Be 7.862863657668933 7.4327539321305665 6.696149736671801
Be 7.024816665997736 9.299619597175008 6.95899618620325
Be 6.994429393753902 8.28291476392966 5.108892361432622
