11
Energy = -19.39460401 eV
Ag 12.317053404089577 8.80529312611706 11.545401022730614
Ag 10.53994413133175 11.891957326471038 7.371007512964988
Ag 9.941355986801847 10.476102282285252 11.685869256776169
Ag 11.600042715387744 10.24781156227351 9.3452783864036
Ag 10.581485401367335 12.694641566252455 10.04017604610236
Ag 7.671665111358406 8.949799753053826 11.14531879052166
Ag 10.086341238987321 7.946259456312014 10.312029634207203
Ag 8.7218772723164 10.712794119667265 9.22178514303046
Ag 8.637081523779692 10.026614247986219 6.602314661843561
Ag 7.971001152207563 6.218866931415749 10.379580653133475
Ag 8.013026763918132 8.072777986847862 8.382647076514205
