17
Energy = -49.80503291 eV
Al 9.96850542987941 6.504024600966623 11.701656629010586
Al 11.720989097233543 8.558948181046755 11.124228317656469
Al 13.077971562106061 10.7735205586072 10.0909134097291
Al 9.108111045373974 9.174950989404646 11.972980050244164
Al 7.542426464290423 7.179263644596389 10.814599790566334
Al 11.090910827956215 10.803026445209003 12.554389785097504
Al 11.851784129239096 8.958602527406685 8.399275113415435
Al 9.729270223918196 7.7842408917302235 9.339537560152356
Al 11.802170042281004 12.869455471946734 11.170313197587001
Al 10.364971445256414 10.642043360659033 9.905460543905255
Al 8.703714835889526 11.869599423695227 11.485934107068763
Al 7.259340282419018 7.702101899920197 8.176867313152629
Al 11.595549221224626 11.505047364359065 7.638088689499233
Al 10.504618270127482 13.456786164875705 9.044743837789337
Al 7.61742937007045 9.874176401343746 9.883856461099052
Al 8.326016437029613 12.120322156737084 8.677570998627056
Al 9.312873865772662 9.80054246756255 7.596236745467028
