17
Energy = -49.17706628 eV
Al 9.718273397469966 11.24425995813542 13.458962633317693
Al 12.354349017186632 10.256162120683351 8.225760615700562
Al 11.07578814474934 12.946613581285261 11.876783993916101
Al 10.918136842337846 9.06497312918119 14.603828095482328
Al 8.887693141366002 11.315954239007919 10.92005563550617
Al 12.470285965648289 8.530761618296431 12.402986182122223
Al 7.968629583773757 8.860314766621025 10.255844549424078
Al 10.664506223827038 8.219187255854532 9.846642207565885
Al 8.842559982502763 12.774596725757474 8.164879033510003
Al 9.650520377059332 10.267665260493533 8.564450978960451
Al 11.684983986059464 10.570105436520976 10.817509565661041
Al 12.34931616534349 11.068503778319723 13.324755788017399
Al 11.232902441948054 12.662488175966127 9.309973073567273
Al 13.3175012159499 8.449578086870115 9.94871751896999
Al 9.653428707882851 8.838385742307432 12.269361721051627
Al 10.939798730796074 11.913248447016219 6.733820339388645
Al 8.92348997870906 13.997488981477447 10.514318596626245
