17
Energy = -48.97560618 eV
Al 8.163332493642251 6.633247512993534 10.538947598427672
Al 10.267729910715419 7.916476012255925 11.510359557575553
Al 10.28551571235141 7.442884178954974 8.863448633546609
Al 7.984284978740924 9.43407139746866 11.167690684821647
Al 10.582752894945425 10.515001399862971 11.945441753661767
Al 12.677216224271042 8.489155014326546 10.66091081929441
Al 12.264178059787456 8.946360241952757 8.020178552106817
Al 7.739920718547459 8.408942038352023 8.597372522458897
Al 9.82442157099782 10.097086602261141 9.279438520047707
Al 7.8172631613175705 11.22425373839567 13.089955981626861
Al 9.551789387349631 8.955466987876058 6.768037933897377
Al 12.249482441672704 11.063886803044648 9.80623886913433
Al 9.883917808755951 12.73168896545023 13.205351346834709
Al 11.061676326811464 11.080198315506594 7.018393839976819
Al 8.780117295514286 12.133123006637481 10.663645422815533
Al 11.388866682821734 13.163648088099798 11.141830900615052
Al 10.408961593422351 12.881928691104557 8.694133690274752
