17
Energy = -49.84263329 eV
Al 10.897114468882398 6.880444637979462 9.954659444671345
Al 11.993561753747803 11.01559718254553 8.454488194964757
Al 10.057192061184375 9.169266215096414 8.688666653526168
Al 12.399279038147505 9.134997772175167 10.460488911764216
Al 9.255617389045744 6.321502397628112 8.002313473189325
Al 9.282493597656353 11.752465234209248 8.472865624262411
Al 13.169650294343658 11.6798119228164 10.918826702836473
Al 11.19887943575721 13.383441202001267 9.59157763994797
Al 8.228209599846096 7.639495915900834 10.061958764132397
Al 12.95947634283623 14.311131520308658 11.437159366590928
Al 10.535787419087832 10.977484559923298 10.671922398060422
Al 8.607691183992477 12.81888441819822 10.909461436707304
Al 11.811858548680094 10.432661062466435 12.965735266271501
Al 7.99262404453814 10.221612265600523 10.493629406920657
Al 10.038227259051085 8.656347290152075 11.916737722642157
Al 10.906042766194654 13.02169753013799 12.483851351214394
Al 9.081457087694101 10.998321163546128 12.93081993298348
