35
Energy = -72.89515110 eV
Ag 16.243935440617427 8.472015945944813 12.381405032271482
Ag 15.84520336618636 11.185161924792805 11.733160966175948
Ag 15.580877680004486 13.806399536307081 10.977074428306883
Ag 14.22157301407887 12.953408894004806 13.27764350359801
Ag 14.553962296933946 10.257772653009754 13.963083669762423
Ag 14.560602328771719 9.194423179537841 10.24824626128674
Ag 13.110575357299325 14.937899760907614 11.514127261797606
Ag 14.475623364716641 11.805177319996911 9.332687548142063
Ag 13.596347758893716 7.877108519218151 12.762358869616147
Ag 11.879133182926637 14.28554708636894 13.921781263547665
Ag 13.95845633094376 14.495787174057854 8.857880694484738
Ag 12.245579969821266 11.67024302686515 14.80567627110583
Ag 12.39707581470636 8.893501380320934 15.017359328519069
Ag 9.363370501288628 15.53602399234814 14.427618729439976
Ag 14.80775777196219 6.531116881582206 10.72086338520005
Ag 9.656272205088433 12.737961391978963 14.558238023698678
Ag 10.505182311066461 15.693467637724094 11.902477422077762
Ag 10.857235435578708 7.835755892211375 12.939324297644507
Ag 8.17814403156143 8.405144024608173 13.172601034422645
Ag 11.245294058836823 14.718990513867313 9.405556963721411
Ag 12.135965944363535 7.681765956233605 10.350519546075938
Ag 12.233596398396017 12.619361585124343 7.82265142181095
Ag 7.904927187591284 16.607720636114863 12.198440209075052
Ag 12.669839770356932 9.885050529180461 8.430454218206616
Ag 7.959292555838418 13.884383543944514 12.659759140283287
Ag 9.9285126965748 10.00651707640573 14.630798246719195
Ag 8.52609447466826 14.81948228888783 10.088581121909915
Ag 10.477378126691145 8.185723805067147 8.152241948782704
Ag 9.344837617629326 8.054383383838468 10.640992720708773
Ag 9.475448453231643 12.796600053024108 8.403376343952903
Ag 7.839357633727486 11.167737464591704 13.108467197551342
Ag 10.494835837966873 10.677751029815685 6.87137440889445
Ag 7.6753150224343205 12.188654040885766 10.477085432738464
Ag 8.602344626921322 10.137005452655877 8.826446090642923
Ag 6.975405093736689 9.55378414742495 10.957272508606385
