38
Energy = -80.67733615 eV
Ag 15.75221282924138 9.274226575493737 12.844392614317035
Ag 13.483013826621034 10.812955226746151 12.947435131648048
Ag 15.457573654076473 11.329575118910169 10.913332021240777
Ag 14.787231945991618 6.725251167320491 12.379470643066977
Ag 14.169087432022087 8.781370511828808 10.625009328811101
Ag 14.60855712693262 13.406347078521748 12.747727255498527
Ag 14.876578344752053 13.13284670806943 8.880084505620712
Ag 10.73703508548883 11.825236079782492 12.688088567342483
Ag 12.468412439689056 8.172275374675875 12.957310501368886
Ag 11.476091467193438 9.95140614034386 10.709803944476555
Ag 13.833563097047588 15.127971671047977 10.599292055324417
Ag 13.623377713444135 10.66169548978687 8.653571965448025
Ag 12.640911645895494 12.915188778639209 14.752261315199409
Ag 12.686742893404478 6.279157351792739 10.694599941286347
Ag 10.613112629895246 12.407768368236795 16.604089050861994
Ag 12.318874762628893 8.177999305416382 8.563249396636614
Ag 11.727207918967146 10.190822911440131 15.031891519244882
Ag 12.258850072795278 13.13856065566813 7.902860792788649
Ag 12.804124085321154 12.52993601776421 10.713326591608745
Ag 11.913794558095407 14.558117792654265 12.585477822628562
Ag 7.788486782830451 13.110323874098912 15.841109410603178
Ag 10.987593654790297 10.571525129012011 7.640499363494962
Ag 10.658343263019889 5.955416156643235 8.78520456702459
Ag 11.183326276836402 14.913916673186007 9.843086770321483
Ag 8.986194348884583 10.756560199671512 15.171326477402431
Ag 10.209120504950619 7.401794309144609 11.180510328528028
Ag 9.856824658621225 9.09751595814435 13.246243308767543
Ag 10.07557452845309 12.295918138995432 9.847125598917875
Ag 9.916136263674975 13.944137039828458 14.39888213723783
Ag 9.60732373163616 12.94114054499186 7.019471318625844
Ag 9.497250000984607 8.509653287675434 8.774539470630831
Ag 8.551205823903206 10.069157093428315 11.037818300252596
Ag 9.159373888536276 14.274171116977369 11.749874984254909
Ag 7.8773764298288445 12.121781335027878 13.049742347406847
Ag 8.187188859405149 10.855033170892131 8.22651990860252
Ag 8.54066807838374 14.586019330402111 9.03506430254718
Ag 7.192913649996711 12.532849428474242 10.363246713653252
Ag 6.787795041234909 13.0908027429492 7.465781163647267
