41
Energy = -87.34962805 eV
Ag 16.07466646780851 8.875744667145957 10.418342703200622
Ag 15.992956946774976 13.5178365213357 11.66405431769482
Ag 14.02720518436069 8.362970369500005 12.452237217020933
Ag 15.768243617583003 11.606492798204654 9.390893638806753
Ag 15.881595523732036 9.515040600808163 14.21775143551651
Ag 14.028486516692624 6.8935786151934675 10.133226315601966
Ag 13.551106276788651 9.7233531248226 9.777478349545577
Ag 15.762051802566258 12.294248641148402 14.311217741241537
Ag 11.569438816449184 8.09044312311384 10.848451173753901
Ag 13.175429146961466 12.492778080113064 10.048146468562551
Ag 12.472076750368284 5.881272154119993 12.220763048031863
Ag 12.432033316505136 7.67765142293829 14.557989691155006
Ag 14.923313191417355 16.084230433946 11.415625317428473
Ag 13.432747719651731 13.215834414655074 12.870926833863932
Ag 10.904592645257416 10.608199354307782 9.490760007620617
Ag 15.294389482289002 15.019810612013735 14.037670763906291
Ag 15.11406177146291 14.310166988027648 9.136994317525573
Ag 14.95014954406422 10.922398711321554 11.98627005148701
Ag 14.573004979554183 17.693621067786907 13.77169087584529
Ag 11.914432706874043 10.819072239629323 12.093524708625253
Ag 12.604685119393338 15.267291205689263 10.03785764415158
Ag 10.09977301152908 7.074816023622136 13.00627962092132
Ag 9.24847202854694 9.370699906609785 11.501415727671358
Ag 13.343811912223495 10.522396435537422 14.547549356170785
Ag 10.714455562550564 13.305812108421389 8.865656930482922
Ag 13.548296114732764 13.260545305710094 15.73787354655666
Ag 11.185574641300336 12.345321470141286 14.54299829862456
Ag 10.901924317714274 13.440818592267869 11.67853259805638
Ag 12.946232138794764 15.972912630760959 15.276464987207872
Ag 10.410829347388283 16.037741632359026 8.403697676328528
Ag 10.425345528203898 15.241194846275116 13.852373382984137
Ag 12.444054170616333 16.59539919735664 12.504215891152999
Ag 10.555735275302563 9.590984714652334 14.20355734463096
Ag 8.552418294039066 11.945120859268707 10.34216740019129
Ag 10.9543333714997 14.340210578972515 16.410060578612057
Ag 8.301844934360709 14.585924025599736 9.533155318669621
Ag 8.977127179967983 11.59175987570953 13.054863595958714
Ag 8.584865197079296 13.479835331268417 15.06330132872722
Ag 10.067682764211987 16.061010528409817 11.176927976265262
Ag 8.171954676517835 14.226467940622516 12.282281166232844
Ag 6.441600441690244 12.46199128543986 13.457753088795734
