12
Energy = -21.21425041 eV
Ag 8.603025283653635 8.571218092167411 7.999174630166846
Ag 10.473168445739068 6.5520293187466905 8.746374470227694
Ag 6.850131990404828 10.774039080904208 7.7579175637074975
Ag 9.555398971407007 11.246214171400142 7.947233494812431
Ag 8.98086522593942 7.819741013025839 10.654185327544456
Ag 11.13276098497894 9.259435611004813 9.130879977015296
Ag 6.418362057059424 8.45218364742135 9.769276309218416
Ag 11.735960206331598 7.367692514082905 11.1521373370382
Ag 12.113759021024611 11.82512947803126 8.867076447089591
Ag 8.175924264548824 10.478584669150983 10.225312436074475
Ag 10.559768235046645 9.851318030135953 11.772349613490482
Ag 9.997025482293706 12.413255926294825 10.564120781041433
