52
Energy = -113.77941611 eV
Ag 16.972395866231484 13.442405243229263 11.9142706151214
Ag 16.277378131148858 11.52038348768202 14.008983489766523
Ag 16.198848562296302 11.56312489673474 9.965985204750142
Ag 15.175303770276221 17.204242155184104 9.845872580485647
Ag 15.187939211083965 14.226101479342029 13.873615659133716
Ag 16.35071585563753 14.438943035587343 9.32144141630899
Ag 15.64658007847557 9.5451124675795 11.902499015960412
Ag 14.97506140487132 7.552012744231488 13.793144936091322
Ag 15.189652809611985 9.69760355082671 15.909871401723256
Ag 16.399899418991225 16.204385152110536 12.17986849073923
Ag 14.162694012893477 12.374974342895483 15.742120860209207
Ag 15.12143159495916 16.915129101638875 14.60557467430912
Ag 14.241626542533988 14.806951152595046 11.04292737840183
Ag 14.485102428660674 5.404314494756101 15.497089327279868
Ag 13.156301316245838 8.007097513390784 11.650397576693189
Ag 13.943932185581085 15.47974582678987 8.077732104962179
Ag 14.429929182211229 12.178671084035596 12.02632664766776
Ag 13.973558265540058 12.814717316003371 8.819032891161042
Ag 12.246262387015292 10.367387992306936 16.142194175193232
Ag 13.520117134588913 10.325165814465663 10.132201453687022
Ag 12.254744352959504 16.538667177560654 10.046065922932922
Ag 13.186414332222064 7.744234320788732 16.015880163607232
Ag 13.760759172255563 17.50964526712993 12.23455491046213
Ag 13.555588074453865 10.007728010371961 13.70338575729887
Ag 12.077505277462551 15.14476890051399 12.825537454244094
Ag 12.504086375162352 6.144735830883438 13.678924923250364
Ag 11.256806713898232 10.319151199553879 12.020685638546784
Ag 13.156514757965088 15.032285163553603 15.557375355718335
Ag 12.415557418166042 17.599006744819448 14.636515029786398
Ag 10.658748201683359 17.430659430307234 12.422697322888471
Ag 12.212036350432275 12.503246345895482 13.73196320426452
Ag 10.98092337799127 8.391933810779792 14.42784933156026
Ag 11.546200480334768 11.345058087598018 8.503101812738004
Ag 11.975764199609575 12.982690109675751 10.872568626764101
Ag 11.252344135913964 13.086882092911306 16.244951026024886
Ag 9.913606268460704 10.959725075508663 14.691766721168387
Ag 11.399792854551867 14.284951467367899 8.357774517659989
Ag 11.18920393141296 8.76579918266467 9.651288196094006
Ag 8.639656768112763 9.058487053879665 12.964167077384817
Ag 9.676973333939376 12.713946127874356 12.418828565779634
Ag 9.942329493844131 15.161920824934684 10.755091007533569
Ag 10.451124149026148 15.707835708934025 15.208855555983352
Ag 10.51119368355597 7.170268927537665 11.947840319489305
Ag 8.61684789828121 15.577410684817545 13.106139272743492
Ag 9.711729532885958 12.558217953398414 6.82542015275319
Ag 8.74231212191627 13.513331871114437 14.979683667327066
Ag 9.267576555860392 12.758114336564397 9.535806620153195
Ag 8.99711742876005 10.198445184157446 8.380130488697391
Ag 7.796800538884803 10.80569460086921 10.884729212523506
Ag 8.531328909633297 8.210867150038714 10.286467020650544
Ag 7.30977136893278 13.609745198642692 11.503344104787072
Ag 7.354880791515606 11.523817071898902 13.529239255181558
