38
Energy = -81.60457839 eV
Ag 9.218143156927935 14.844810387759884 15.6479328251331
Ag 11.543274266605067 15.076557217933544 13.941996530238441
Ag 13.792984164612491 15.018462616653839 12.191531095212827
Ag 8.97050291607254 14.872956831850976 12.835278492828493
Ag 11.112242916218436 12.771421150338394 15.657772759360792
Ag 15.872745700263398 13.995088148557327 10.428942541161057
Ag 8.732185450424987 12.498508490149314 17.097608439204812
Ag 13.575432523553756 13.144798471472432 14.34046242010354
Ag 11.211080682775803 15.180005367729665 11.085160729825393
Ag 16.04016756096369 13.463026325119682 13.117845778253667
Ag 13.32807563396674 14.269630173534825 9.454945724897591
Ag 11.070187375123401 12.489832486260365 12.808149065419986
Ag 12.541625680656558 10.605804593717332 14.568705282975737
Ag 8.604903285350773 14.928056026640675 10.08313602061524
Ag 13.801088243034224 12.213652002026516 11.476971403163096
Ag 9.724903904601463 10.264190392629793 15.569788226661304
Ag 15.20885098161602 10.798082652293727 13.556603824334955
Ag 8.4795685399528 12.515686877093017 14.299290549197885
Ag 10.77132401648388 14.330340905798327 8.326113326204139
Ag 8.356156005186813 12.513955751974388 11.470551369759232
Ag 11.910575084891233 10.000230412530724 11.6442782461088
Ag 16.765109276509286 11.47431007277151 11.25678205775427
Ag 11.268296250603774 12.1835205223861 9.999856393431548
Ag 8.627394981507221 12.523904865581333 8.683186184132975
Ag 12.680576908380143 12.422757119749992 7.466394638624406
Ag 9.213431063587201 10.26880470631883 12.827160942188874
Ag 14.828392182420016 9.509195124430846 10.932783371411281
Ag 15.04239010014829 11.760179000564948 8.947934166674596
Ag 11.088214014967438 8.343138299182705 13.948737238494067
Ag 13.765574852833065 8.421628599156051 13.25717347285102
Ag 8.389852088556227 8.05566933331972 14.228809685240487
Ag 9.050165977159262 10.143863827262793 10.037412822693845
Ag 12.732124756071563 7.563494183111863 10.736347824214185
Ag 10.474635958769905 10.68551137188156 7.658043593773119
Ag 12.943632705437947 9.853356297392777 8.873851643865647
Ag 9.745661434351279 7.85990075836747 11.541468755194781
Ag 14.414333202352939 10.482167187338167 6.586225307099816
Ag 10.679708676211526 8.198675520668928 8.940711739654635
