10
Energy = -53.00122368 eV
B 6.238910828879374 8.691064269804935 7.924219952862346
B 9.60325531425582 9.031335416920294 9.416782388230764
B 7.731320576141557 8.78188310017863 8.790619449851185
B 10.41093241272397 9.918195941940128 8.097689595862715
B 8.216918944545391 8.245443328023466 10.21030354368592
B 10.917210900535176 8.786526732078064 10.598562583669311
B 8.911018456159084 9.674528295057742 7.678921784931869
B 9.533847214980263 8.21488798863062 11.004782336652832
B 7.4274849981441085 9.392582183962684 7.264772015611043
B 11.296210872368805 9.550663262136464 9.300456867375047
