10
Energy = -44.5508239 eV
B 10.885930490537822 13.111396618962818 6.5811601661547865
B 10.511338811101052 12.359924488494027 7.885024426563033
B 10.264533488894163 11.673133347034328 9.247963556237096
B 10.259086512455685 11.132482414792335 10.699407741191399
B 10.601394354548606 10.848854539113606 12.191122083356095
B 16.033842796000105 14.083336341561484 15.528951278725215
B 11.35202972209605 10.944603691142667 13.533724180788104
B 14.853918410751483 13.08103458160269 15.450550914644332
B 13.637943826188387 12.169911174557875 15.166331991172699
B 12.430714727430162 11.42605594274168 14.546496801170603
