10
Energy = -54.19863848 eV
B 5.499391533974352 6.648057718904553 5.591429484331199
B 5.34610974045066 6.04461757624202 7.01363972616636
B 7.051568879814321 6.613242449907074 6.596141606907035
B 6.393833800850019 6.963479366310604 8.307339264199635
B 6.490787030818823 5.417093692717183 8.091203406586242
B 6.367470246611909 8.09527781109239 7.198367768689572
B 6.94701838082604 4.862876664057623 6.659358076140429
B 6.6833322551458245 8.159655554874691 5.647292838988956
B 7.1145390350301 5.500480111481859 5.232148417325824
B 6.855366223691229 6.966399831217512 4.640746972787912
