10
Energy = -54.19909244 eV
B 5.3163895970527895 6.5518295107846845 5.612526307250102
B 6.144526908385274 7.884182406173745 5.459618053150047
B 7.465619231645246 8.383638840759255 6.191760925403266
B 6.97313460537689 5.459707824419579 6.245198652148132
B 7.729537757072445 6.759164541517862 5.863093235378184
B 5.2665681172386325 5.344331623058145 6.658950543452124
B 6.231163596963627 5.259073683317138 7.873560534066042
B 7.83293956687964 7.709854910705438 7.575096447069938
B 6.278449006085936 6.979182173483735 7.002883120323916
B 7.398588998756482 6.305951871237391 8.154229567215605
