10
Energy = -53.00306449 eV
B 5.939739722104567 7.813081988407143 6.422643887623949
B 7.105894786724632 8.857355394515475 6.592793725277166
B 7.459640871010247 5.54843476519863 7.571943061806432
B 8.832769647211718 6.15610870361752 7.91759303835589
B 7.656334500862568 7.286066162724409 7.200483655694843
B 4.764274190571839 6.793280460777961 6.239076297212906
B 9.32332797947831 7.61585990245786 7.731050358209009
B 6.083985800502116 6.0365670544771115 6.935622056071836
B 8.544001257534546 8.820215261693688 7.137796014033467
B 4.579277584619259 5.301787955182133 6.510483407252514
