10
Energy = -54.90886779 eV
B 5.389784018819283 5.382757362773309 5.4591077240842125
B 6.15272320384227 6.605422322816168 6.272459929738085
B 5.027624391628947 5.605952937270109 6.993498634077367
B 6.737741592941212 5.962666043571401 4.848524978479831
B 7.343316843954647 7.026178560451026 7.292375813834336
B 8.239094709265197 8.080034330479867 8.18094290384879
B 6.860809104875795 7.556531531858171 8.786287814454422
B 7.747193721589781 6.988825593715671 5.59034140819784
B 8.588968939025621 7.89909165620645 6.636691588933611
B 5.805551808472028 6.598549357694685 8.010256544848419
