11
Energy = -57.3998928 eV
B 9.125455878693913 6.101695426372572 5.756419798186481
B 9.033913402088295 7.0511878385082705 7.041539868118023
B 8.65100228332833 7.453148441778632 5.146748590153794
B 8.125525022888928 8.112006160503869 7.871346752356372
B 7.541807146289031 6.244771067327908 6.089819359579152
B 6.629301594209915 7.046974345096797 7.1182445660048055
B 7.468779141426405 8.63555071247934 9.23556057418005
B 7.664318829118924 8.106567861435241 6.209811056464934
B 6.135348241675318 7.501919136552519 8.6108017074749
B 5.026868217818168 7.666770411600257 9.762268679006874
B 6.221423884505626 8.520069779166338 10.136324590718225
