11
Energy = -59.15866596 eV
B 6.368662137122337 8.090349725852477 6.563523696589324
B 7.863976282639721 5.158544251577807 5.912160172839673
B 7.659565307639043 6.891406570592995 6.4451743960906
B 7.168494498671249 6.103895343731905 4.879098543707374
B 6.679446346346865 7.574558216678958 5.0730683874729365
B 6.0817735591900055 6.123119918689274 6.462012713231676
B 5.144131201450252 7.67416539877106 7.519837165874541
B 7.658552461271879 5.459760137777031 7.479586894421546
B 6.779845495058197 6.946867879243294 7.845602746557405
B 5.128261207333485 6.233731169483736 8.125480103003161
B 6.324370238938849 5.25565125502031 8.35637249741141
