11
Energy = -54.76526808 eV
B 8.297665329022063 7.220789056931119 7.024070442670961
B 8.22941192698403 9.012511538196796 4.521145344731696
B 6.729886893460806 7.527080299441075 9.563310987408988
B 8.146386317192938 7.887710287261846 8.829163881732372
B 9.716307669519232 7.1071610778083425 7.856479296433788
B 5.331207640406242 7.040096301520405 10.09239276913047
B 6.875959896552634 7.043816829745429 7.87812386161941
B 8.391679997222093 8.602495272489277 6.016139113261388
B 9.730409022431116 8.359827985839182 8.790878191397294
B 9.029498975410931 8.880537949510932 7.4811866462044865
B 5.478425491670284 6.826554631875795 8.582619418739924
