11
Energy = -60.90218488 eV
B 7.247504215676287 6.7605492528238225 7.954366437727039
B 7.5559427718940535 6.147078681425799 9.558709014416838
B 6.223115549005589 5.546853799814581 7.165266672807886
B 6.537109761568283 6.755678911299821 6.212904657709325
B 7.532818535070484 8.075183612882695 6.857948661756681
B 8.46786893274437 8.664264580577973 8.333286733764245
B 8.395528753188678 9.534385469514143 7.038157514732106
B 7.68946177912893 9.26825260508496 5.672411392690068
B 8.254845894350886 7.502550068288406 9.35225806262912
B 6.661390219523978 5.282755662479138 8.625288254238088
B 6.853528251659697 8.005370817116184 5.284879221545243
