11
Energy = -60.87657756 eV
B 8.719361593813712 8.5969980498764 10.498306865033019
B 9.008010773863562 11.470203487374908 10.355952891843637
B 9.955291950136937 12.727790188486983 10.302786726306165
B 10.799330348595626 11.254933862357362 10.381550129502717
B 10.098072154073655 9.670449991836321 10.450777983189399
B 12.083780241593443 10.012871937135623 10.451406011211663
B 12.477332624299653 11.543736044804485 10.391319853996425
B 11.51790941874921 12.775610715301008 10.321624017231583
B 10.121014029576706 7.9297661999600475 10.528899687844127
B 11.529107090786392 8.551335089099181 10.506020703456468
B 8.304573971150342 10.080089032087079 10.425140933745569
