11
Energy = -60.92193871 eV
B 6.619215131382591 9.50027756449622 6.444856184967852
B 8.396871874081173 5.951978481639994 8.81067379361204
B 7.4010249603843015 9.982507109336636 7.704114474796504
B 6.345333315213205 8.084491889994572 5.874343925689953
B 8.269061207891792 7.525766986996232 8.777185510679757
B 6.4637727989875735 6.527742217402258 5.88857775308693
B 6.967936143716712 5.210367585550119 6.522315526652845
B 7.8135056486089045 4.9238658741231 7.799768140034321
B 7.34097956576428 8.297587930299656 7.445745326897003
B 8.145066141555214 9.103378923477258 8.751479190222923
B 7.482873143421596 6.566045364869056 7.4647128782534065
