12
Energy = -62.05295411 eV
B 8.175594197179162 9.60357526645788 8.481312692401051
B 7.189377038139696 9.663777664692766 7.2256978185782765
B 9.977339299348987 6.1772635824047 8.442845145622085
B 8.449962747271305 7.686784352140576 9.164579424986071
B 6.819699297523543 8.597107782959037 6.194113445082121
B 7.746581323866862 8.114286523934675 7.536280260015135
B 8.792823060953657 6.838161876387942 7.736459102683621
B 9.208586859653863 10.742177121963893 9.218300792887591
B 8.171328809956925 8.600303963868928 10.429691841066223
B 10.241631579610376 7.669087775375351 8.788133189813035
B 9.670414469559972 9.07823504663368 9.393946357180043
B 8.655730735362955 10.091405893840536 10.51017859298525
