12
Energy = -64.07611735 eV
B 9.118057275821313 8.924660575371217 9.886744184349705
B 8.745211103598612 9.390360184586589 8.406708686227612
B 7.8893662401996245 9.00554553637742 7.1423233999137326
B 8.70424340761608 7.569871480386568 7.830603704300186
B 9.74153179028934 7.793759990087829 9.006427435025161
B 7.848796164785371 8.037304959091534 9.41802521601909
B 7.249446458843164 7.7127106580902165 6.518910855513071
B 6.147360723701528 6.4747955685399425 7.195923391449844
B 6.983712887457967 7.390995474542613 8.27087129671238
B 6.514880471327658 6.637801568060053 5.486252471918449
B 5.680456001738597 5.591760622515826 4.70594326097783
B 5.436047150122558 5.484851657763432 6.200927617431239
