12
Energy = -67.675212 eV
B 8.055010253793778 8.365939698963267 9.211151767806388
B 6.636012865475717 8.643065639388698 9.994610728304172
B 8.111514674922198 7.074679618973488 8.126198258766097
B 7.661811767088908 9.821587661910252 9.868329595904068
B 9.037292311486974 7.218706997599918 6.580870658087078
B 6.623416298852117 7.266839025398367 9.131619934465025
B 8.91551754394817 9.909359857005906 8.839188983615777
B 7.821648216172254 6.162660239951643 6.787928702017807
B 9.857436492567317 9.784788885045883 7.52094565875362
B 9.914827127334052 8.584185310009111 6.516293104424919
B 9.21390906238999 8.344052951702688 7.9848707766138
B 6.741416069208307 6.186813472371438 7.92362264044632
