12
Energy = -66.24402059 eV
B 9.204288297459552 8.50964991439125 7.408235137963872
B 8.427915020989339 7.051648774907412 7.078178782428274
B 7.179605208088243 8.670467833242808 10.007721988769172
B 7.974083719932958 7.323480054461333 9.695595833984102
B 7.114369974297168 5.976176168029898 7.082967532123337
B 7.915173649837378 8.466453170681318 6.307851680094664
B 7.948881574945438 9.63525380141268 7.573643126437399
B 8.470066751162122 8.73530088986452 8.907889107527794
B 7.165096092828094 9.824145392586066 8.952130615074209
B 9.21990105477276 7.270239770319425 8.548559116634944
B 7.950983501782424 6.155699146014161 8.429967149282927
B 7.098590857929999 7.124279610531663 6.0217867765785265
