12
Energy = -62.15713712 eV
B 9.202309485933572 7.131612622562036 8.424760458322202
B 6.276540128276908 6.470284305015557 6.886600516692757
B 9.695920666223456 8.46232873553922 9.393804700973893
B 7.172294969461654 7.312971417724961 5.847763375515319
B 7.687245568962686 7.215553823574395 7.636076659355461
B 6.8332073570627525 9.081161025084036 8.007732621217222
B 6.092954876406441 7.869174902411141 8.717203870618203
B 8.161098401063603 8.369787545564364 5.3275604694450704
B 7.474924819735916 9.068372195486221 6.5330265794887765
B 6.056873295860382 6.359933840553763 8.404000682131544
B 8.29671625663601 8.563131065650861 8.649005745288772
B 10.51845857776428 7.211232773366072 9.223538657891508
