12
Energy = -61.79324757 eV
B 8.014997832231936 8.651936986966483 8.189260364356079
B 8.290616734878952 6.225997823963384 6.607449097267971
B 5.967358737604245 8.311335031338 7.1584751351843225
B 8.074022019118766 7.324378017258475 9.365011990094462
B 9.227262652726115 8.390079493768747 9.390506109174712
B 7.345535603520779 7.075275162829069 7.630310763774587
B 9.329168615831982 9.705147599634795 8.532108375764693
B 6.546913134395263 6.9383672327867645 9.21868847341415
B 9.201776776043198 5.376911831131204 5.696296370207131
B 8.413952569153766 10.050603199264813 7.305784453363908
B 7.1233878771459125 9.315711932389442 6.809780503693073
B 5.485419438779215 7.15583637131984 8.09748149326416
