13
Energy = -66.83180587 eV
B 9.47018616690207 6.131150772738596 5.08363447411726
B 9.845368876490145 6.230243672209462 6.574014201511215
B 8.467116548992562 6.997759593935011 6.01455490670397
B 9.013679238600101 7.134846502139097 7.612071804186553
B 7.5320087522781325 7.928957642681568 6.949452256051682
B 8.895608465581638 7.090549601212898 10.773967466994044
B 7.522125105230752 6.652904989695153 10.302166611793256
B 8.856965529887175 7.2839605099559375 9.239699646925532
B 6.551390473195962 9.168987899227288 6.594257472450012
B 5.523880453659482 10.390912191815865 6.292573212606994
B 6.783954030420295 7.381900096466958 9.169735560413612
B 6.210147862133067 8.390831697064215 8.049681753734765
B 5.288228930903142 9.61732128967712 7.608712798670344
