13
Energy = -71.52123571 eV
B 8.8206650503382 7.646899003449019 10.220633412976879
B 9.49807002700939 7.847479370411241 8.749066956007734
B 8.398271135635213 9.283835875891056 6.748511342219384
B 8.361639016962007 7.55888001547023 7.420625176519787
B 7.798292028402525 9.279181152036493 8.205834971952575
B 6.737779145882487 7.583144399232485 8.235009555237815
B 9.4046453974507 8.197388037818232 5.864256499882839
B 10.031350979123323 8.223478755975504 7.3140611618368805
B 6.809669931966355 8.137061568562048 6.756631660978515
B 6.749452915032518 7.258985279223296 9.832267630857604
B 7.55004915508255 8.80539056206754 9.73563601412295
B 7.525021536497287 7.819006509353282 11.0470696206818
B 7.884564400073061 8.079464941690011 5.585598637570627
