13
Energy = -71.51324109 eV
B 6.692720543932811 7.680832978808574 9.021797123125227
B 7.689786790085899 6.501695792974635 9.799960725755767
B 6.62821663955063 8.27220261627843 7.561752736217555
B 7.084482592564343 8.56454128519726 6.035676800340385
B 6.314106309732062 5.992438864054541 9.295678388945284
B 6.344457697070865 6.6492933729406465 6.441797316223736
B 7.84870052853844 8.353325601264068 4.598088975718296
B 5.727364538584487 6.4298031954243 7.881216501853248
B 8.825980681164879 7.621990336377978 7.370292689813379
B 6.985062979251898 7.146057119087856 5.028270369266881
B 7.5086446843728405 6.524620108831969 7.828862060839352
B 8.694267735401645 7.340002551416887 8.914322099808293
B 8.777383881692607 8.043275375726502 5.794691896609843
