13
Energy = -71.50621685 eV
B 7.283493634544974 5.5820531826741195 7.941293180592044
B 5.80824247961937 5.30105992541887 6.908629833023788
B 8.41039847228689 6.233557818332313 7.054257258572575
B 5.894449546536111 6.429776102874878 8.190713488778629
B 7.24206360189307 5.188585104004282 6.20018399696245
B 4.93959897450469 6.677290902482512 6.75123277855444
B 7.28942277907934 7.461151517117982 7.925578967300343
B 7.785415703473997 6.440496048936348 5.357961506940925
B 5.606882287731979 7.935967569477963 7.577087244394904
B 5.975528791846004 6.336794244992249 5.4288066582251915
B 8.146192930440353 7.7292149480854375 6.419985640019018
B 6.865533785706166 7.786958260513886 5.235505371057956
B 6.766305713351938 8.604829078724855 6.66412532339528
