13
Energy = -67.51916479 eV
B 10.057108864143142 10.363674981917628 8.271434984931197
B 9.121529386395682 7.550825560357024 9.964514477104988
B 9.12216749641323 7.556212641167178 8.234988880036086
B 10.594024781723562 8.606297941710855 8.259367125380189
B 7.618304645989225 8.652694251755719 9.964503957969924
B 10.007825321761995 10.38811426364891 9.986916424720018
B 8.200652572887622 10.382144744482604 9.97420727011711
B 9.125568152262991 9.155724143990861 7.403928017768851
B 10.604125795196449 8.669643239671005 9.98386631417993
B 7.645876474731501 8.59309457828895 8.239828425114512
B 8.161173074810176 10.349985410235913 8.25861209639916
B 9.113644611755273 9.11155619197851 9.110462949912074
B 9.10035646192915 9.09238969079485 10.819727002938556
