14
Energy = -76.63918216 eV
B 8.053382711217267 9.779624024071492 7.02606579842713
B 8.100995943438019 8.670995719335489 8.497135700472562
B 8.205360145081904 7.071712608225476 6.08296937851549
B 6.0823503975734665 6.647534123488797 8.732932035018544
B 6.753402395527234 9.590062030472454 7.855257783745548
B 7.057764784498724 8.383765313716548 6.5687962820435715
B 6.648027710746732 6.855035962396479 7.075028121027586
B 8.173818626188307 5.846534951952846 7.086770518895185
B 7.095977817418757 5.581810193566194 8.234609508218739
B 8.827535393993076 8.557067711995586 6.341551018087491
B 6.378675726563672 8.236769296947145 8.644831067575867
B 9.290717229146084 7.278789331040196 7.457489382223134
B 9.180907290813852 7.425291713459543 9.056053757923467
B 7.6143976156282305 7.198105569188173 9.320491155424735
