14
Energy = -77.71380744 eV
B 7.976451294456385 8.806500046930587 10.014957190957746
B 7.3772461054105 10.258648518591569 10.54104627507969
B 7.763399199282567 9.188037127045732 11.61088520206916
B 8.785425678045419 10.302654881905525 7.691175753271964
B 10.201393745557223 9.101828115919998 7.760569648358544
B 8.445618030185807 7.7917986164483315 11.287297573877135
B 10.022345115864768 7.805234608376596 8.650742791364182
B 9.874290412618311 10.29939095139848 6.584922199555024
B 7.762968167699671 10.104618161624574 8.971752168975282
B 9.496713585324514 8.87680626496567 6.1181268732236225
B 8.411286722617257 8.635645674933826 8.382567335881195
B 8.837688783119834 7.208616178636863 9.849890929082035
B 9.176771767707551 7.583955370627339 7.0423737701859555
B 8.64159408716242 6.809817252325797 8.29576729101
