14
Energy = -72.75784253 eV
B 10.831734 12.185143038969093 10.831734
B 9.478324961030907 10.831734 10.831734
B 9.95706353026696 11.706404469733043 12.290475969617882
B 9.95706353026696 9.95706353026696 12.290475969617882
B 9.95706353026696 11.706404469733043 9.37299203038212
B 10.831734 9.478324961030907 10.831734
B 12.185143038969093 10.831734 10.831734
B 11.706404469733043 9.95706353026696 12.290475969617882
B 11.706404469733043 9.95706353026696 9.37299203038212
B 9.95706353026696 9.95706353026696 9.37299203038212
B 11.706404469733043 11.706404469733043 9.37299203038212
B 11.706404469733043 11.706404469733043 12.290475969617882
B 10.831734 10.831734 13.403478888296155
B 10.831734 10.831734 8.259989111703845
