14
Energy = -76.12711939 eV
B 9.920516948997983 6.635868053446523 7.477416305866449
B 8.568404989246027 6.9956715143312405 8.540336729409711
B 8.247346123522432 6.369576974624238 6.830226798185286
B 9.283336436299995 8.051357091549596 7.320738314980347
B 9.088498055308492 5.373608538017748 7.948581695800406
B 8.306613162688619 9.359191346517107 7.468172648384572
B 6.826879311950398 6.912148404911809 8.477936319208421
B 7.580808922115818 5.5506882099116135 8.388788813153292
B 7.859470382620915 10.116448204519276 8.890929697403665
B 6.721594628482726 9.072960365838025 6.4898680127521535
B 7.393420511925784 7.656557818688219 6.464123340708505
B 6.450601719637017 8.489082964046302 8.282310893930074
B 6.422575796508243 9.842420608536372 9.370952201117356
B 6.693162198758013 10.083240436819686 7.654321207004471
