14
Energy = -63.8826294 eV
B 11.30113059185913 9.329844997935723 10.082239848222866
B 10.049968986437529 12.24680743245036 6.92509353664639
B 6.8709679799327485 9.156250279273117 10.170109021826429
B 9.984623456945087 9.522573393050562 11.158942955619944
B 10.64889807804635 12.120280272139578 11.96666960063578
B 11.178094996534975 10.797081209065434 10.902266281127263
B 11.382062467157802 8.064318022379329 9.162134558673747
B 9.874709704550293 12.520921207470616 5.378677462924334
B 8.2516499807453 8.325302195725028 10.179245172408905
B 9.925433961489068 10.755487752671739 12.132814166794935
B 6.793440632945005 7.668931458666682 10.400417862989856
B 11.929100806341532 12.26174441839253 11.090083571832828
B 10.180944865518093 7.181148000957874 8.746005276671807
B 9.910853439972138 8.331189308296773 9.9871806321004
