14
Energy = -74.57687387 eV
B 9.122601474700161 11.243171506467458 11.034820996188358
B 10.682116417260392 10.767680393477868 11.146022825910489
B 12.006799688207703 10.67617283399043 10.11574
B 8.224680311792293 9.555307166009568 10.11574
B 7.420092773595641 10.93346826719697 10.11574
B 9.549363582739607 9.463799606522137 9.085457174089521
B 11.108878525299849 8.98830849353255 9.196659003811641
B 12.81138722640436 9.298011732803033 10.11574
B 9.122601474700161 11.243171506467458 9.196659003811641
B 10.682116417260392 10.767680393477868 9.085457174089521
B 9.549363582739607 9.463799606522137 11.146022825910489
B 11.108878525299849 8.98830849353255 11.034820996188358
B 8.193567911105438 12.268688578566247 10.11574
B 12.037912088894558 7.962791421433755 10.11574
