15
Energy = -82.89143208 eV
B 7.218702840588549 8.015966155406115 9.164174346542033
B 6.384126995527358 8.43338526736703 7.805417220104959
B 6.7203041335106 6.822170015054651 8.162807871485246
B 7.9046198045484655 9.311268676756438 8.437284945338044
B 6.765854572619524 5.863511164421588 6.759930932961479
B 5.824425801500109 7.117374187789829 6.450832531039666
B 7.332683048155915 9.52990432052161 6.534727604757154
B 9.342902761742373 5.619592574497035 8.597692220083772
B 8.290440022608655 6.718283502291808 9.102214809243252
B 7.961734300924028 5.531888815586825 7.760311961975428
B 9.026067890344596 8.306549156275329 7.118955007410204
B 7.4682956080592335 7.57598547626113 6.492490622828415
B 9.601509476797784 6.926899089018868 7.814573332343525
B 6.0663369126724636 8.663729464856212 6.135978531827002
B 8.743787145757459 9.921027498316633 7.256577776659369
