15
Energy = -83.2093883 eV
B 7.863518417149501 5.397035097745495 5.24618835618852
B 5.924351532654302 7.252418803017421 5.502367736380942
B 6.535957026083113 6.006664065484344 4.744964729300452
B 7.693871358064969 7.06230739222437 5.427732396616276
B 7.180491782948323 8.474337005856615 6.033015786805426
B 6.794353253648126 9.391025558203266 7.281265251505338
B 5.680192626718821 8.152133665806316 6.814623868204479
B 8.495278209977796 5.913778332893456 6.584055617877146
B 6.438039824902195 7.996619128535253 8.204788132827767
B 7.68838499253271 7.60132012659602 9.218329328044044
B 8.66580662734079 6.215151362223425 8.149370371931772
B 9.041650164121311 6.540043001516597 9.621961422363022
B 7.381115500094414 9.412982366026151 8.76861928926073
B 8.098145889663998 9.08144791151124 10.123927787120692
B 8.779114232453919 7.763007620714476 10.539061363927747
