15
Energy = -82.49470112 eV
B 9.381544637152999 6.942591157458186 6.760103262199576
B 7.313570304195017 8.01372546041551 6.711870364245667
B 7.860154686583292 9.619047139211203 6.509543770398142
B 6.212519567649572 7.245132850583016 7.507295102566934
B 8.998551237233976 8.470447055830336 6.54615645374365
B 7.456854101918128 10.601200164687993 7.679519382288632
B 7.768980656191978 6.524592676424506 7.6587215404098234
B 9.22007388313046 5.61899724802024 7.540248216241051
B 8.790453415613747 9.414291372108385 7.962164401439352
B 6.679503363123978 7.26159679797158 8.981463617989407
B 9.001936914161854 6.113661526930923 8.954320887802924
B 7.761474604340167 10.124949439178442 9.149934307704024
B 8.866763299676245 8.92756266139175 9.55190425531537
B 7.242874797744814 8.638646953594185 9.657931349049294
B 8.323428199458421 7.362241164368402 9.707506756780795
