15
Energy = -69.28244462 eV
B 13.722518600586262 13.895352287018326 10.405606247275283
B 12.612789415439632 12.921422886140023 10.846136397386102
B 14.884186058697521 14.899547795486049 10.514776518295488
B 11.724105022396957 11.954241380919633 11.683561003714345
B 15.861440884146319 15.915217877304249 11.17176726780863
B 16.452607933025345 16.837892978692174 12.26816377601166
B 11.15138131816438 11.005766613946088 12.770709084607617
B 16.581404062358153 17.611911531605394 13.601333286013308
B 15.132495760062087 19.062127105258895 17.729400992220803
B 10.934784415572796 10.040017937504585 13.96271774505993
B 16.31902695028699 18.21235852619892 15.003346816758338
B 15.802622916854496 18.68334584355651 16.384409458139608
B 11.02226868576444 9.065166036333894 15.165408681147918
B 11.3171825146614 8.077047075028156 16.32181206619422
B 11.742032066830285 7.079430729855134 17.43169726421414
