15
Energy = -80.33467665 eV
B 7.293462985277722 4.708291120172299 4.472650415943769
B 8.295473416651083 5.231873697282594 3.420252651278681
B 7.4502126383503215 8.816480382216456 8.470328116239005
B 7.12659083228581 5.387898831742234 5.904432191249846
B 8.361161467034607 6.0078176299256745 4.806405113275162
B 8.679719984134831 8.98329282974736 7.367574573491622
B 7.958286341864826 7.479087258472247 7.58001518592584
B 8.432004684475965 6.465060884080116 6.370347882542145
B 6.829714735342796 6.1888636220080775 7.288210784990365
B 7.247363833327447 9.596995779954986 9.929829702415306
B 9.346918654215257 7.764824014943 6.676022637063947
B 6.7315506733428485 10.39646896687704 11.167296014000812
B 6.422885955772422 7.319834864695422 8.305266712226617
B 6.063104115544774 8.36210314365376 9.493583554183894
B 5.760336245119676 9.289893536969275 10.746571027914017
