15
Energy = -76.92584907 eV
B 9.275894155576738 10.491952506235974 10.778564177582858
B 9.474392781149785 12.073784432349916 11.05597690549633
B 10.16005198260561 9.31741138015493 11.089980121225134
B 8.81255894916754 13.512683594876119 10.522988775708264
B 10.785384999659373 10.746437336616946 11.45798082936157
B 9.827715851489291 13.615458833293705 11.641283306411692
B 11.052736685774638 12.620964963804271 11.874043738094446
B 12.138697606691531 11.371983178312162 12.127684873384917
B 12.580783645207985 12.932324525621656 12.485959688609201
B 13.559047499715586 11.5605687205143 12.843467691061667
B 13.989150096765297 13.20814077405258 13.18539986059648
B 14.94684345482367 11.859574996725016 13.538871013816346
B 15.51520221182 13.255306014485274 13.93566915985267
B 17.571081291937972 15.288923069933226 15.131185644587621
B 16.499425198346668 14.333452083755896 14.519910624943043
