15
Energy = -83.77717892 eV
B 9.888371548671575 9.68959082950341 11.329281831267291
B 8.885599572236162 10.574896347331403 10.039149575854694
B 9.789405333104353 12.19860547779797 10.122927139930185
B 8.055706474028268 9.20984944748699 9.149649377947027
B 9.47449181895794 11.700357848438188 8.669573408524467
B 8.401386219884445 8.933705882501085 10.690199386821162
B 9.207207347773727 10.229516585645815 8.239903446904885
B 10.676178520557729 10.701131658905659 9.668216328927759
B 8.91912207476108 8.565968485021042 7.929265429312234
B 11.40954620871989 9.197802083275635 9.23215141861622
B 11.05494586436106 8.296310521040763 10.536401403212892
B 10.479602342562066 8.748536594009861 7.976658796643962
B 10.054356149440858 11.235991009597933 11.332808665961641
B 9.610967575884422 8.271017684356556 9.470661488875736
B 9.645102485628934 7.998708795087783 11.165141551199556
