15
Energy = -81.52516296 eV
B 7.792595935756946 10.838571056627742 8.498632752431305
B 8.275019963916002 8.077798212308497 6.879578318473663
B 7.024875182921816 5.561134685728665 7.615350728036897
B 8.016261995993059 6.897583349896192 7.988505677604218
B 8.150837035688237 9.52723402318601 10.957488731887617
B 8.689869587860873 8.16882319168613 10.400441075613767
B 7.741338884290012 5.5337312574428585 8.9903510739941
B 10.099639170877813 10.022094938541349 6.60396667137877
B 7.662836291765466 10.707176454005593 10.060290126419668
B 10.09256859394794 8.827851372421229 7.607036380774258
B 8.488941844163943 9.46547713450229 9.270282229815264
B 8.547831888807234 6.705760908319859 9.629089665169587
B 9.208549147229155 7.999026042917763 8.711370935093882
B 8.526851319619604 10.029312085501001 7.3771947903928865
B 9.13499548655034 9.010588768671576 5.970808102892563
