15
Energy = -83.30334008 eV
B 8.974709331018671 5.284496425681007 8.376949556937012
B 8.884846091192488 6.002135948759258 9.778405777878438
B 8.859280172193165 7.084107257324484 8.34421584247518
B 8.042386075603034 7.321263214935769 9.980048476845921
B 8.189145501614798 5.898238534928073 7.1600247839793365
B 7.404902482171522 6.127923021817494 8.775308692566721
B 8.189596000100066 7.615038602794513 6.892775397630364
B 6.592555494256405 6.635747322035021 7.411179231697339
B 7.5839873825905055 8.650064657699076 5.751430344110658
B 7.260126047567768 8.038972366124954 8.809213131331644
B 6.562603041698947 8.514059666584345 7.404807025041762
B 6.647322927337122 8.967005291588263 4.46021133888707
B 5.55855468227413 7.39697844193249 6.378532944263125
B 5.927486852397589 9.027679213827424 6.028903184168219
B 5.5501694727428825 7.939090697694711 4.8419533479352985
