16
Energy = -90.10966726 eV
B 6.686480463945145 10.740138051883594 6.767664130763452
B 7.98734324488702 11.269303325708673 7.4527009490253775
B 6.919508762615194 10.2751904358991 8.421513968163218
B 6.205458805197942 9.253767176902336 6.887229206777403
B 6.711997754594731 7.77492614660936 7.187926725116685
B 7.060611545729076 6.278818002854206 7.733331999148263
B 7.9174122946948895 9.106920717961438 7.375585272213588
B 8.653426690427706 6.127746796198505 8.357295529296954
B 7.4013032608351566 9.014959579571686 9.22473618099758
B 7.716862778667208 4.834333050861831 7.881449096835834
B 8.800846408100224 10.306444339725234 8.401182226894543
B 7.902876956341881 7.577673382163537 8.645294342971155
B 9.336554145707238 8.810753404058493 8.469180965313274
B 9.235107924793018 4.595326790660104 8.337140246114618
B 9.828921234232748 7.294263667749484 8.814556596585083
B 10.181573189509026 5.749749764532666 8.879947871043537
