16
Energy = -86.96783239 eV
B 6.3648733491931315 11.056854677273835 8.650961202445247
B 6.701442156608282 9.778023765688259 10.074725856682589
B 9.176884359390614 9.88133610597187 8.114352281911232
B 10.535238115893195 9.029006821104856 7.911708361415759
B 12.059929155321072 8.57240876186427 8.38421141922193
B 5.361187856262801 10.655499599470138 9.855911304364403
B 7.78863076584752 10.634900062332836 8.13129168746387
B 12.94413035035215 8.429808609369957 9.754654295133117
B 9.494292520528829 8.456307056744 9.247140588010756
B 12.005995126909026 7.126085836627536 9.372220935656772
B 5.176822238744897 9.583039325624991 8.74312332238498
B 10.687979247360687 7.518290822396752 8.511223923691375
B 7.967226756854191 9.120631768046806 9.349687973099687
B 6.647074617423666 9.299025951901159 8.234662148447214
B 12.147074592814066 7.733410422134191 10.895277283552028
B 10.65215854096585 7.707248641237374 10.277689078709981
