16
Energy = -88.10062756 eV
B 10.724316 12.954642988623021 10.724316
B 10.724316 9.881969512808976 11.991334871513489
B 10.724316 11.566662487191023 11.991334871513489
B 9.324706088085888 10.724316 11.978238082790515
B 9.363707408217957 12.08092414707693 10.724316
B 12.123925911914112 10.724316 11.978238082790515
B 10.724316 11.566662487191023 9.457297128486513
B 10.724316 9.881969512808976 9.457297128486513
B 9.324706088085888 10.724316 9.470393917209485
B 12.123925911914112 10.724316 9.470393917209485
B 12.08492459178204 12.08092414707693 10.724316
B 12.08492459178204 9.367707852923074 10.724316
B 9.363707408217957 9.367707852923074 10.724316
B 8.280110978834296 10.724316 10.724316
B 10.724316 8.49398901137698 10.724316
B 13.168521021165702 10.724316 10.724316
