16
Energy = -88.75777084 eV
B 7.100456058575939 5.96292031751101 5.0459678531807
B 5.446145197150243 5.9315878611109785 5.364414521537328
B 7.679826315752672 7.452129529241288 5.7802144461423755
B 6.0675448300780035 7.4746322689279125 5.09277594050506
B 6.60781078844561 5.363807794811664 6.592570523571206
B 5.365962145500186 7.172836417489664 6.640675189300466
B 8.214357927917714 5.784073449785083 6.2658217320242855
B 7.8238576178451975 8.619773215647045 7.079156877073118
B 4.950161477213215 5.551816673771175 6.910847021432714
B 8.859272389819024 7.107130494479317 7.03689340008854
B 6.3312316759095895 8.528586381011422 6.351271842613018
B 5.885124800480814 6.150045318873422 8.11339906223958
B 6.4901175026423585 7.909879108859161 7.91533422306262
B 8.177641091300178 7.707592962149687 8.454618233657975
B 7.720721820846507 6.092930403933494 7.853721106895037
B 6.934692715298942 6.845182157173458 9.157242381451331
