16
Energy = -88.72608251 eV
B 6.161407983036148 11.532378482835451 11.90019276657192
B 6.561112580788785 11.582942491204603 10.359716557688555
B 6.697273652979702 10.019299781764516 11.304484903477189
B 6.199824055971179 10.359525796800304 12.88732953598748
B 6.964344865214437 11.548096200655978 8.829787111806471
B 7.090760893083856 10.069708011174164 9.600908466092898
B 6.691965427373796 8.902139392707658 12.735134062186406
B 7.416477198992601 10.38175194688575 7.93657375433413
B 7.320849766208334 8.603541254197706 10.334165891622561
B 7.298016023133883 7.730582896521608 11.850742847563565
B 7.810758190451794 7.037834772071131 10.56894999955402
B 7.841548729466882 9.268211488049703 6.828197975725237
B 8.171726626051466 8.232848618992108 5.750711625254759
B 8.102815260543569 7.446084481262483 7.444241851518601
B 7.884498158575506 7.49584561832728 9.076829213427589
B 8.397252941527313 6.772304022687074 6.0758554572251215
