17
Energy = -90.72783024 eV
B 6.8647388317868065 6.4762024393773 10.42702453735238
B 8.258253630089225 5.756898374546458 10.607424968150923
B 9.379700379840154 6.345290802123743 9.724762377748757
B 7.588894282878923 6.159634298291177 9.038147846074827
B 8.101461590522351 7.503799140905912 10.532837179564066
B 10.291749937727612 7.175831084923334 8.64337856935055
B 10.294547443616933 8.798754676923762 8.395487161536245
B 8.612199876071296 8.65928093902271 7.794530718129035
B 8.495576765746568 6.991825752621811 7.92009014173607
B 9.033206048882466 8.340779847595009 9.460330238048702
B 9.856648827495412 7.57804127637462 7.043742466333385
B 9.89993365660128 9.116248603643816 6.643978632755777
B 9.489332377437291 10.252157266593992 7.637788526010224
B 7.71024558322433 13.700838757942984 9.5145492580411
B 8.857081462819828 12.627635958579365 9.63661618840661
B 9.040458804456685 11.586395521117938 8.47345038605842
B 7.8656765256458145 12.765948793223947 8.305134369523836
