17
Energy = -97.51447752 eV
B 7.660557191978297 10.208179254988327 7.435206495259513
B 8.781561649753941 10.522604974606336 8.568377390550841
B 8.300595621707009 8.825337316240644 8.189124287670763
B 9.162324014211281 7.591235692806727 9.033675627501294
B 10.426532792012415 7.992549894431599 10.244616219469158
B 9.952145367113697 6.498121431756879 9.986991602316214
B 8.796809007503681 5.9552396056625705 9.01485730122019
B 7.820121012048052 7.139733828380226 7.989715928285483
B 7.61584407301491 5.4732955609056315 8.039245830928534
B 6.644941642578407 6.159259876793618 7.090013239516656
B 5.925808093897352 7.30196157549763 6.277306718492756
B 5.782886837955636 8.780183567602268 5.89931555792236
B 6.508994934474007 10.051816097577335 6.353068705793655
B 7.0146213415195176 8.587259550149861 7.070195075422004
B 9.545351602221697 9.192385146765938 9.319005592206672
B 9.943335289323029 10.725228631350305 9.66225015595266
B 10.699477150728391 9.581302775461388 10.408549144747434
