17
Energy = -94.37829738 eV
B 8.141636712615048 8.666336788148683 6.820419925218314
B 9.51833871780951 7.58270770838156 8.11318677999283
B 9.74048043729793 8.592733304254468 6.989988028802534
B 8.207237147185008 6.65024175545208 8.156554180113893
B 7.499450570978658 7.410746154868033 5.70188444611097
B 8.974760787289565 7.134678581949698 6.474753536280339
B 6.599981042765032 8.26977169496882 7.187687771146673
B 7.842490087822259 5.826106405275876 6.6285606028677035
B 6.180375144942671 6.652910932828715 5.222412629993344
B 6.582147256347108 6.599180780131131 8.229343724966226
B 5.218756773370541 7.5274874324399 7.003921691073335
B 6.724135627002038 4.939898748942485 5.895206350650892
B 5.0520732639124 6.178530807510994 8.276809716673062
B 4.502003647029756 6.440905749684329 5.662235013708385
B 5.397719455180046 5.171010346543745 5.080239703246505
B 3.94602074546711 6.426101634957247 7.1787319065074815
B 5.288964036199235 5.347222626875829 6.794635445861258
