17
Energy = -90.33374451 eV
B 11.398197170769455 7.424418250302086 7.088950412692252
B 10.220927325449237 7.151420548473945 5.999486506417672
B 10.543645461208243 6.230761459152826 7.62973782177243
B 9.992870253861794 8.20873698703696 7.519383934583653
B 8.75099292614295 7.708339380670996 5.977737606298602
B 9.044483556423597 6.588471119209287 7.2867609563287035
B 8.953090850677196 11.813610375746613 8.980516330269886
B 9.458686046086815 10.558937735012169 9.722665174672228
B 9.107113752421368 9.255609529195619 8.526732757137205
B 8.244434027017569 8.092555876993954 7.461929757274019
B 8.478536564609895 9.354772279622912 10.140219594473095
B 7.395660412760256 9.103420077546621 8.601700493801197
B 7.942951333262515 10.666397337005014 8.670615270911128
B 7.286041893480412 8.419452868010309 10.71505883093848
B 6.072276349682142 8.313143818229733 9.259685964798976
B 6.039397844939319 7.514282225458776 10.855458836978732
B 4.895578863957568 7.524478230860127 9.86269856365503
