17
Energy = -92.8237509 eV
B 11.107658894172395 7.111929096719178 10.521971682043594
B 10.77249305278292 7.8718062122384325 9.196060971127045
B 10.151866421513146 6.359121020363968 11.471118487680844
B 9.440764547016064 7.052572909746217 10.078354212181262
B 10.492013283623802 8.675890183929448 7.802763506813535
B 9.135862161938386 7.932957429325661 8.610606242843833
B 10.336810106537124 9.251890957069675 6.362689916938804
B 7.879930540520928 7.23645647698508 9.518135749415661
B 10.361727116678358 9.657793570701987 4.874110326803836
B 8.880731235032938 9.007230646686471 7.218324143729396
B 7.612801345585119 8.139654661387908 8.128600545396623
B 6.3262056217065465 7.579963584931849 9.231671171758443
B 7.28839987285782 9.369530477136356 6.891575773841855
B 6.060771077084406 8.488610373561157 7.732058110394713
B 4.8936149609823545 8.246333836211543 8.919685242293568
B 5.76657781231317 9.852655615545036 6.815989435584422
B 4.622739194079678 9.296576406016118 7.7554335184228025
