17
Energy = -92.51471739 eV
B 11.503735878157604 9.524903813241226 10.15347729090226
B 10.314512024445591 10.597708542279305 10.472886435390722
B 10.383426460934793 9.614306131463943 8.931463140659442
B 10.402618918915785 8.78772861539939 10.982858849146538
B 8.562916594405147 9.833719529527324 8.611458970972247
B 9.347124158103913 8.325197054070602 8.638812348276538
B 7.8411160993758005 8.698222545049699 7.576838555408919
B 9.067144982300691 10.938629916233719 9.614258386787753
B 8.699679527299903 7.020947374160828 7.876136162886651
B 7.373057984507074 6.280096753450452 8.420449226649982
B 6.424009696229842 7.6310981386766805 7.550057694818961
B 9.06722946685624 9.266556288273646 10.247129603959968
B 8.003344980355127 7.325366977558453 6.40703125791198
B 5.85391487805204 6.1117232851012675 8.122174693068462
B 7.0020188096056435 8.720377114971981 6.189943718581236
B 6.3518870088541455 7.405065340134697 5.6884995262214115
B 5.595052102567013 6.368307798846086 6.615103586251652
