17
Energy = -95.46470159 eV
B 7.794424183943364 7.288092508999368 7.329929565770903
B 6.982401373030991 6.534394157429561 8.54534180445281
B 6.664335120021784 8.148219396195374 6.075033622676682
B 8.49078417373842 6.271707861652928 6.067542332369242
B 6.047317320571366 7.516589999980573 7.629709354417643
B 5.036509829931519 8.13229992374135 6.533495157257338
B 7.369101174889589 5.605636606331222 7.212997832912299
B 8.252640210722914 7.8636665791649145 5.773645377974193
B 5.754906055510667 5.591474190435657 7.9430645961188295
B 7.2265862202275155 6.779457380281294 4.921889218874147
B 5.534016163291985 6.979333868106459 5.400880694402523
B 4.463510286454918 6.627835535173157 6.672155060081289
B 7.6031636580622575 5.001470285485492 5.626223437838131
B 6.10015358993426 4.805679386190747 6.3349292747909
B 4.543374443065524 4.9908483652951885 7.0246510809894716
B 4.768302378566944 5.410604671901115 5.413277610034995
B 6.185883366319179 5.500777204167149 4.640919745235395
