17
Energy = -97.51968253 eV
B 9.765295967389978 10.192484365710396 8.935773207268669
B 8.256663021190276 10.616423617355057 9.372982945471664
B 6.726963297724436 10.94636526817776 9.746699766125358
B 7.010045527118679 9.469578798838587 9.150034673920963
B 7.2312660409815095 7.940441316283964 8.521152686651412
B 5.8593564511670255 7.035353950125284 8.356998066114246
B 7.253971427481529 6.390587907771033 7.891391569102062
B 8.813264216398562 7.374064473772508 8.01390913601738
B 8.67608467514985 5.807013195315239 7.42503313566165
B 10.102381751249796 6.341712926040899 7.361761115914825
B 10.220012738066526 8.624640064951516 8.21788323763175
B 11.325541527703477 7.323963905431129 7.484066834725711
B 11.903451971671776 8.686227804353798 7.889470876578536
B 11.278292801193913 9.930922877888356 8.526835219751254
B 8.602294453970606 8.97854177854296 8.694585369886278
B 5.513927135869521 9.982076866269017 9.559634805828017
B 5.5755003346304095 8.474600411702337 8.968485253478535
