17
Energy = -93.19677587 eV
B 8.186449647933193 5.607895498691359 10.530580662033062
B 9.30947815130555 4.718431559203004 9.660997624526365
B 10.589727525183646 4.032076309732708 9.109823087824887
B 9.930692203228421 5.313833278079104 8.171869864012546
B 10.376759017939971 5.99405461454861 6.761609995941765
B 9.734771623483997 7.273726160264222 6.1446852129660865
B 8.988073458303415 6.549423261551167 7.435798225382691
B 8.562594986815078 8.108479403633282 6.784363624472178
B 7.533980476874449 8.983559008178705 7.655712307950523
B 6.459973921826598 9.714347755341667 8.560708919133171
B 5.614643416923326 10.679774164444106 9.602344532212669
B 5.944931646257373 9.271902080425175 10.20318951462417
B 7.0846964382050315 6.452134908423619 11.31410505190121
B 6.541194534991352 7.861396791077515 10.844343157448467
B 7.885982681831452 7.196416983866883 10.051939840233608
B 8.647967377627284 6.125628029502086 9.002979742866927
B 7.30211115112975 8.606995151576422 9.438658151665
