18
Energy = -100.9458619 eV
B 9.854357034466894 11.335012 12.307556697283452
B 11.335012 12.225854565100247 12.262877748851142
B 11.335012 13.744032539647245 11.335012
B 11.335012 8.92599146035276 11.335012
B 9.889159289412973 9.610147758030452 11.335012
B 11.335012 10.444169434899752 10.407146251148864
B 12.815666965533111 11.335012 10.362467302716547
B 12.780864710587034 13.059876241969551 11.335012
B 9.854357034466894 11.335012 10.362467302716547
B 11.335012 12.225854565100247 10.407146251148864
B 11.335012 10.444169434899752 12.262877748851142
B 12.815666965533111 11.335012 12.307556697283452
B 8.549652175075085 10.563012283588284 11.335012
B 14.120371824924918 12.107011716411712 11.335012
B 14.120371824924918 10.563012283588284 11.335012
B 8.549652175075085 12.107011716411712 11.335012
B 12.780864710587034 9.610147758030452 11.335012
B 9.889159289412973 13.059876241969551 11.335012
