18
Energy = -94.30837378 eV
B 12.171633 11.240963409826513 12.814793962260334
B 13.687119530392323 12.171633 12.904387510057656
B 13.043132742516484 11.3141080518722 14.384025144635569
B 13.043132742516484 13.029157948127807 14.384025144635569
B 12.171633 11.05286535904443 10.029038461472068
B 12.171633 13.102302590173492 12.814793962260334
B 10.656146469607679 12.171633 12.904387510057656
B 11.30013325748352 13.029157948127807 14.384025144635569
B 12.171633 13.290400640955568 10.029038461472068
B 13.493586548012752 12.171633 9.94719699225458
B 10.84967945198724 12.171633 9.94719699225458
B 11.30013325748352 11.3141080518722 14.384025144635569
B 12.171633 12.171633 15.50447764134399
B 12.171633 12.171633 8.860745077787987
B 11.075974992690115 11.27954435888435 11.449309212559026
B 13.267291007309888 11.27954435888435 11.449309212559026
B 13.267291007309888 13.063721641115652 11.449309212559026
B 11.075974992690115 13.063721641115652 11.449309212559026
