18
Energy = -102.7004851 eV
B 9.64401751058174 7.933079147197788 7.692010696889075
B 10.914371270152914 7.79259915037852 8.73678498926876
B 10.078384667359828 6.476738717720428 8.552644154119127
B 10.424023829709299 9.310815770684343 8.458906494515638
B 7.046178179959897 6.812344423356237 7.080671177355149
B 7.375737850792105 5.3974444983163306 8.105034876340016
B 5.8960766508907945 6.053037121195347 8.103517860413415
B 8.957437213117707 9.51155510357365 7.502057831334466
B 7.272376117467205 9.418041521368853 7.51447707148328
B 8.901996489083622 5.388205527390929 8.370844052406191
B 8.130080180246072 8.064032532158674 6.99949107301448
B 6.942447705123061 7.934154927914803 8.605842495355438
B 8.272938018092692 6.98756379687783 8.62583349631087
B 5.397611754610639 7.500580918133987 7.86939249548358
B 9.553058689938995 10.629332043949574 8.586013819989123
B 5.641140618386349 9.083920368958974 8.141097630459699
B 8.007134953355584 10.766021165710576 8.35794590748448
B 6.387066978067413 10.432188597703188 8.459513737189168
