18
Energy = -99.00458988 eV
B 7.1088847095000025 8.698624791995 7.279374691291139
B 7.620057324387522 7.14779087906438 6.624210446990752
B 7.9087101473944275 7.411915634434916 8.366265159401383
B 6.409601066817983 9.966039024730321 8.184409698386235
B 8.564163696437124 8.524244106134965 6.556124047348034
B 5.808102586022029 11.460668877818774 8.514151303953799
B 9.402051987759137 7.366303625967117 7.37337908250878
B 7.306094283697524 8.731123844374133 9.147510406267251
B 5.621103035054802 11.02529291767955 10.010155475298081
B 7.355433237395622 11.376483109114869 8.914461737836305
B 8.37943457942346 10.1996215790304 9.069577138957294
B 8.914473470644948 8.882097558885668 8.169415900253904
B 8.100030087897695 5.91495395703893 7.507838159165941
B 6.861429516402757 10.000683898747708 10.035956423656206
B 10.278999411997749 5.935593789542946 7.441692037262762
B 8.993865929527507 4.614840768626577 7.788618881406441
B 11.491417429017018 4.95476067358305 7.5044648121485285
B 10.384960592443166 3.96531206669559 7.815281274432203
