18
Energy = -101.98034749 eV
B 9.747080644782034 11.35754976376686 8.312574452070084
B 10.580617611772954 11.857171006361847 9.693312879840496
B 9.697962363245555 9.782168504785318 7.928494857106937
B 9.32291448720728 9.660430033085234 11.465282114819079
B 9.844717977701105 7.08235232327788 9.391036565658839
B 9.623016785210465 8.180115498233834 10.700655978115096
B 9.645039096170878 11.138575397221308 10.949977219138066
B 8.838873737225834 11.80432856579094 9.630779051618285
B 10.939945728851226 10.284392244541298 8.899238750464386
B 8.06433791446939 8.774173642442847 10.69303131757087
B 8.301407548482276 10.323343443799219 10.275070154581773
B 7.880498004587461 9.137461370823381 8.969007433145851
B 8.234830452887874 10.63315055844824 8.492732217324967
B 11.145422130256197 7.704825015644831 10.002647174974609
B 11.716909194960545 9.238372591764474 10.006563210280845
B 11.58536261235926 10.814393234517889 10.361932067500106
B 10.548973201730353 8.641609905985863 8.662322838702943
B 8.322803469227285 7.613101400300982 9.600485364633748
