18
Energy = -102.07809773 eV
B 8.527215809684312 6.08475391530023 7.229055387608787
B 7.990727273225463 5.571477104856957 5.793521858649728
B 5.738952651319659 9.825514481388884 7.720073410340745
B 5.49594551926864 6.813404920777241 4.75908583863885
B 5.778842162498676 9.695639915880708 6.110078967555523
B 5.511988744659828 8.356730302592277 5.242920815064588
B 5.135076632568192 6.768391399302611 6.441391375092974
B 7.109234177892841 8.450648393297035 7.914235143710217
B 8.213790233987293 7.73493696832166 6.849839291263829
B 5.662717623804138 6.669587594143295 7.963412705895069
B 6.4734636880662695 7.4102374521206364 9.288647781495248
B 7.132153341697593 7.2869889722547905 5.447354552145202
B 7.626235571986439 6.646688189019615 8.450131266423387
B 6.698203488406702 5.743607584573086 4.910723653100769
B 6.734814738224776 5.984751913612269 6.8469648504462475
B 7.265357677607058 8.827975857558856 6.13433066632272
B 5.849118707988839 8.86474407324238 8.962748249340173
B 5.30547901091011 8.281848487094527 7.182531174727912
