18
Energy = -101.15051043 eV
B 5.660972317081239 9.862933939211691 8.68701317646254
B 5.912306754285771 10.95795994337975 7.59093297995856
B 7.170733085147445 10.822709104388174 6.646511243987833
B 7.3201485716485095 8.183100895761052 7.595760006758036
B 6.775644541270785 8.79326508922192 9.20199853153988
B 6.354183428997751 9.31945810690754 7.053950323747399
B 7.412186207098432 10.232481243197231 8.297361109592424
B 8.112569332286181 9.525803153403315 6.732929638120631
B 8.412180236517022 9.504295057281482 9.434623412395815
B 9.06772728508919 8.19258698878735 7.050141120650178
B 9.851738007512594 7.958335986211597 8.61679621315811
B 9.709464666200757 8.895823146092676 10.085743246995877
B 9.174105886028997 6.556988774166715 9.564697476805959
B 9.649015349041756 6.734548631217593 7.185642389383004
B 7.987939801717491 7.661237549654 9.158251217223519
B 10.478765840935296 7.569957904664618 10.398696160059972
B 10.223416221701694 5.856664120641013 8.337520458219766
B 10.894928214369072 6.2658675466112514 9.68173956027791
