19
Energy = -109.70912406 eV
B 8.97102579514199 10.679405752502404 6.545208878298554
B 8.114304294722244 9.901419655684832 7.683017970833157
B 10.401796397772879 11.317118818131886 6.672524176015308
B 7.483746518242435 9.206770595274122 8.969746885190125
B 9.783906180290009 10.560750609561667 7.967228414522004
B 11.330288618794215 11.336644001341565 7.993169110650312
B 9.016394165199795 9.827110150824112 9.252311598197382
B 10.574218358598184 10.514372546483866 9.438189094454911
B 12.20500156673624 11.361854875932377 9.332664484888548
B 12.936682386332127 11.320961039360297 10.716519766793239
B 8.04103560071252 9.037688975701823 10.428178018316814
B 9.811944337728795 9.806840050357486 10.721359052055844
B 11.409069543624565 10.530600746702989 10.966203367092737
B 12.703634930864316 10.867298758945534 12.145457196366609
B 8.715938647325093 8.980102415497697 11.909404341040782
B 10.347735597178751 9.701381758990248 12.273083567853154
B 11.825552675123474 10.211834343041936 13.268348750760456
B 9.279514756805215 8.929117291667371 13.367856407237548
B 10.620730529540392 9.481248514730456 13.92204982016547
