19
Energy = -102.83107868 eV
B 8.602692260985831 8.045952503703283 5.267421768406102
B 8.725965900623388 9.580144528369702 5.590108719510402
B 7.415710777325761 8.77163709124297 6.598629951441194
B 7.988969810274789 7.076211742070699 6.3403788770664535
B 9.208877349164522 8.346757582649133 6.87113574158226
B 7.754318009936654 10.481142282865891 6.41882973706161
B 7.017514449268602 7.321161519723703 7.53657109692977
B 6.774156687430779 10.080717781329561 7.573821673757909
B 6.795486530144439 8.690042728013292 8.363106770409328
B 9.716904144671151 8.404569758806174 8.45958722599757
B 9.715354301187665 9.493781244386755 9.827578851762858
B 8.183356736759553 8.624831890697179 9.43219828779357
B 10.913375303873337 8.116515848231522 9.56529531047889
B 9.398695012593892 7.3246148156424855 9.807224088258561
B 8.314933655572522 9.477421482652304 10.968396131248305
B 9.877858130934117 10.02168986374054 11.444532851972319
B 8.656691968981285 7.765437897277849 11.183243005749135
B 10.344063972370671 8.283597967638176 11.095630722399543
B 9.262701319237305 8.761397792295348 12.323935509510429
