19
Energy = -105.89024919 eV
B 8.08470563486651 8.490545947340008 5.253165858427715
B 8.431413856452847 6.891520270341836 5.877741612443809
B 6.9393801446864165 7.720884014689361 6.13661475718157
B 9.652879902888516 7.938743653450633 5.715302613520181
B 9.252619392761137 9.638505974810274 5.471362521635021
B 8.56148554358753 9.98159400247375 6.9217946457787285
B 7.612249001877192 6.449873097734008 7.241891863999017
B 9.054512348347064 7.5200046049554565 7.343989554302352
B 9.968625514177683 8.9813581911318 6.95493178262443
B 6.270072688360881 8.104086928754214 7.64731610983192
B 9.047465399794739 8.956693957540628 8.283778398437077
B 6.947024469359781 5.309812584059287 8.27406529977048
B 7.417062632024961 9.32110507851882 7.862304635491027
B 5.2288311111368735 7.3142070911044 8.720038047234107
B 5.344037922957525 5.645119192257624 8.655746608173517
B 7.011675220007444 6.806218839822306 9.649874248545729
B 7.909969207362352 7.844459065187022 8.725005134014932
B 6.483401444386413 5.235033845952288 9.813740377664372
B 5.4260583454858 6.493703440397816 10.094805711445813
