19
Energy = -108.91770478 eV
B 9.955197879180174 8.69433038126565 6.933482360225918
B 11.310601153668797 9.275497730897445 7.622694782620398
B 8.725566766486338 7.969410872086218 7.535017496166814
B 7.33598206235031 8.346481182159673 8.314285945303782
B 12.276719586561946 9.930552286816306 8.676782742914199
B 9.014570659468719 9.315841235344132 8.573363364868559
B 10.226031860161626 8.01086454572718 8.572743188318752
B 10.509064204782021 9.963177651362958 9.138885221061095
B 11.587346039653518 8.441635544564722 9.24986988861029
B 6.158938184593919 8.914455497625525 9.210450169955035
B 7.605457383406922 9.657032851147841 9.503720146882817
B 9.048906251730383 10.387413085152081 9.958209250613981
B 12.168857371678484 9.83067440484794 10.275109117406041
B 6.2505727230823975 9.917048679157682 10.407047852017891
B 10.49277537926926 10.49532490195614 10.794774335944167
B 7.609216450191716 10.582056021054314 10.982090192118573
B 9.056740535755768 10.844643108486075 11.694428213041501
B 11.81517873636849 10.263577078071775 11.781267686248336
B 10.489135042996311 10.796841213663571 12.412636317068944
