19
Energy = -107.72914848 eV
B 7.086119473347618 6.193497527790887 3.7952644535433078
B 6.73821852234516 3.773703751144924 7.3797613547557015
B 7.855935531336903 5.504585781333227 5.00095634960461
B 5.976218483366007 5.491979311278722 4.965620021779843
B 7.804973574164126 5.03718594715394 6.547757066411755
B 7.512356246210363 7.497184454296654 4.979744576983463
B 6.50154432587761 7.668937356117293 3.6114746927112926
B 5.940989778024779 4.35652856317171 6.114114934523355
B 6.0017999833818 7.342945599159005 5.876941170563837
B 5.130871524706 5.9352223938166775 6.331329069383244
B 7.8419793900221215 6.906216567266054 6.465274779628774
B 6.185488382765389 8.712014932074089 4.767481672270286
B 7.556082155710232 4.749020805451918 8.271248096343106
B 5.697454271437683 5.148586716447108 7.818608816113235
B 6.339506113074879 6.8996500085815375 7.544350519608186
B 4.850345183598235 7.773208568779524 7.156837895520284
B 4.670874061744357 6.34437311375626 7.9427265023104425
B 7.902602322627988 6.264220309250224 7.9143742950072244
B 5.1848308234100156 8.884601333657075 6.008752884122026
