19
Energy = -106.36099874 eV
B 12.401310188160373 9.403160799442372 9.59654565231164
B 10.97308555205406 9.896453736363183 10.106982605742516
B 9.502691327684303 8.747724220944916 10.272769652622388
B 10.26025848800079 7.471411345330326 9.411973124365746
B 12.863700016866458 8.398018347511634 8.523022961264461
B 11.254071884351728 9.003985378255097 8.351660699999032
B 8.073225420574285 9.483331661564565 9.897498252272676
B 8.751442042823419 7.827887132320726 8.829353423388973
B 11.76639053998249 7.388972440665545 8.900791675251808
B 9.512613499152378 10.510853120994994 9.873171791740614
B 7.347230951512243 7.4176051510928565 7.999695972457316
B 9.607586981424944 9.462439103334935 8.342116971196436
B 7.97428989238494 9.105147401966953 8.04909137854297
B 6.836675836940622 10.280160645755696 8.87867259172635
B 8.390570158678212 10.806354095377406 8.739265094878508
B 6.31873397027502 8.817776732145976 7.913012465764247
B 5.772849003919299 7.2247547932905665 7.929611012116903
B 4.803527820343545 8.355859002648904 8.402483378491658
B 5.314311752739251 9.759287498795782 8.91343366184766
