20
Energy = -115.59364757 eV
B 6.485632705603688 10.374459281859185 9.575545055259386
B 6.671051174619152 9.777318182884825 11.043110866823897
B 6.871255101272576 10.795870878810241 8.16059853825136
B 7.427655554333225 9.173360409241132 12.217012618321569
B 8.172518301488392 10.202088513390384 9.055323246398254
B 8.235742198189731 10.811252037300859 7.3387497639136905
B 8.409311417032338 9.477552577358415 10.877449590551059
B 8.960356012328436 8.827978364704377 12.495875270757054
B 9.572685203905715 9.985618047905543 8.069318935640764
B 9.644523299464693 10.8569069213876 6.611432006928812
B 9.718295322485272 9.652561878143846 9.688448458495753
B 10.009044698326004 8.860209875963898 11.11447290890308
B 10.507894491405562 8.584053936324874 12.71674397013169
B 11.104618972750863 10.381859983527617 7.0002320351094935
B 11.14036092029228 9.990600907161225 8.674965504322246
B 11.359071589673754 9.433595603570721 10.29112320075875
B 11.777988375707995 8.66710406059074 11.773562711097197
B 12.48979625264161 9.973534961501816 7.68599676184854
B 12.783838123206905 9.498806649711353 9.186304039448542
B 12.909698886574414 8.926605529963412 10.675073118340647
