20
Energy = -111.25603076 eV
B 7.667604713197714 8.653125941515622 5.511937783768442
B 10.185820216291724 9.421065157268817 6.456823909783296
B 8.8108249123498 9.93326853840659 5.937989817683341
B 8.875237747931044 8.39245281990862 7.005129541643956
B 7.200710159804034 10.097490305019162 6.275029839938697
B 7.520071756263167 7.241622017144346 6.282239255062828
B 7.129311157570925 8.689549612226577 7.164394833380832
B 10.575389509925804 8.373106466691041 7.569970032473501
B 8.156897975989072 9.989894693295023 7.708519435242826
B 7.551115042970381 7.162366392973439 7.851408057310651
B 7.7391970832215415 7.375544852168956 9.516097633914201
B 10.581607457157489 7.666062558437036 8.956649812101682
B 8.507078734239428 10.1600884210787 9.349102479225985
B 7.601766724883125 8.966246851890483 10.213539185685265
B 7.224485080159993 7.636205322740823 11.144159300744064
B 8.750708031899173 7.011284468593109 11.065503443972132
B 10.030949246334268 6.852720813323588 10.191566420248392
B 8.827835026599914 10.008042338598571 10.881273081829297
B 9.26431829951877 8.40608078873499 9.922210656578086
B 8.480820247978349 8.645530764269893 11.678204603698237
