20
Energy = -114.17896619 eV
B 6.794042479829374 7.729811730694881 6.019338084189461
B 7.304596701941987 9.313253566883619 5.9176867415057
B 8.416389170426834 10.415079286213219 6.17629683166826
B 7.663873887555419 4.673136710472804 7.187785748691387
B 7.279092745602663 6.2593236577904126 6.449760564279623
B 6.313369892416381 7.1722349280374305 7.586706838688987
B 6.390871911699717 8.763682378788166 7.235567355669375
B 8.993279278751231 10.84362327477555 7.608353293297236
B 6.453291298370437 5.401398795765678 7.9055189220855135
B 8.92917487899608 5.511502471118704 6.8628147526384415
B 9.58378987330863 6.685273663698279 7.684558419145341
B 9.391732537479857 10.912950723047379 9.136439442532387
B 9.095322620829075 7.6278311115924895 8.857746065730177
B 9.229876953771495 9.877176746106787 10.312889995017054
B 7.6113007069094945 9.790671567875489 7.506676626890823
B 7.968486685031907 6.310122624267795 8.245375665126682
B 6.4660485010838995 6.433763479840755 9.151751149468419
B 8.687980681799711 9.385153212374636 8.77253005727765
B 8.641328602712527 8.42271855936277 10.282034904427569
B 7.581877486660368 7.2670184064694086 9.89589543684687
