20
Energy = -115.75704133 eV
B 6.632339821319102 10.837908956510585 11.666852101577664
B 7.1007606532358265 9.363560350813607 11.194598207666504
B 7.3494457457495495 12.21205706197659 11.45927707293981
B 7.917723208068103 8.009042888001892 10.85846338192383
B 7.796565728163948 10.930958477581889 10.488836347066112
B 8.58777768609981 9.42396876355136 10.295312610082185
B 9.37323984490248 7.845146313371112 10.240395175015005
B 8.757953880705271 12.454164461789363 10.773423851591375
B 9.36869581516599 10.905108358306355 9.955467883913418
B 10.223683186230238 9.390865316628744 10.171899601827025
B 10.31202532028354 12.428619396084768 10.345239529733854
B 10.96528624019115 7.819156484360959 9.862537792315234
B 10.934132604573357 10.878290031217018 9.58244782731316
B 11.895804931197056 12.39949924702679 10.044065985712853
B 11.738680668829584 9.37400177213919 9.539292378334617
B 12.54724605608451 7.93606660240664 9.75782317756061
B 12.57835588252564 10.854211069121982 9.357058287084362
B 13.455444485076463 12.110789402256128 10.015811739839164
B 13.469181276521972 9.261792855437559 9.67236081647505
B 14.148913534409253 10.718048760750465 9.872092801361454
