20
Energy = -115.80285546 eV
B 6.41798808811288 9.023218023416579 9.648970049017066
B 7.1314825898195755 8.22397276337234 8.394760977915082
B 7.1953711616640526 10.031595412192942 8.602226332298088
B 7.623761526781621 8.021553184296327 10.155096013713115
B 7.687378538171331 9.837181598112329 10.320087815483449
B 8.11397778043908 7.4954056558775095 7.289025468846302
B 8.167969681038443 10.810968904081038 7.591196732621836
B 8.283071112042967 9.131730502444094 7.3668161109281955
B 8.50131664239532 7.20900753189447 8.857053796097382
B 8.914554835009746 10.577623820990775 9.120836754848211
B 8.99514562181745 7.14149774707477 10.418225975842342
B 9.090616721657234 10.440739749395867 10.819035384908444
B 9.182662541719722 8.76293903451246 10.617996504326277
B 9.65552146186496 10.356083774211358 7.4191517806734275
B 9.703600022860142 7.79068464216815 7.531142451250072
B 10.245539130146074 7.589166513273976 9.46209756596533
B 10.421000006580854 10.024685071294936 10.098298107493582
B 10.793527937429968 9.2637812036896 7.556987880988352
B 11.20530020476806 7.814225975294464 8.156419736905466
B 11.278851831716487 9.062576328441095 9.183211995913437
