20
Energy = -113.65489769 eV
B 10.230625709149388 10.857485712672426 8.021253547834595
B 11.16052556969794 8.46134038107537 9.282911458845934
B 11.454939700125381 11.261143446871174 10.447856477804649
B 9.017035731113188 10.115399045316721 11.204328844875949
B 10.589857574042236 9.278393564183013 7.861660363642485
B 9.599199557921533 12.25139321834708 8.66411825016847
B 7.575098730037699 8.250414854921717 9.68708256351064
B 8.739630979642273 7.510423046990369 8.89078051242593
B 10.224210364862229 7.294988115737107 9.832765761301564
B 8.030308562636085 9.970956194733114 9.636109154671427
B 7.812363786112519 9.015763390777002 11.038768775279108
B 10.153930236493514 7.74425046252832 8.147838552855886
B 11.403488639029439 10.111613919831642 9.261973771284291
B 8.389405596786421 11.20744682570141 8.665164378542302
B 9.756954272664606 10.8191566039589 9.7776582926876
B 10.835359220712725 9.930125498045449 11.310163044242604
B 10.27186754195416 12.483062079622018 10.18640708357394
B 8.95294839140453 7.871191211775247 10.680306676197436
B 10.612447674419396 8.344981017063912 11.018358708433105
B 10.052292948040067 11.45574368698964 11.443262417779776
