20
Energy = -114.19379375 eV
B 8.790219131309538 8.693298528335966 6.861423989634283
B 8.223939121011956 7.069899389283668 6.462520910903317
B 9.808911010536736 7.4326970579558775 7.541376368922025
B 7.1720947417022005 8.289575425768277 6.554761909185285
B 7.3342884410991065 7.381731450656638 7.9767999906811164
B 8.651591998651085 6.062523288101175 7.66297929706849
B 10.26546947657168 9.008113390394753 7.533878800199612
B 9.973674803812766 8.310060125463492 9.068296857951069
B 7.734990236586119 6.105466214762137 9.043108378089698
B 9.22178363188563 6.857535284204925 9.043043415678222
B 9.082310112983714 11.213229457599915 9.414978073415305
B 7.329635765120525 9.287365490420534 7.758697624034195
B 10.471204878222673 10.068415867450232 8.798200616668007
B 9.488038717717181 11.272940093604651 11.118301870278419
B 8.111040585522632 10.486104701034632 10.916628164650323
B 10.646105067335407 11.009643679301746 10.098005424929031
B 7.899237932571352 10.290507631886715 8.938100400105164
B 7.5465758822400995 7.524153966901738 9.699595947458253
B 9.430935736311179 9.576865282208264 10.121991629236614
B 7.785153134458855 9.027074080314444 10.354510736561966
