20
Energy = -115.95577052 eV
B 6.501774061595627 8.734210223777726 8.592766981746788
B 6.633583603145242 9.161680143203803 10.217161046346625
B 6.935103337004808 10.284385630040322 9.114875947424096
B 6.9618591254819036 7.609626466486989 9.649068983290228
B 7.102103680958813 9.845981696032663 7.517723893686695
B 7.724583631237307 8.283224430530991 10.996354527315846
B 8.160522208989617 10.925504653434333 8.246519045525094
B 8.309746989312192 6.893472601109983 10.30394463401756
B 8.448413027091162 10.209223116079011 6.668445537952837
B 9.3085099180414 10.650866232010966 9.425456902515098
B 9.342193587849557 8.043364238152169 10.959029324943257
B 9.756540355672936 10.492958216517785 7.792233984518444
B 9.777569105651377 9.571091432828897 10.45072862477748
B 9.893522594967534 6.683791708651074 9.978439116452707
B 9.930598900397333 9.837479168930406 6.261219592052092
B 10.671840154015399 9.710527765029589 9.013086566495401
B 10.679433972527017 8.240572241127492 9.898095540295042
B 11.026076570709678 9.43327880506442 7.305168319765939
B 11.131821279831035 6.89262812469016 9.018133065069506
B 11.480644388535675 8.272573599316448 8.367988858824758
