21
Energy = -121.59040643 eV
B 13.030253737194176 8.818712765561074 10.909720202676771
B 13.942125710744143 10.047074775442587 10.44956790937498
B 13.533451257346911 11.470708362953507 9.86768998983854
B 13.089962849002255 12.896543014617508 9.314659488135442
B 12.001667708683211 7.738899740870076 11.41298840300445
B 11.307497367246382 9.126516216877587 10.778375879836359
B 12.306540774200732 10.349157779876275 10.202661189039947
B 11.721018623626593 11.921540082912163 9.693632763999586
B 11.70822594860312 13.511527092691935 9.063981361607572
B 10.444105633457374 7.805690357970012 11.471356673614245
B 10.610262374040486 10.624147933365553 10.151648727421728
B 8.810473073357285 12.339993747567378 9.235045829853808
B 8.828846377272273 7.94164350427218 11.495147321171501
B 9.66303996691813 9.414147253584106 10.782305824251457
B 10.258947623858914 13.02341186966049 9.141805407432694
B 7.480320153801056 11.64015532482673 9.360910431230666
B 7.2512667781811455 7.969998239591604 11.39475091251838
B 8.861390578835136 10.701707205096051 9.97459510916666
B 8.021846092153092 9.294720914339132 10.705944001532728
B 6.779358241286586 10.359194166264187 9.943169563229358
B 6.369109179640934 9.024219701109804 10.669753060513214
