21
Energy = -117.65887041 eV
B 9.834868349170057 9.315674845017966 7.347378438890852
B 8.064651989927595 9.959113723682178 9.633394856707598
B 8.115570608669477 9.577398872633669 11.430340082902164
B 11.477653707661478 10.027216308985585 9.634344944145631
B 11.458549008045972 9.662145759444368 11.456639255273
B 9.738355793134629 11.001839652394745 7.708435755815752
B 8.967687580696806 8.17492940527448 11.348535421869558
B 9.839198299543773 7.330789379223187 10.177600192154305
B 9.782499938145863 9.705360416501234 8.97427405716605
B 10.811293192886001 11.071141515044383 11.01697797710589
B 11.243766229243588 10.42860630676703 7.9878565150473575
B 10.613344885054598 11.473121674063695 9.22324103210526
B 8.87733552971 11.452543226671088 9.230406130069229
B 8.264416948097791 10.382962031507068 8.00890972419232
B 10.675602952468218 8.220557560826055 11.349069339888594
B 9.818040809344652 7.986598712981314 8.454059250855146
B 8.712931411048867 11.021906144195924 11.013655223438265
B 10.995436291175194 8.409965219879005 9.632101606619992
B 9.735006278686328 12.212748641693151 10.472121791281156
B 8.63741177867206 8.365308702718576 9.633082895546787
B 9.784317502608838 9.668011271059827 11.715518604933369
