21
Energy = -118.03763119 eV
B 8.879731365731288 9.611034007530257 8.018986378886847
B 9.151738460443664 6.503724495944797 7.678557752528418
B 10.078704159851839 8.804491495015746 8.724330531230343
B 10.478533696978937 7.26434948331494 8.423494711947772
B 8.866163517096552 5.050690478071425 8.441586305718642
B 9.759766299194071 6.1808208703832515 9.417855130268094
B 7.546110148647674 9.08266917802565 6.590054922772691
B 7.786651625693056 10.801730109899689 7.859180161322842
B 10.102580367012699 7.719743803144064 9.994989561532376
B 7.979062682637833 7.891492830603145 7.6541228117866735
B 6.9911020668386055 10.506615901884967 6.095315454375197
B 8.285501181796297 5.502222895974105 9.894939453542824
B 6.536508931979533 11.534455471982394 7.154267212389076
B 6.159135975331361 8.455134916496148 7.733221122030342
B 7.4086703170145665 8.172327216512835 10.000995554814594
B 8.682059674926043 7.084850814762342 10.572054729748373
B 7.529019819352397 5.958872532706639 8.35155566697465
B 6.139483213302452 10.080881298699014 7.790164159952009
B 7.342523193283866 9.385583493228808 8.925813776131676
B 6.432829234087779 7.140708058470795 8.60140519313332
B 7.1298783553222105 6.605062668616206 10.141633509359806
