21
Energy = -119.04505725 eV
B 6.923482251562218 10.023248197810064 7.1097957146089374
B 7.970308474476783 11.106339575645032 6.297099433885602
B 7.168851064537626 11.757910354273628 7.488876629075134
B 8.774033731552294 9.751799734266296 6.4256150710425874
B 8.42129328476643 10.704745408214656 8.027647360971535
B 6.623280942366641 9.168447198858667 8.408219658548505
B 9.61856546328266 8.365371703064516 6.791051302394579
B 6.6235935703816615 9.824818211139801 10.032948970785545
B 6.772724270379297 10.909930498539639 8.768624686211016
B 6.962980609814073 8.209191805519598 9.686945084275953
B 9.31240612383812 9.40062999571552 8.077952474015236
B 7.286540636812277 8.944792039604824 11.166279025849047
B 10.11532073499498 6.8450010927581495 7.082753129456532
B 7.91952470458512 6.985966661365455 9.151268060136307
B 9.720338101507318 7.862599722726328 8.435129270625975
B 8.242302379741915 7.755150973317971 10.773325785893018
B 10.355011278252462 5.327067548416248 7.446799050427857
B 9.508969900678036 7.0482692514302645 9.980038751960548
B 8.766726251359207 5.800230207532729 8.500953163912378
B 10.47321069319605 6.368752369645481 8.878393479569565
B 9.907876352781452 4.6142296960791755 8.743273575950875
