21
Energy = -118.01165597 eV
B 8.209560868178261 8.34136206078557 11.604429955249719
B 9.66873613736361 7.842421826429106 11.876588154222592
B 9.69311862798759 9.34405272254798 11.125676599209244
B 10.791636355547961 8.097907922995464 10.6890134551178
B 8.584024687563332 7.7399726713900225 8.85837797633066
B 9.130297593531488 7.490967944954093 10.347280104893382
B 6.385004893957456 8.38358862814724 7.143876989635483
B 7.626019253222265 7.593470890423168 7.589652411332117
B 6.749493119997215 8.619649764983595 8.762492944104713
B 7.430235256458357 8.755888713127964 10.235335793992833
B 7.03625867105974 9.789851806095282 7.318021190878644
B 8.61008499331262 11.493706796173973 9.08462011653106
B 12.703577714106144 9.182055469755403 8.356936248470225
B 7.579268133209962 10.195334470805616 9.162806432355033
B 9.965187447368175 8.859029040089409 9.26772841076452
B 8.056479841588805 10.961016445247939 7.697521286600136
B 9.006812829166346 10.459973372714432 10.207270163789754
B 11.073191574948284 9.629368752046853 8.220008172476447
B 11.744191311414506 8.531926970697745 9.415891079271406
B 9.58679082970444 10.395167845008585 8.240836175416296
B 12.352888186314377 10.318584357053973 7.377317982339456
