21
Energy = -117.5438536 eV
B 11.779645096466295 8.939920568662142 10.1570517348775
B 10.722262712615594 8.281852620369678 9.162606757259741
B 11.688901103501617 9.282762632963847 11.669230796220093
B 9.589978572392464 7.51941523165276 8.32956203203194
B 10.077359897350098 9.367318396131843 10.512572365782365
B 8.3264582557756 8.647366251903229 5.542381199143513
B 5.714268041147197 8.181568712919299 8.21075198292823
B 8.650698698660548 7.815157851535852 6.940308361140749
B 9.26481878070567 7.845228164777732 10.846005029070147
B 10.551708308334899 8.207496392108586 11.712451839176486
B 8.115424665066888 7.368425228377422 9.767768243567765
B 8.910517291632413 9.045680697280332 9.497035978017003
B 6.3375213967757 9.586920838764525 7.591277712108093
B 6.750785376889146 9.886030073111675 6.068706047085687
B 8.120302385287662 6.725087922623608 8.160569712930087
B 6.983837991398503 7.401491141910867 7.235625023556965
B 5.690557954882661 8.285350202381753 6.525071994287361
B 7.616836590777555 8.649943472767337 8.484569848742131
B 6.6802373637603125 7.12523626790232 9.01166334667069
B 7.492065029069119 9.573916820813364 4.642839616320697
B 6.402048971528972 8.512612253210712 5.124630590478964
