21
Energy = -118.73306118 eV
B 9.887275454039447 9.15411114518339 12.254330554170677
B 10.855371151234774 11.01290375061037 10.555745139750613
B 9.496772816144826 7.991783307311209 11.194855929122012
B 11.103172486900693 9.74422313354616 9.686116655139557
B 10.262379974493115 10.639087340804034 11.922412566338908
B 9.122913256416867 6.924752049313581 10.026322484008093
B 10.285712026646392 8.33146515430765 9.563762517275771
B 9.59953416945802 9.665484806123043 10.604764481040167
B 8.309137524331426 8.563132118590637 10.049634390325245
B 9.326702749605841 7.638128706157866 8.350539076781354
B 8.009501888513583 8.225537790066547 7.428778504695117
B 7.241315302335269 8.969300146995764 8.882055385949412
B 8.278748097281557 6.466348771930506 7.401084834211359
B 7.5502087018812585 7.342465457838624 8.924458322140998
B 8.59766530604925 5.976198027737639 8.855942700464537
B 7.251767537272901 8.813739817271948 6.077656804240468
B 6.938594632782671 7.800036397403248 4.766996678478699
B 6.864001759659748 9.780947586109946 7.509337735691167
B 7.699615151599222 7.12810262592848 5.986333861379615
B 6.214772660726568 10.143479423283942 6.113688665069389
B 6.232532243374185 9.213547566312375 4.835512159669986
