21
Energy = -121.77650396 eV
B 12.35351926480923 7.1764593340371725 12.336208064541466
B 12.580331447794972 8.605728412264027 11.63646660574198
B 10.995942410941407 6.3940795581471 12.395472332818143
B 12.760166432823926 10.026504630857648 10.827156221912272
B 10.960349524738916 7.98464027190879 11.856727604402424
B 12.858528352071836 11.379696580939566 9.989025817164915
B 11.246082501134822 9.142755430770142 10.707973993604899
B 9.79067883632679 6.8327832471930545 11.4955455020397
B 11.352993550941681 10.671570356759375 10.072195556483296
B 9.60629557073508 8.288062828334994 10.785463928592906
B 9.957027303570213 9.664242165826721 9.758087951260629
B 10.18851115608573 11.187169066437924 8.948050527229327
B 11.686233056560138 12.12657832491008 9.21208409180787
B 8.35318539414732 9.385070938837032 10.44556261455347
B 8.59969378792578 10.552416896175375 9.26857979141264
B 8.830207964999664 12.122675758280984 8.688176281076611
B 10.363072675135498 12.914329890845668 8.635218537497508
B 7.139210034273021 10.306207435052253 10.027575272334728
B 7.157907532759902 11.687174617394707 9.229276976604137
B 8.971265183784745 13.70908622230571 8.35855414771376
B 7.545180650084533 13.139150664367458 8.622980812852084
