21
Energy = -121.59596393 eV
B 11.105992506747329 7.089169321260456 12.006491997695433
B 11.631210972446373 8.530288913863641 11.873400800231455
B 9.693771661588318 6.497632381376178 11.931302053689672
B 8.333120488013229 7.171470868222942 11.637000627984733
B 7.9988464518194204 8.632387883946754 11.320251407103049
B 9.768006678220287 8.282770405955551 11.639997704206193
B 8.872295157587788 9.89244069240864 11.195742781439666
B 10.583606960115395 9.855519107035578 11.479370074648589
B 12.295388852703669 9.992790759458943 11.76182885161489
B 13.01383699899038 11.403806816582192 11.645384902028999
B 9.67388745274072 11.27116317749235 11.038745983183803
B 11.34555107293213 11.336386980381464 11.338281605209147
B 14.647259984368908 14.087466155087304 11.514056872402323
B 13.794872269246301 12.805525069573516 11.566522720827743
B 10.397698362029157 12.674952395344038 10.890007053883865
B 12.10311007875881 12.818993601726 11.192870313883956
B 12.908573752302383 14.399206210488446 11.04970479770206
B 14.321863647181099 15.531500082024452 11.12312352938885
B 11.061121308579859 14.12402033387887 10.717298842832442
B 12.985385038238448 16.176619513694284 10.684399436791763
B 11.594972192969024 15.556261217777758 10.52458953083056
