21
Energy = -121.93575412 eV
B 12.143174971161674 8.077929300100774 12.083281926095061
B 12.207500825591753 6.743496488314302 11.17803949642114
B 12.06921752715953 9.60458389880547 12.563728673980323
B 11.08649958702143 10.772173023075123 12.137183494950905
B 11.386328392308215 6.458456716980735 9.890401125850959
B 10.832209902032398 7.6096712582842985 10.923523499505842
B 10.707664039581207 9.113365314203394 11.729689277690378
B 10.16406792293229 11.945905481551804 11.398641918819258
B 10.212405787799794 7.376517992628681 9.276244110984114
B 9.713242727936763 8.72047877104439 10.376308606127091
B 9.854125790835708 10.33705629476286 10.978904468277936
B 10.092924269194937 12.915950363498789 10.09148643236246
B 9.241344443964199 8.519638847116386 8.653755746559224
B 9.3940084801793 12.856560621442458 7.372122429215888
B 8.734348317627141 9.857489802278872 9.724286664854732
B 8.869599871965473 11.540453487409149 10.374486716438696
B 10.050408750315663 13.531561586974982 8.610257080236968
B 8.549022156662632 9.85588559246793 8.008391006164587
B 7.944095467668919 11.065711078719824 9.023931648055305
B 8.6541253680741 11.420724882803022 7.476070398079859
B 8.858795638462176 12.441499436012196 8.894375517804427
