22
Energy = -127.53522884 eV
B 8.664020982826932 10.051712522677652 6.559323022505378
B 8.031033208685333 9.426363756214554 7.877292307635102
B 9.975721139697058 10.887839278673175 6.412677504841177
B 9.682394229310004 10.190603058605566 7.893459173312536
B 7.389217665405859 9.087622957345248 9.326620112407392
B 8.878160236291373 9.959557085369736 9.329141151952006
B 11.075336483016514 11.152086341162201 7.524491778118725
B 6.819304619733146 8.731051721307791 10.797930418145214
B 8.07429167357642 9.83594146500622 10.750276979503338
B 10.669149449509153 10.68714435580852 9.336113374516424
B 9.544098700835258 10.686200236546826 10.663708771633859
B 7.465242328224478 9.002204571263537 12.178553831069749
B 12.307085492190824 11.311269752940028 8.528772422855214
B 9.841259095258454 10.10530490753194 12.228906510809784
B 11.073823591368335 10.281453893449005 11.157779355483568
B 12.321376169745204 10.554528206330598 10.089522533381572
B 8.692008116100123 9.193418274795768 13.20870189801036
B 13.615200177018396 11.357407169780368 9.42158208365935
B 11.459225821932481 9.698706809149082 12.740624081313165
B 10.183285482348808 9.242618946299585 13.621073110430041
B 12.713641799048611 10.100084450949181 11.794966261725529
B 13.813998406921826 10.74575510783773 10.847358185734528
