22
Energy = -127.50393629 eV
B 11.899518405058348 13.476858489776864 8.88754809582476
B 10.6796790748871 14.322611813230298 9.249937987178349
B 12.291924146604012 12.025724982805402 9.352415783088157
B 10.715083046213001 12.719616754890561 10.066272218022794
B 9.428240339719801 13.938083121068948 10.045996768777302
B 11.684094146232098 11.39225299309613 10.706345221170908
B 10.060862152585212 11.377247292360895 11.060419738115423
B 12.319641143907354 10.333079704553937 9.44931684325139
B 8.913676045840575 12.61449955525646 10.738179677481142
B 11.463929534430795 8.78375144325946 9.631331587851596
B 10.993983394407891 9.907543424065699 10.843662732789497
B 12.747770480789463 9.008149754477273 8.644574620991445
B 10.28359717112733 8.43811130493402 10.75646015871349
B 9.361513137411547 9.818380173938834 11.226477330655866
B 8.399588606714682 11.209937675954937 11.352312365113427
B 12.033237197361712 7.624095443768989 8.620202272760158
B 8.637788822766979 8.357434568719206 11.015075953373218
B 7.63061572757776 9.752132918324085 11.360824845838266
B 10.763862133988486 7.153689104050978 9.498994675100194
B 7.000152145777647 8.298346028775361 11.054238294019479
B 9.367812060539435 6.915809196004483 10.298676002508522
B 7.795741638217983 7.004954808846821 10.613047379534544
