22
Energy = -126.8525356 eV
B 8.889410764688218 9.053964099782851 6.3938921539353215
B 8.308388227902208 9.827175209612369 7.701601276529839
B 7.23452457023522 8.547850206212996 5.568703423395245
B 6.715581627940569 9.259433591259956 7.752572425443138
B 8.685583740439201 7.725928346916414 5.403365966285162
B 9.115002557714604 8.395975011417084 7.962339449740421
B 7.864596093691647 8.9260300378492 9.0005410500328
B 5.244680816169362 8.313070251770409 7.565642597841789
B 9.746464077367092 7.529783923474675 6.721162699941215
B 7.324039954516088 6.759418991911654 5.452687536971049
B 5.894525247291739 9.10881520339911 6.287139842014619
B 7.413158402862252 4.935162501684522 9.182986663126062
B 9.233733053247592 6.73834046116455 8.148913936610095
B 6.252397979700467 8.06735178772962 9.002937690594521
B 6.104753408726865 7.431655356762927 6.374669573591583
B 8.43415803449734 6.498433470492865 6.703936935537784
B 5.5789641615079875 6.676102507727463 7.882796672326117
B 6.79047139490101 5.915596210109578 6.783402846322176
B 7.544140344141153 7.623147383303307 9.99906374213936
B 8.391991190461585 6.165995076940127 9.54999679929985
B 6.162184113303632 5.1867406725005605 8.225171986383641
B 6.6772887857753975 6.482252740571442 9.19966960513695
