22
Energy = -124.7372745 eV
B 9.639565065891645 7.166696129632123 6.200995797821947
B 9.254402322116881 11.201892159689741 6.6325925037693985
B 9.644902949912586 7.878026191146136 7.703335512555542
B 8.092347856186288 7.451656561810989 6.754412066092714
B 8.471218468949331 7.330852802427896 5.166609743434964
B 8.124451663013488 10.215017550755302 6.165358309096859
B 10.127665937853157 7.891389507727308 10.887779618692159
B 8.038793713385774 10.59162511597223 7.914663388882302
B 9.842001614947085 11.283700893214554 8.08679790644798
B 8.054373244945184 8.902562040894383 7.442615205986408
B 9.635570668085963 9.6594139948978 7.556970241139403
B 9.219615553486102 10.521939361544813 9.295579743709178
B 9.70412791333596 7.535979527445379 9.329451727086825
B 9.620669404104252 7.07758423895914 12.15478185050123
B 8.559357215573277 7.070992037343093 10.53673520850802
B 7.758646589871612 8.673664639089091 5.634200456860292
B 8.100293546565196 6.780682679385517 12.303591583403412
B 7.669443170875784 9.64234109523871 9.158083692853397
B 9.008938587800328 9.276492131828235 10.413676673011535
B 7.01314993038176 7.396231348923539 11.359177143099144
B 7.334594623987963 8.547097743978442 10.335104040222214
B 8.608693339264052 8.435867207939646 11.745522037741472
