22
Energy = -127.44312906 eV
B 9.537299763769001 7.2283617335800665 8.635020342533073
B 8.765736843530053 7.387318174772658 10.09104440902958
B 8.456584391425148 7.510170671763744 7.256997054697515
B 10.014415571089145 7.193802546489349 7.050174789355827
B 6.623604577178702 7.722004136622886 9.035704290786528
B 9.466798902416137 8.6187384725803 11.220123228139238
B 6.8845388276446515 8.073280546586991 7.469741684761222
B 11.028042044191524 7.9228646781374445 8.036228402231824
B 7.069106536773646 7.269897579557493 10.470719736326942
B 10.507408427854283 9.538143639569125 10.505496017654128
B 8.059953678375798 7.996027924874093 11.483641849210779
B 9.680632115669816 8.79732379692444 6.9146709239000845
B 11.330276426762607 9.193345540665446 8.930226654360151
B 7.925871709654997 9.20486494103428 6.987128387530941
B 7.181856533287767 8.954111128001035 10.271955927144692
B 10.891382298717415 10.665151114680768 9.41484994493436
B 9.094854136017476 10.332429214373178 6.7781360086764115
B 7.048555654370127 9.35043370118599 8.56729393515978
B 10.086458501149254 10.432895661628612 8.051755745029078
B 8.298739480335628 10.481693798996787 8.225278122213954
B 9.285358198328968 10.544617602821685 9.755165327281766
B 7.619286995878737 10.439285009574649 9.70540883346302
