22
Energy = -127.26299118 eV
B 12.337114995833327 7.289720640402647 8.582741898485674
B 12.410268093002038 8.877814140233516 8.663633467532406
B 11.38920687563652 6.344021560253521 9.366191263873251
B 11.244549187875249 7.966919556428899 9.610835331181024
B 12.324663056267433 10.456303275631456 8.931680544106138
B 10.253777039265824 6.8245971469361555 10.442484015826171
B 11.15318101411652 9.658052084932988 9.881869204139294
B 9.189985708646715 7.407889163406574 11.47727170690462
B 12.529143330648612 12.0825853051362 9.002829840803042
B 10.110443257696643 8.602655090074306 10.712599426017901
B 11.2957613614607 11.245094714306479 10.006097922704758
B 8.885251666196282 8.867386118321246 11.876535088749733
B 12.664160221503504 13.634639570893437 9.147387010472887
B 11.498657155165796 12.905563535808644 10.114045738196218
B 10.300104864140389 12.358114563715038 11.150182532597197
B 8.361106404836358 10.271304824703156 12.527965865465902
B 9.108669942472956 11.81701961100989 12.134397005247576
B 11.83262340135068 14.546672583432287 10.10746586801491
B 10.678066937251906 14.028545520823167 11.110366703176227
B 7.823138373859925 11.54006844281191 13.215234745133628
B 9.507657847681362 13.499014169616197 12.104950402333024
B 8.330501627453883 13.004050743486264 13.061266781402091
