22
Energy = -122.61716018 eV
B 12.500125261381033 6.619084545573849 9.165566175038547
B 11.071020893760808 6.67928390806966 8.601208345047215
B 10.071735081646654 7.880488667235452 8.751118576743082
B 9.239189467972592 9.106760585344702 7.847076088791877
B 9.98405099844307 10.630817902479112 7.5413009000345825
B 11.62540350470795 7.997014930883513 9.527657009573495
B 7.651171821691256 8.89617347100683 7.3227016090727375
B 10.854982668948507 10.98013675908694 8.819060734328735
B 9.37544274166008 10.058071208731478 9.320483384453514
B 8.346662948385642 8.462809197431673 9.005250087120709
B 7.747411251664395 9.362662758424277 5.666983467400257
B 11.054701284111674 9.413748830335106 9.967306828243677
B 8.959690787158317 10.02613414037236 6.43078933471734
B 10.466173868508939 11.019587744306158 10.336537149302393
B 6.083311971108585 8.019691317956116 7.544175599310417
B 6.530403980551117 8.504450093224982 6.149190253380692
B 9.707354445820908 9.864299444989902 11.076603784665219
B 7.267890901625557 7.967471103597381 10.136734580805534
B 8.26593085665843 9.181362280575634 10.93933477077598
B 5.825060228617808 7.728799610661748 9.123656144775575
B 6.72770467183902 8.909955813637637 11.394327861289694
B 5.669336364037084 8.062343089538116 10.637751214872633
