23
Energy = -133.192585 eV
B 10.860780189709885 11.525056459435186 10.097551552502122
B 11.396852872192218 10.036671043319773 9.806848997982279
B 11.682058513067592 8.476057340490168 9.420714609647456
B 9.31482067923073 11.795932533203214 10.078262516478624
B 9.993252634106158 10.821066630568465 8.820397406477873
B 9.948832107646123 10.29556072250846 10.84982925066385
B 10.373854148528729 8.586305611361855 10.474568296665169
B 10.3098116605498 9.18908255473789 8.496354055299832
B 11.024038860617447 7.553801806489919 8.32637580158649
B 9.044067148461819 9.016148489714015 11.338146947131195
B 8.137983013748327 11.22301727472959 9.106603879111638
B 7.53297873952797 8.899346518570566 10.771283561521528
B 9.286207227929953 8.32058793839061 7.450781958147302
B 9.934224498232412 6.621905111574837 7.604713084048281
B 8.699659709138839 7.819423765790707 10.229162430977185
B 8.946460664388772 9.961385216016216 7.822669472382372
B 8.552626859344665 7.047823256436305 8.753555608420232
B 6.97917603965484 9.778868556352064 9.523633032078422
B 7.220704707424245 10.544172469275937 8.020131208040716
B 7.23997438013651 8.06113606146808 9.341472742857073
B 8.524776999560647 6.792385952377018 7.002077130444519
B 7.303846367674002 7.587336712257637 7.642280871085783
B 6.690170894050746 9.044086889854178 8.019744501372749
