23
Energy = -131.47949194 eV
B 8.515316248549892 6.410350425810945 7.86931352967322
B 7.716966907526842 10.233641772260611 7.618182214938361
B 10.0432469758709 9.486181008126687 9.963608445051458
B 8.90909546347007 6.762096701728271 9.394188676089625
B 5.953825900514559 6.28088959178871 9.353955597734346
B 8.687100406876434 7.5359940083499435 10.918587184745851
B 6.5975601784341515 7.261925636510996 7.98227121225862
B 6.786795411713192 8.86929161293097 8.38908041887366
B 9.23954084278677 10.044676110499926 8.637428849559093
B 8.46868985912281 6.956077643366005 6.254194807341375
B 9.717443848560888 8.700771453304215 11.30835478046989
B 7.249029181691156 6.053468417168138 6.795265432887206
B 8.81269536936623 8.529733810987265 5.8003892630491425
B 5.782442391639647 7.826313025092995 9.595775761994702
B 7.966086746489139 9.827379648796159 6.097781464145863
B 6.827533513763785 8.953639962744498 10.110216165871858
B 10.022312982313665 7.797131495387358 9.940762068167183
B 7.2632015148212306 7.126731715367381 10.181216084384824
B 9.218847206592251 9.321733361033038 7.173669338583426
B 10.124726485826809 8.554333306458094 8.414001365252
B 6.458237493163592 5.55892151680769 8.027981134988591
B 7.628938989582656 10.031010301053314 9.253290133696787
B 9.75391350665567 7.718734844746407 6.988044842969192
