23
Energy = -133.80921907 eV
B 10.862475416110557 12.105966445878357 17.349974295590062
B 12.244740990860215 12.560304080477072 16.507539577033043
B 12.244741000230734 12.183323800632868 18.12603886621
B 13.627006592152565 12.10596652389756 17.349974295590062
B 10.686865910937394 12.22670709673997 15.748118265510467
B 12.24474100396147 12.205123540435 14.919694078212618
B 13.802616090915086 12.2267071850796 15.748118265510467
B 10.694770415151181 12.203011874581719 14.124039494758927
B 12.24474099312215 12.391118532032984 13.323662152741909
B 13.794711586807976 12.203011962971113 14.124039494758927
B 10.69501094518962 12.243582181939134 12.515650120446779
B 13.794471055358327 12.243582269374095 12.515650120446779
B 10.738938314232021 12.296091128202715 10.911164777221696
B 12.2447409962496 12.308026126666109 10.031459456606523
B 13.750543683071191 12.296091213634668 10.911164777221696
B 10.642333240154572 12.360683355820766 9.321649918352268
B 12.244741002776127 12.17235398003732 8.258873349264535
B 13.847148752228211 12.360683445847407 9.321649918352268
B 10.487654823953298 12.298128210219007 7.785864180143179
B 12.244741004128693 12.167997090398194 11.693522859151727
B 14.001827173175917 12.298128310003682 7.785864180143179
B 13.01450668082293 12.086227344445374 6.627665278366876
B 11.474975328409773 12.086227300685781 6.627665278366876
