23
Energy = -133.35327153 eV
B 11.32850197836352 6.52051065030517 11.989895471164829
B 11.728647348668563 7.176091681145572 10.598627520312858
B 10.06056056732491 6.963766677164867 12.807089874987062
B 11.81891532663622 7.655199125478691 9.014241775496618
B 10.620906273992022 7.986891175099675 11.600132823817455
B 10.8728971718332 8.58565701957558 10.040757799476783
B 9.076447704435308 8.166905514421774 12.441140861529949
B 12.166737617153244 8.129370852422307 7.570035724422441
B 9.439772284527857 8.950186318779075 10.9421591429364
B 11.232112514835356 9.233669552673625 8.511731702116073
B 11.974299209317227 9.469527295489149 6.850446186078104
B 8.074221458791211 9.312022818367582 11.813974047569275
B 8.49618631154487 10.12275368097031 10.404593374982273
B 11.512883243964332 10.940995487470754 6.5857809023325675
B 10.283227148800755 10.613537536023657 7.899503400360198
B 6.920252465739007 10.284974541147394 11.173228300808034
B 8.82371198622164 10.847382483870351 8.888383306993399
B 7.2423939481373285 10.804060025475648 9.517531568228756
B 10.445470706944398 11.991395381005493 6.850792550360637
B 5.947607090888702 11.318674787191645 10.454532178412958
B 9.12082516451036 11.954660893015959 7.672909248846054
B 7.598291642200344 11.92040453475083 8.286430063450963
B 6.249643280018219 12.085874413003765 9.120594620164372
