23
Energy = -133.35926397 eV
B 14.207647508033919 11.97374162226298 11.005634605559031
B 14.593426259833917 11.108516530104282 12.190450816206326
B 12.938267680434757 12.077186280595146 10.125727342821577
B 12.838273474980005 10.82283523277202 11.440004588858878
B 13.761268300176635 9.976392841552256 12.771406455723149
B 11.796878304773495 12.305141719278302 9.028029275616788
B 11.56714515018934 11.074928738473144 10.158106878920139
B 11.258884785488615 9.866785071868769 11.291086634757198
B 12.314958646217747 9.46672766868103 12.550761631469593
B 10.761962008790647 12.580740755094869 7.903822942291744
B 10.203723225702019 11.665465447847938 9.209258425893827
B 10.831941546755278 8.880990334355051 12.602207252051233
B 9.863349129413539 10.37615179376257 10.23166358476474
B 9.337741914521304 11.97207232412949 7.688674401000237
B 9.54906113655855 9.454814331260376 11.595875820185409
B 8.81833683617284 10.662331572321225 8.86356705918354
B 9.440910281105955 8.190404647573335 12.700358018940813
B 8.369527800133111 9.418857361772368 10.291282179045695
B 7.938727816532646 11.268198715075226 7.531379841116989
B 8.18989143041247 8.341719460768548 11.782218622546937
B 7.130278854284414 10.246016678504887 8.303814071591729
B 7.003234217571027 8.503834454194372 10.752962667370193
B 6.7691722567767085 9.250754982611044 9.46631544894318
