23
Energy = -133.3972097 eV
B 11.523635359175376 12.44311895933075 8.051834643763941
B 11.315205846301778 12.886801681568784 9.546799191933879
B 10.80527645765271 11.159645141032001 7.376532395272773
B 10.26657455035134 11.795337488396845 8.894322115611125
B 10.296323612941798 9.647213559741584 7.161136650491645
B 10.300986152958018 12.159504239898476 10.578501546162514
B 9.284489940655517 10.64603368306588 8.127853376838065
B 9.944345805584048 8.052111443456509 7.184466111368892
B 9.031458188664777 11.23267070683672 9.869459782038245
B 8.869126332813156 9.006788999565922 8.092747849852465
B 9.694846485196292 10.923555562165408 11.475478137962352
B 10.875594769541083 7.459712575664712 10.199079075917348
B 8.608420853995684 9.833043443910416 10.687007473819833
B 10.043331471312607 7.325762863799317 8.872906505776193
B 7.9801783650676255 10.05372123520953 9.134333709984721
B 10.204624089421811 8.296721607419787 11.322080788831464
B 8.705347652819093 7.287659865793399 7.70944711626065
B 9.335020141680861 9.49007488219273 12.149603069308254
B 9.278635667578062 7.11839949496507 10.429554551429883
B 7.555494129497443 8.668140698254188 9.807704268327821
B 8.105521806157865 6.934243422903799 9.154851165831467
B 8.375170875589713 8.30758137423171 11.518528412861265
B 7.5486366417793915 7.2204022673329105 10.604017257091243
