23
Energy = -133.93204801 eV
B 11.99963565860161 7.184232771945089 10.960337546236797
B 10.27415926204443 7.115767311089402 10.83736551751397
B 12.562815066651247 7.708037281825426 12.385064671583944
B 10.909406971510839 7.817593670511233 12.202477738800642
B 11.267876988301124 7.439675732060843 9.507620467108488
B 9.457917278411534 8.477367072373967 11.543471184243979
B 11.766868812589147 8.720888007806513 13.271388549355784
B 10.348341883749647 9.358297553628741 12.88173044536376
B 9.726337687250194 8.212087021494792 9.770257097442608
B 10.647422135259927 8.328159911771401 8.290144826330637
B 9.214491364554291 9.76587578938469 10.500808570914211
B 10.389055752574953 9.631433177790731 7.294815546429128
B 9.005145941312845 9.997214663750247 12.164187882320622
B 9.403615417857827 9.469674652606708 8.795008188569229
B 10.250294988786548 10.981854321736472 6.500761490052268
B 9.144803033684045 10.752800026814754 7.747531335998444
B 8.6519794142535 10.893089156498466 9.424063040641865
B 8.540861452686139 11.197862335973147 11.177407176473679
B 9.473540063403224 12.322737528197495 6.841678673463014
B 8.62702169070751 12.230519100541537 8.4381344089326
B 8.408667740184933 12.47309583482449 10.159868683790306
B 8.89705527424988 13.625987661185254 7.618592752305774
B 8.450899284887791 13.71396257970165 9.10549736964117
