23
Energy = -133.02986274 eV
B 5.4973539512394405 7.524476865711332 6.087953075314151
B 5.519039897881982 8.665565280117633 7.630801099270536
B 5.157183925010812 10.225028778225207 6.612434444569429
B 10.345855770099133 6.729164952113948 7.1837563899977255
B 8.634697242818183 5.226950429410737 8.802768604941221
B 7.100071342173013 4.77807667260849 8.721642718990783
B 9.898613270978581 6.243983065332396 8.725952099518992
B 5.092672902207824 8.989193962048931 5.678994372891885
B 7.329639631170444 6.211662931800867 7.744302390340343
B 8.19799249313453 4.5267682303624195 7.229849798262756
B 7.456002629200932 9.617178091273805 8.043873767758615
B 10.063616149909809 7.8116278230281155 8.411433136760945
B 5.74209218557421 5.496128593956593 8.237107692716432
B 5.817741456691283 5.971069201362407 6.506789155511963
B 8.350301922655165 9.004030124452978 6.4816633462731446
B 6.640615272782297 4.685018717777788 6.907160262854185
B 8.891269217975427 8.892990000756138 8.126436114177682
B 6.728866069113648 9.207023239022682 6.256972704162015
B 5.427799151078482 7.042208288542816 7.914400568329798
B 9.59675627760271 5.307741415290839 7.320409499215461
B 6.052339268096362 10.329453410826947 7.870823540883814
B 7.222707413657462 7.816700915483261 7.411240788182338
B 9.689737663896132 8.16910075707802 6.792764307810542
