23
Energy = -134.05979354 eV
B 9.75395943558441 11.78168127387605 8.021773763720706
B 8.181497788888153 11.64206929399478 7.5871281701504225
B 10.968495745551353 12.163526510370351 9.04796296669021
B 6.588948923434473 11.321230276139161 7.656635434779768
B 11.592242411416379 10.83470937752188 9.973566581589617
B 10.363972464896474 10.392264543223849 8.862098770902296
B 7.597496088860164 10.028179478800658 7.731514759675422
B 9.26828732606484 10.255631141834023 7.595426537020931
B 6.025577925290762 9.957458291615637 8.172019051243495
B 11.954347562940114 12.430059769333432 10.225514865109574
B 11.06174785615102 9.279541888434009 9.887534613159788
B 6.968134686526162 8.731780587129345 8.655555126715708
B 8.653970715185112 8.78948744177526 8.181222091099416
B 12.426335541229026 11.472295852512504 11.399730492549715
B 11.774413933638701 9.67104534192631 11.324258361434211
B 9.612806804272566 8.612415713073428 9.571512379202467
B 8.122738518584196 7.803488384172205 9.391084170915732
B 12.633746303915183 10.404894538209355 12.565424652649071
B 8.911162693717081 7.40661686379358 10.753200125506556
B 10.421229486733482 8.315412877032086 11.081500801185031
B 11.992571438089621 9.077907290154194 12.962210356076408
B 9.713252441638627 7.188381684400492 12.083960668301978
B 10.895686850873437 7.922544524158604 12.751788203803226
