23
Energy = -134.17199916 eV
B 12.278827687243968 10.83301512977337 10.73839682353049
B 12.588971223214553 10.71230878446531 9.17625096161541
B 11.966254489956052 10.52585874590226 7.678656002428988
B 10.684525333590873 10.37944951428178 6.745260431925664
B 11.407656987591789 10.762668666746862 12.099549216326942
B 9.048863678409075 10.37944953334544 6.745260431925664
B 7.767134525587391 10.525858795290034 7.678656002428988
B 9.866694505076174 10.34299575830062 12.601285061307959
B 8.32573203359415 10.762668703474278 12.099549216326942
B 7.144417796616636 10.712308848480646 9.17625096161541
B 7.454561335580375 10.833015186499814 10.73839682353049
B 8.291624943207257 8.987420032068764 7.28258784756839
B 9.866694488747672 8.905983023547034 6.892570838851098
B 11.441764036176355 8.987419994849196 7.28258784756839
B 12.437720958178033 9.149455083022495 8.552109498001222
B 12.794661014896363 9.343008190172037 10.126645796832547
B 12.258168826416991 9.40283569377236 11.647674211995188
B 11.255241428177984 9.337203068376263 12.945695335946349
B 8.47814755947966 9.337203100897677 12.945695335946349
B 7.475220162422661 9.402835749437523 11.647674211995188
B 6.938727972883267 9.343008259027567 10.126645796832547
B 7.295668025019681 9.149455143185026 8.552109498001222
B 9.866694487933447 8.818548495083771 13.454465347499093
