23
Energy = -134.60445578 eV
B 11.079116376133511 10.55553373583214 10.044533705294176
B 11.003392968977172 9.01040628173018 9.249496985067164
B 11.432986006733206 10.452763614958638 8.311498576447931
B 11.206414968120551 8.980502567440194 7.594056362951436
B 10.527659376301752 9.191634351620634 10.874183363875634
B 11.210562361552753 11.837030777197041 9.017151244196608
B 9.68204559131516 10.63365112707452 11.13188119726542
B 10.204627460527066 7.862945884058658 8.324993019114752
B 9.985908440013214 8.391001091596886 6.645678157649139
B 9.77714534622951 8.024571883308159 10.013045471136797
B 10.089397635087963 12.071007547072824 10.126802407809429
B 8.969211560198445 6.9606300752795995 9.073527773331124
B 8.742435638284839 11.973770115150035 10.968603964117328
B 8.812613176956601 7.329679178983262 7.431142102050425
B 8.82886105646642 9.128281943647652 10.984103778948473
B 8.588499148674307 8.097882914671303 5.993522236913455
B 7.915800866186917 10.645203116637093 11.10710382885463
B 8.028958123528367 7.984822611684617 10.055920480549025
B 7.429131642307304 7.399019802515535 8.534563308454418
B 7.169553451517349 9.20042341119046 10.80902180936876
B 7.242930739748208 7.995816401544211 6.838987877780637
B 6.473779093855717 8.579687642369986 9.44200936826366
B 6.125479520560199 8.220244473711483 7.954683529835214
