24
Energy = -139.21340447 eV
B 9.048096531280635 5.474381191833215 6.092324764673161
B 7.557264810455882 6.173865266241778 5.408707000649802
B 4.808658762125551 6.482910639485454 6.220350154741365
B 6.2553967657065295 7.081947092825145 5.226123518406301
B 9.43874863280716 6.988172063658099 6.2293339291305685
B 7.674465292034306 4.773631792511728 6.570298957205481
B 7.657525470380301 7.813227517524673 6.0159577802429505
B 6.182060390304534 8.883910090030662 5.866134695633617
B 6.135160790124311 5.461542220202968 6.3237301196513656
B 7.564967880848234 9.437562387066123 6.470117871796728
B 4.907230488774664 7.998186790472849 5.646706103043503
B 9.074833238017849 8.524870181146465 6.684926940316807
B 8.526283603979985 9.606306346809266 7.833678198360627
B 5.332519407403436 6.115345298634955 7.749535709401415
B 6.81562574342139 5.248489519482495 7.9430203907705765
B 5.017076336507302 7.79860231907371 7.317962922492295
B 8.131768454996145 6.452932649146219 7.313948019241688
B 7.447828130077249 8.200429464571322 7.814677760149144
B 5.945054252542623 5.780046212310579 9.268980184674799
B 5.804889826147133 7.6241299278740575 8.741990272180002
B 8.013072670131166 9.238423673590159 9.242072003710131
B 7.361703203510084 6.770122406940761 8.846945512556108
B 7.148499686773516 8.170457060624836 10.11069829246587
B 6.356990838953697 6.873944379131063 10.355310769284776
