24
Energy = -134.07841099 eV
B 8.97869713205263 8.660108785979155 4.630558282693953
B 7.5510018807598955 9.416193535040831 4.985086240728781
B 9.181039648055894 10.154159563210179 5.019673647980711
B 8.523809507916463 8.836255717325251 6.373546350767295
B 6.795157475345382 9.701292765670582 6.339932061455199
B 11.501080755638931 7.101678092236791 8.115381163852703
B 8.221660929641224 10.710919636974644 6.173338456810476
B 7.796100483702443 10.28217127589179 7.657517915771728
B 8.563578449415271 6.288707566774891 8.921932618284727
B 9.950214113316997 6.581698688248059 8.147733044234505
B 8.801879695000247 8.188119407543205 7.850688835703455
B 11.176326484307502 6.759467691011387 9.574634566296073
B 7.001226661682502 8.649278681035707 7.6408334358979015
B 9.772448734209311 6.884605205555832 10.348746227838577
B 7.797002216291369 9.531605871691696 9.17011335001874
B 9.144500940177727 8.576548772530261 9.55103844050122
B 10.451461848811665 8.233289403597626 8.560573461355343
B 6.038685810588522 7.757774370092891 8.62396213656587
B 6.979796944417358 6.151329923531966 9.264212678174186
B 6.374969966356663 9.104855503668626 9.914954193788418
B 8.258152441174834 7.154546371394181 10.55164086128403
B 5.5192927500835625 6.531444563701081 9.660388309089077
B 6.667712218371081 7.367053792216439 10.580588354327912
B 5.221703745161429 8.077996620299867 10.10171544169507
