24
Energy = -140.38589725 eV
B 14.807870582794038 9.229980528635213 10.129470452050574
B 14.427283299394801 9.091292001252937 11.700905493499164
B 14.109664346434881 9.953035619961824 8.936175386986998
B 13.612405402953554 8.961875498762407 13.034389928806041
B 13.629596813157058 10.371703995434121 10.436172647277946
B 12.738895097097544 10.835975112024181 9.037035508526579
B 13.013854842432977 10.149965077486874 12.031918653239124
B 12.163687285050047 9.501888793376676 13.38372443992682
B 12.21816260499392 11.073760695005916 10.809418408388039
B 11.319219080143242 11.433717820850656 8.391771572145757
B 11.423024603473127 10.594275192412335 12.188597241202402
B 10.536719248318434 9.834705885035111 13.520492391289881
B 10.062642098087746 12.005968896146086 7.729781581759217
B 9.773205534595895 10.747217183582006 12.269062591646138
B 8.966364761092441 9.91361718422775 13.454818635810984
B 10.614583944995758 11.343127300257805 10.868643960694689
B 8.50421928066409 12.14876268632998 7.960854699265507
B 9.778397516789441 11.594068969305795 9.37604999151061
B 8.068384552074738 10.557067418111217 12.307153001858516
B 6.968586637815978 12.134266235829346 8.41200068091954
B 8.0092321009584 11.682455878984454 9.607388374594418
B 8.965192219298823 11.245950423380084 10.871290389335538
B 7.198109657108812 11.187598764639826 11.05059738644771
B 6.36865154243566 11.685675891128506 9.770239634978152
