25
Energy = -135.64978612 eV
B 9.216425971001785 9.658234739315063 6.085833354770512
B 8.226020025421613 7.58158195594431 6.014593196512692
B 9.627404793351724 8.115236340374993 5.640617780135964
B 6.854630407260364 10.322743693121257 5.83205266871568
B 5.7089510923037805 9.13500259433063 6.0955872528278
B 8.157812204290368 10.808568990317925 6.434262283430152
B 6.616503011698659 7.495689148409552 6.416269436058242
B 9.489947103070513 7.388867631642564 7.802373821959994
B 10.2021298309716 8.632082748652355 7.1015588151556415
B 7.74598705306121 7.014856139857447 7.826249742985004
B 5.246377732028816 8.08508001671287 7.017213435061214
B 6.527266016114239 8.319209568383542 8.09811058079771
B 8.132740072953213 10.181433511099058 8.042559642670163
B 9.91376907023647 9.226317769716923 8.480029009758573
B 7.22487345157315 9.328920374385309 9.334292521613545
B 9.847880696683854 6.07052862137749 10.13202482607065
B 8.896491356938057 9.963987744400663 9.536652082817087
B 7.54435599144776 7.567324486554173 9.432788508863185
B 10.262056505965354 9.440073411483814 10.195229132001383
B 8.802440774332084 6.393166888694704 8.953518260246412
B 10.948665550326082 7.020269128221391 10.811753425487673
B 11.07061813927662 8.52053403482108 11.249215791714926
B 7.580170058034754 8.713038124563978 10.816418114308478
B 8.137563836031722 8.297773470997482 12.2152373691261
B 9.72578396913252 8.426343580126836 12.142423660417707
