25
Energy = -146.00953207 eV
B 10.434935808043472 11.222258656290615 8.261655390949858
B 10.917257697559448 9.693537533263699 8.140339691571787
B 10.839995191855719 11.153916865850729 11.103231568725976
B 9.604693801160805 12.190583013886181 10.610925152353715
B 8.91542366202319 11.581388657797019 7.4608875106139685
B 9.436835703744812 12.383923323117244 8.933931646400339
B 11.16110982718062 10.352961751262043 9.704925473963609
B 11.490650967262207 8.752919699182055 9.395749681141973
B 10.75315504190896 7.923767664741832 8.133956704255578
B 9.87338458665754 10.334011327601946 6.959850173002216
B 9.31101008273649 11.090280787390638 11.84622316260904
B 7.871578854819926 12.393840085722337 8.32526477089648
B 9.895648699218967 8.6975934340574 6.796452272594976
B 10.752832573163236 7.3180184564415764 9.771666110418511
B 10.754601379895796 8.632892372778443 10.896099724268801
B 9.772008756776751 7.168940044470826 7.0500033200792975
B 8.025474120662462 12.575410082413832 9.884639900712202
B 7.969222225244195 12.02280905481748 11.442409552774357
B 10.443116901138602 9.844126653756211 12.049171668232837
B 9.818678507927324 6.433972516897306 8.463180131645046
B 9.654823078315266 6.076598041967715 10.01363342871719
B 9.82597672740067 7.075237073773987 11.215593186501623
B 7.775431798777575 10.861509592298733 12.469076813641403
B 9.713928375524825 8.36184440552597 12.225005780455245
B 8.746982830812366 9.616416104504014 12.604884383283517
