25
Energy = -145.1782542 eV
B 9.774657629599204 6.207250356807628 5.594828477354569
B 5.308093374059 4.8775268887548755 6.806339005626648
B 7.766471289861892 5.449064521046331 8.11284922217379
B 7.464932518717665 8.304889531380562 9.476386590388849
B 7.8536121601496784 9.766580521665063 6.958149991776009
B 8.267152400527884 9.170153759397776 5.448648490332463
B 5.342038423855495 5.719071196088869 5.471369815096301
B 6.268536946277778 6.629180876405651 8.20511441351903
B 8.568095607238899 9.136335537577228 8.334289884670762
B 9.213803180114846 8.8078539125524 6.782318269854357
B 6.841665454534871 9.284110723678502 8.114440625209369
B 7.356200789829375 7.862607084278248 5.077430482977851
B 5.976220348006462 8.116640584258157 8.901132449509593
B 8.750422556627152 5.744803534399403 6.841268806715258
B 6.623564715891811 6.312140981384394 4.753171230000278
B 8.240261547432713 6.253791306806922 5.105687714986954
B 9.9715690588721 7.116692911272957 6.914647628019927
B 8.758525728239949 6.737980901166049 8.39566246296065
B 6.185126480663225 4.977363995519548 8.091733635147255
B 9.01722700852235 7.980389238663324 9.558809564169835
B 9.076764434457633 7.74414045240524 5.455402680512753
B 5.858743590048437 8.141346486251292 7.288984978753442
B 6.828477087415125 5.857474167764124 6.580125530645802
B 9.963025734555973 7.985290509596248 8.265233723120769
B 5.849807337731595 7.3636582982419005 5.895157412236964
