25
Energy = -141.61416606 eV
B 17.934501637346333 13.905281949393506 13.82710245
B 16.46852609407152 13.663137223625396 12.87143237884271
B 17.244503404517335 15.193673346763267 12.918820768679893
B 15.362765504449005 14.989992446388243 12.774157415456527
B 17.244503404517335 15.193673346763267 14.73538413132011
B 16.130747756821894 16.002703856395787 13.82710245
B 17.240329468881498 12.462619391082441 13.82710245
B 13.093398627929881 13.024969814808754 15.089878500389004
B 12.443960369247106 11.829957669858752 13.82710245
B 13.093398627929881 13.024969814808754 12.564326399610989
B 13.997004850175648 12.230847741699566 13.82710245
B 16.46852609407152 13.663137223625396 14.782772521157279
B 15.658571086381963 12.376497972090815 13.82710245
B 15.362765504449005 14.989992446388243 14.880047484543464
B 11.01666554634614 12.738601170793467 13.82710245
B 11.567948362791402 12.793269188992152 12.11895873780762
B 12.61301816554551 15.416626654813669 13.82710245
B 11.811739820501153 14.434204182740844 14.809750345240706
B 11.567948362791402 12.793269188992152 15.535246162192372
B 10.273043816697827 13.651948938151136 15.21817917614896
B 9.598801770412209 13.924813965219425 13.82710245
B 11.811739820501153 14.434204182740844 12.84445455475929
B 10.273043816697827 13.651948938151136 12.436025723851055
B 13.70037358729093 14.660699177838723 12.822991328235698
B 13.70037358729093 14.660699177838723 14.831213571764307
