25
Energy = -142.67221162 eV
B 9.711844401224791 9.308358973077981 6.2044154600092805
B 6.878961633065367 9.002399675418808 7.463946567292617
B 8.525046758743018 6.105808910070571 5.754227432388164
B 7.998577187325104 9.542006734525781 6.335519815214354
B 7.163096060453346 7.988684845480417 6.013436574249063
B 5.647668310358461 7.989532119112027 7.066577868734623
B 9.356274493198852 9.799377952210202 7.654763395142193
B 5.6579741061136986 6.176141942430333 7.581765706981838
B 7.012807838901149 8.518293963398957 9.348247128663974
B 9.636859466493977 6.576471122223223 8.381374747424417
B 9.180737942583443 7.672228320174049 6.035088672410874
B 8.350196138169169 7.483902816424256 9.013962978135071
B 8.278879797933651 7.380085139635146 4.562129276315156
B 5.7238237302947494 6.913650006783215 5.87512139677062
B 6.9632465111369175 5.719569467321513 6.437418665187975
B 6.971856347375232 6.481740781442129 4.924591313885613
B 7.059788720255762 5.298842826326904 8.032390019783355
B 8.33941183299668 5.815253304068263 8.931727784350104
B 4.993845154163509 6.984866360148606 8.801900804162411
B 8.319420171193679 9.156776995734514 8.67697001441913
B 5.670260481149728 7.8237910744120995 9.939206052040639
B 9.641380362266014 8.050410652344718 7.721262613579194
B 6.711403963369714 6.70911136107564 9.078191822909496
B 8.705118350953931 8.917264485395295 4.9304079879178335
B 8.538527883669937 5.487767812011313 7.253340309869369
