25
Energy = -144.5513653 eV
B 8.596991574336023 7.340980118783777 5.080430028495881
B 7.111582811631677 7.98410475075595 5.116688162122357
B 9.889278435860563 8.141037567904075 5.740674321719063
B 5.6128406797577 8.558799071268673 5.4019655861025315
B 6.317751508690475 5.469916202828545 6.574743604562216
B 5.997936591857589 6.9674728107347885 5.940124245257841
B 8.376183138937558 8.74203969837468 6.116679904361523
B 7.621975179350115 6.348554410011219 6.067523541854282
B 9.782124082516729 8.796656443722831 7.143811847954052
B 5.116100073746717 8.304425371885662 6.920246151026242
B 6.784611438857831 9.123523077558609 6.575326662454428
B 5.8258964088829694 5.109458306618673 8.144851345563925
B 9.387430893383591 6.6958764541527 6.456355419871464
B 9.349458111641088 8.894719831481758 8.69313409035668
B 5.327862083488052 6.6234597472874 7.483306697072065
B 4.895753732452367 7.89797844551428 8.497720487393881
B 7.943908549260619 9.22923325660586 7.740521375096822
B 7.487062297169323 5.2770994059913425 7.989051336442557
B 7.849763872521352 8.168502263906595 9.037427271841164
B 6.416218980448923 8.570477990400187 8.246005793322642
B 9.005331707752386 5.97123024583944 7.888910597692436
B 5.317250570508746 6.457180806494484 9.143796273593711
B 6.634885281045425 5.577528384990963 9.500366109898609
B 8.011650808507184 6.396035501406663 9.370528106006795
B 9.286241287302484 7.299799935388148 9.075901139844312
