25
Energy = -146.27454603 eV
B 12.875267470254837 12.398603615730813 12.331055692917987
B 12.582318554169408 11.787844507074924 10.701279814050526
B 11.581677336081498 12.535192081385405 13.295211463885025
B 14.084130050831938 12.006381696558842 11.36086176469853
B 11.31155338200927 11.789428437124656 11.856203307798395
B 10.142190975846042 11.900906972457888 13.05471193008844
B 11.11318821474768 10.9594488406297 10.395589644986526
B 12.58569052637812 10.315847594640164 9.75553316983889
B 13.88586143312861 10.1945950731931 8.741319052534806
B 9.9003407517995 10.882226228725635 11.634040485164295
B 8.644699077811124 11.353588758645417 12.69022134653143
B 9.61901002889187 10.10690180298137 10.09826916265665
B 7.175411382862644 10.869617181124267 12.379692859238276
B 14.089526140901507 11.174630224590622 9.993271849663776
B 8.299141167855591 10.471543600713161 11.201393164052362
B 11.1397073335542 9.672651606371423 9.266542374587369
B 8.114443666603421 9.407001535139022 9.527990805834696
B 12.591096770808504 9.35259943265777 8.366608396749745
B 6.561792491900447 10.120413053355556 11.196414205240785
B 6.392109557489729 9.28434710585249 9.861063985407824
B 11.179237125525376 8.593843317245065 7.950875723278662
B 9.740252905465578 8.860617503222384 8.90047528506831
B 6.953573985874551 8.53985185225361 8.669626341049778
B 9.816748894631123 7.970618728516953 7.477091987721273
B 8.361811891143464 8.19208036637594 8.035437303521674
