25
Energy = -146.26159794 eV
B 13.266188816904972 8.851465213264772 8.26548592954053
B 13.032656669969818 8.547677373063058 9.80992219358947
B 12.447556323132485 8.330500801362698 11.33751342119588
B 12.368525511679115 9.755002550095563 7.264143587513141
B 11.242821597761548 7.947966836921566 12.403102024404383
B 12.051693512599725 9.693598611120803 8.994326613460581
B 12.129892704039934 9.857626715660334 10.655795431434887
B 11.734068019127715 9.529293864826956 12.188646801125273
B 9.734311293902579 7.7458349272534806 12.92623665203451
B 11.206962969303483 10.497517139729155 6.441140271288014
B 11.199975005746456 10.84740869132752 8.055609198249465
B 10.199769340626487 9.354078946802822 12.741571843215937
B 10.986012557156597 10.727466234633951 9.748511183377843
B 8.592776881041598 8.819877983740126 12.829873164735673
B 9.021899005539721 10.097930984486277 11.785368864166568
B 9.433494759224585 10.902526673131009 10.340677300437648
B 9.780616891550682 11.439259661739907 8.748728064467992
B 9.913684746618275 11.218155648237529 6.976595545350746
B 7.352262267477458 9.601399748872788 12.016376626122032
B 7.860733794958858 10.443159102147192 10.644425079687684
B 8.19497938753284 11.437607150326073 9.300264726319853
B 8.430758449014318 11.602050931089758 7.6055107852810195
B 6.272742749582001 10.208143650398027 11.028173642564928
B 6.500372845375061 10.979045794396443 9.625588657952823
B 6.9662929514234575 11.486453816661808 8.187461443773017
