25
Energy = -146.20216667 eV
B 14.0466986610419 10.155272641622895 8.267810104577912
B 12.629581268791942 10.742491531269788 7.838710199295573
B 11.066610693416056 11.226048459894061 7.5981623288320375
B 14.486239934421716 9.633379771862572 9.707897779215447
B 11.466718140765346 10.485896151589746 9.089077567767054
B 9.48055446901259 11.55816861855702 7.26939456722324
B 13.068900019121378 10.488582282899385 9.568072276002617
B 9.906451912253925 10.874993539571564 8.795190573555663
B 13.600095957762518 9.576482759401047 11.029571253027198
B 7.901042964051018 11.731010139750897 7.1234260089585115
B 11.944544987398308 9.907097299290877 10.661476265532674
B 8.397177383691268 11.576587734343105 8.699294153914215
B 12.475710593911243 9.518908998461011 12.242101687088939
B 10.261242896844132 9.807676954330711 10.170105699571296
B 10.833528894529925 9.750677273222353 11.849264924792584
B 6.80264998270872 11.498510942787993 8.253242301423557
B 9.142714164250421 10.057290963005832 11.509334729585966
B 11.348988949436533 9.29682107821295 13.432480267231256
B 8.691400477011161 10.593713694140023 10.02366363561668
B 7.056035901533579 11.060658855862457 9.767306682769743
B 9.728784702283285 9.979035313866284 13.076235356865077
B 7.535532211899199 10.583941006704714 11.279212177680833
B 10.111516377444003 9.068683830543618 14.41024570373723
B 7.965738104394025 9.98018160864135 12.760730294275255
B 8.577109434311286 9.373457632453965 14.103562543744772
