25
Energy = -142.16627411 eV
B 7.841028035413168 6.555066240935416 6.079570239231882
B 9.06396657861993 7.327441464200037 5.224739284275703
B 9.39097673383668 5.838381632106324 5.952630497066881
B 5.129760645068124 8.29563767270481 6.884920290216259
B 10.58570232639009 6.64675791754502 5.198995598523985
B 8.11295127317105 8.477571775949277 6.019710449771091
B 6.549886128032955 9.204815033004234 7.056514342420778
B 5.138018708424684 9.565275472053045 7.986914109315383
B 6.472617562389936 7.464738635115136 6.5167196111382575
B 11.208857996369112 7.169633248448158 6.495121841821657
B 8.480624030265105 5.500864788195969 7.334427703103431
B 8.070352934340727 9.810357497539993 6.960003700274509
B 6.934332285273912 6.0775759694731395 7.417959125934355
B 9.28448019927229 8.83633183700395 7.422129617459175
B 5.535246734555916 6.859080647741875 7.821341596959103
B 10.324377604009594 7.5465140766924845 7.70963604263154
B 8.130361612297628 9.347073109310562 8.521946796630301
B 4.419584361476604 8.052223837930232 8.408110927301893
B 8.707509808224001 6.076186601066898 8.832440695277004
B 7.439653934848862 8.618673166935439 9.791907269570991
B 4.9729863709373126 7.105840154852015 9.516595752191618
B 5.801654842289702 8.691282584737923 9.284677306858892
B 9.103764812894827 7.780041211362579 8.757149811543453
B 8.105734064111598 7.06621958590278 9.917255275512678
B 6.445931079628653 7.336776501335302 10.138942777111811
