26
Energy = -181.38478465 eV
B 10.682567866718516 13.187472863937234 8.057522589440024
B 8.27819080812789 14.66290958208565 8.773101700374156
B 8.097186604249533 11.68693112361143 8.926593240740116
B 5.468818982098725 10.769016046234421 10.121883988125235
B 6.382332352135041 8.759988916346998 8.571309642007485
B 9.558159380363353 7.504945942174122 8.620711529645272
B 9.140631148750703 4.644740270578634 9.458028552442643
B 11.528438591537093 5.304793539767753 8.117534773143332
B 13.709106733360997 6.202031231534342 9.66006132419344
B 12.482817024602227 8.004617204175386 7.683029144907072
B 13.79500183026 11.361209382045804 8.23418001951766
B 11.230811185818908 10.391557601273641 9.116074557622314
B 12.777434844128338 13.319382384283466 9.949434897578996
B 10.608309947228818 15.104200517708602 10.29091231278054
B 8.220502504525218 14.444148248519499 11.631406092079851
B 6.03983436261866 13.546909556753034 10.088879541029614
B 7.266124071377578 11.744323584111715 12.065911720315968
B 5.953939265719649 8.387731406241578 11.514760845705522
B 8.518129910243694 9.357384187013757 10.63286730760075
B 6.9715052518513065 6.429558404086847 9.799505967644318
B 9.066373229261004 6.561467924350148 11.691418275783038
B 11.470750287851772 5.086031206201723 10.975839164848903
B 11.651754491730133 8.062009664675953 10.822347624482928
B 14.280122113880935 8.979924742052974 9.627056877097809
B 13.366607743844465 10.988951872023309 11.177631223215839
B 10.190781715616303 12.243994846113255 11.128229335577771
