26
Energy = -150.79524881 eV
B 6.640948473286869 6.216332483152773 9.319722107284907
B 5.300788961251481 7.304977259318692 4.938305507256954
B 8.418995306576685 6.030631161372455 8.98098370140348
B 9.32270424352964 7.481631558962245 6.05832487391649
B 8.048917309930953 10.212278393744612 7.45305685669918
B 9.522613217518678 10.204374385642259 6.890977667192243
B 9.170516990141078 6.448201142544095 7.479648163279256
B 6.620923053116395 6.404725421388549 5.188808041100328
B 4.457769527209497 7.583855302315863 7.475006567688085
B 8.301722938472045 7.896719492298338 9.465776306514199
B 4.08920584876793 7.544767493570289 5.901020349236796
B 8.153280525874415 6.288495159410718 6.029646799337117
B 5.521447515260413 8.41406525383222 6.332515836087903
B 10.264090805587072 7.733411897641462 7.52522269290547
B 10.187263434235431 8.881445912601803 6.328493871410282
B 6.048248336436084 8.07029383926601 8.032213603409957
B 9.238934350912782 6.747681593456641 10.36313468613588
B 7.7000930384831054 6.491046872498155 10.485369696511677
B 6.847297864351693 9.176333358547765 6.946264692051532
B 6.7522551738859296 5.43716319797428 6.475623167090775
B 8.504803443283706 8.899117055944012 6.5181393838622075
B 7.910106192266316 5.416090489241313 7.556542778182643
B 7.469624592266097 8.970327726315759 8.497572994865198
B 5.47540413583033 6.494183968537502 8.250184385934965
B 9.922044508589078 7.258281867390489 9.019635081569184
B 5.403192957966552 6.433972727783986 6.493762442259392
