26
Energy = -141.42518185 eV
B 11.102031505448721 11.105540870104843 9.948958276408465
B 9.601814645063868 11.532625611621897 10.307072514440339
B 12.508017142451319 13.375114503851268 11.018921123429408
B 9.80540919776387 13.415294688554523 12.47291903698042
B 11.791179023731488 12.683595029803575 15.153679388430955
B 10.894700289776521 12.457811982379582 11.205768617291794
B 11.526617050927449 14.145729305653047 11.99370516833538
B 11.614379681784182 10.867294981061251 11.634164663408558
B 11.368908303200545 14.189833274264087 14.764975377862472
B 14.280938550699052 11.63323058168496 13.381342165407872
B 10.599819096073993 11.865194408289446 4.955647110863183
B 10.253987033833836 11.611164870793852 12.651841617831138
B 12.766981905792646 10.735431793386077 13.033887207110897
B 13.029318121060745 12.016292249030062 14.286672520428983
B 14.575919607348169 10.013143940187884 13.283577995454486
B 14.266556836051985 10.81618611429553 11.83759810619752
B 9.06737683122209 12.339115140183681 11.541262210039033
B 13.383619285268658 12.105353751895935 11.782292256313639
B 10.756909294045434 14.547968451237585 13.35529139449048
B 10.902918855780248 10.116859878498907 13.170226594043765
B 11.408944594132974 11.344671322094985 14.269284538976494
B 10.784536652788939 12.900102407691069 13.823908040489682
B 11.064409286683357 12.30593432010013 3.506828192928685
B 13.560058035402552 9.088561570878989 12.573654878327636
B 11.967334216268624 9.229505212029272 12.390061400903761
B 12.16093317607523 12.288460577074737 9.90497877198515
