26
Energy = -169.98314448 eV
B 7.598250789312976 4.445695097185941 9.569709030448514
B 8.239461307445938 10.120645976706552 6.736213054521197
B 9.266195948483318 7.637818725632381 8.239016221369146
B 11.316477164592012 11.911885204357754 11.161817159473676
B 10.444700716878264 4.60038181144108 9.61613113659255
B 8.334153272497966 12.039517561318513 9.59104791800136
B 11.699817958286701 14.203142868851323 12.026264346658701
B 13.37276177395179 9.789321931860528 9.792149091604548
B 7.3752530509684435 14.527333486002751 9.668501807462082
B 8.623596996297623 12.699719322771106 12.43307861895626
B 6.692862046723319 7.061596258937705 9.599662137768142
B 9.151411860203016 7.605909592670527 11.121602871026576
B 10.465056359982562 14.986334158787784 9.183352553731146
B 10.938106327135298 11.97668575663742 8.199927906329528
B 8.148935900620202 9.985213882351403 12.666621405534533
B 11.639873337453572 6.225961929274036 11.829349222101
B 11.645863480330096 7.440149023837051 9.734343493259246
B 11.264388660244055 9.503365279066264 7.618203542819534
B 12.915493418844767 13.235053024690034 9.201117135458484
B 8.559134751115145 5.564340770331871 7.188313447444012
B 9.1735629242164 15.305633731022928 11.684133603579093
B 7.780991430778516 9.579783406931693 9.682921819883125
B 8.48726964929984 5.408415136137587 12.053757810923635
B 11.038592332713758 9.507165484539536 11.72098238449156
B 9.129270592498804 13.320865963990055 7.133884595081854
B 11.710872139198946 6.330419062053251 7.560252132867735
