26
Energy = -148.63229848 eV
B 8.073693451784369 6.219968571167565 4.540064141435613
B 6.859549320890824 7.183155422541869 4.761315221293141
B 9.136641815884005 6.744265351151704 5.556589049976929
B 8.27121420672036 8.091357194979972 4.890482343288965
B 8.83338589798331 8.22719264004948 6.433932653185125
B 7.62839606613495 6.730862489077949 6.32116315337289
B 6.989247653455602 8.42328102035399 5.915627406749581
B 9.425099030661093 8.977038429373842 7.809700052755265
B 6.278383679457179 9.029628216225039 7.252193318417965
B 10.726257088539011 8.658239107117458 9.056536062349275
B 7.296941498111742 7.427904812084572 9.455245061333898
B 9.491730766930106 10.943638166614148 8.055216388038067
B 6.526560801482964 9.898852224879558 8.63888247597174
B 6.049548652968316 8.26544977117594 8.684150679568178
B 10.757414137545876 10.076564382194162 8.41941010215296
B 8.529893161543978 7.164055527397037 10.537161491873418
B 6.924823150094406 7.323752319805652 7.697899972079099
B 8.019833329983056 10.573465996933667 8.394669104733119
B 7.150706040584573 8.6403444687048 11.419312267640052
B 9.05079982188831 8.081096871338724 9.197285817737681
B 6.361963158193291 8.987550063204699 10.099697666941834
B 10.283321811767308 7.67611216589967 10.359487621077665
B 9.289196710892613 9.896686465870525 9.442842318465233
B 9.72810322734689 7.618028901064517 11.817529284765747
B 8.298301833549264 8.006798718775974 12.258811552286717
B 8.853337014124039 8.96816753221245 10.866156561460423
