26
Energy = -150.47404905 eV
B 5.643666959225855 7.721489794920239 6.4829726423179945
B 4.425582236779955 7.361287688883929 7.817725198488344
B 6.70181376053771 7.479385605926029 7.992262014429686
B 5.571471564686838 5.489164055921755 8.56410132477475
B 4.041550656534453 5.788814211450065 7.914220470342357
B 9.88840625570602 6.911437825431221 8.587348875309964
B 8.42644991655132 8.109432024204505 5.983919987491627
B 9.548356218176187 5.90718444927003 7.2650937729646925
B 9.293172655766552 9.193360437138402 6.952453342686749
B 9.749943227769203 8.519883107808214 8.497990678390007
B 4.8704009784753355 4.622251913997782 7.206829384270505
B 8.349228469905578 9.346485882613825 8.416993126268114
B 7.073797718769901 5.922725200616096 8.816472974946818
B 6.467838964838147 4.754104666073752 7.09201786157447
B 9.710698714318168 7.585843061061129 7.0648928542039044
B 7.051795128834744 6.775012416247429 6.432538008775591
B 6.173898112378198 9.37811787433944 6.414243296248786
B 6.767206572225255 9.249323868874129 8.233027747683217
B 5.2820867542210115 8.753412586014091 7.852983280151051
B 7.771901050013106 9.63192329859443 6.647157232235592
B 8.650148598552192 6.378901155236259 5.823945756853274
B 6.816956403725986 8.329663928399214 5.231770815218156
B 7.74853531410325 7.144369351240577 4.744039671097443
B 8.033814110688986 5.226857499424858 7.119942873706209
B 5.179145635758419 6.144855089554175 6.599539790531575
B 8.670712679909293 5.845436768169124 8.690433012043258
