26
Energy = -148.03709697 eV
B 10.971653549678331 8.118674215706328 8.739323305514421
B 11.327591349073357 6.461583264341095 9.251692265893173
B 10.820953261450459 6.800465190022221 7.713461617642875
B 11.45410969168611 5.576357456534182 10.628350785384255
B 11.813142819011578 6.979792329044211 11.18726124823069
B 10.955505680319886 8.0310880075122 10.343203619660997
B 10.4842654078506 8.353299833578403 7.146670955370764
B 8.736364673121052 8.60021173161336 7.257466106915896
B 9.348406124976655 6.904614197731989 7.063394715013476
B 10.072683717805875 6.3841509787689725 10.652314061050225
B 9.241542545990143 7.498260405021548 9.88314615664792
B 7.719766289409057 7.176958720471997 7.127520570881262
B 9.22418944598429 11.139038003797351 7.460813591877003
B 10.111386855883469 9.889399295222283 7.055295151581713
B 8.077762262143755 10.14622996548919 6.678552993739155
B 7.772079561901716 9.736696468239456 8.414415821513007
B 6.611148602153829 6.951084956055726 8.321280631183363
B 7.803862358735741 11.4642972349113 8.060995660828986
B 8.015919791691429 8.062743301032015 8.850058789622095
B 7.147359113308758 8.781897063050474 6.5476461520108336
B 6.335194740367216 9.981760151089507 7.253244471469801
B 6.312887691743602 11.27265405610813 8.529148531686157
B 6.2755726629675035 8.719508297867746 8.59763420267101
B 5.2818749786850026 7.343682200848339 9.042267516702417
B 4.634281619830956 8.757194149903428 9.072449071423055
B 5.1700786616701855 10.186748628747008 8.65580382173109
