27
Energy = -157.97820061 eV
B 7.018429503291775 10.275647593989676 8.014300009083177
B 7.017412077235241 9.1715989339333 6.913418736777955
B 7.5070518009462655 8.243640500161042 8.425203790831963
B 7.188004720885244 10.968610786610599 9.441403871138412
B 7.743819940133792 11.819952867854415 10.693079312916897
B 9.108750070635795 8.119461952403976 7.575687662762751
B 8.66456826302991 9.766942590167366 8.274202610407844
B 7.5062705152612414 7.66788072627236 6.764210657142143
B 8.269363207818158 6.631231474423731 7.620753583272059
B 10.464285363884688 11.755137193770167 9.835743562402524
B 7.365790988835222 9.159754854819797 9.735458664385742
B 11.101224415086467 6.43220026288871 9.056505215983522
B 8.229161598559507 11.161038372517503 12.098856711226913
B 9.380089365717671 11.830160929984626 11.046918897148533
B 9.713987191645892 6.397268559239085 8.328469592984357
B 10.221408530673239 9.329405071966788 7.698766790815351
B 10.193567772875404 10.584525286285725 8.74983392519531
B 7.5494832670757965 10.171557849164792 10.954402038456308
B 10.725160857263853 7.805274230076023 8.251232542693694
B 11.934098608951311 7.70773893591249 9.513754761064869
B 12.46230829035085 9.122548640941167 10.133671582456941
B 11.416136976853211 9.277465206215489 8.848561459979898
B 9.736596251524023 10.947801346555973 12.62873617411547
B 11.577933093710108 10.538121188796902 9.944873976046233
B 11.159437875606784 10.289914902883051 12.744675472230306
B 12.020735957798344 9.80636914414939 11.547913582827569
B 10.939207334279992 11.233034437946595 11.373648655583041
