27
Energy = -113.43101703 eV
B 12.656736891559312 11.134794944005455 10.76241163627168
B 12.85775266152755 13.700779796488042 10.912941999568217
B 13.07010054106278 9.067162331325246 9.835843517622493
B 13.19033295704637 12.233713086435676 12.680043506674885
B 13.12042385677153 9.204063178560164 11.884551472514755
B 13.042814432242638 10.381991493739452 8.038267896615984
B 9.137642008615881 11.101584621187786 10.834732424417554
B 8.857386706714752 13.679428154445121 10.9824291486561
B 8.68115883607675 9.0783367423465 9.865993384682824
B 8.582424904670077 12.213494474464035 12.758958768998406
B 8.706238893797776 9.118188261640515 11.905042605742983
B 8.628171265322479 12.469020088766307 9.072503984254777
B 8.634891579073937 10.392983503832912 8.064769834730475
B 10.864848937015545 12.98492487798442 10.076320381179242
B 10.86796829573949 10.666981368453266 9.741141595695572
B 10.857044261109433 8.375358713876812 8.433220784685568
B 10.78193905491501 12.674456913247367 7.849106012794294
B 10.83841492319013 10.324457173230467 6.93446852391524
B 10.906596591050358 10.622829818390114 11.894192249866888
B 10.877688703145745 13.182649817412859 12.2960830525493
B 10.874560663424864 8.435249399037295 10.61598009522275
B 10.931947219565233 8.073267157854707 12.689001523696392
B 10.88398493465233 12.018616850051048 14.220508935886606
B 13.039028899408317 12.520750762660336 8.957597039836914
B 12.883296318490773 10.388531804279857 13.814846747193501
B 8.916905232419719 10.35231777998866 13.819864544921382
B 10.912662491391504 9.207029232867946 14.662140391805353
