27
Energy = -158.55041179 eV
B 14.258291086699549 11.336283465321406 13.021524898158962
B 13.977053861377312 11.422680706766325 11.472126520342211
B 13.634427013314047 11.656254393424517 9.906680913262734
B 13.304659956856552 10.79033373073769 14.174080307725072
B 12.454832269608069 10.703285886281202 10.794627234704777
B 13.306702445322964 12.203600852366561 8.483032678529527
B 12.070100671154622 11.296307272067583 9.247579447886809
B 12.827986100446953 10.673564725388802 12.43624181157108
B 12.162405790142625 10.296749528077745 15.191939426793802
B 11.929557254756963 12.192672030205818 7.724883967341957
B 10.446593442433185 12.439559857716446 7.113977063671338
B 11.85796610556319 9.981859038834566 13.581220066704127
B 10.660379160483851 11.232648750641067 8.349795579297584
B 8.942869578790374 12.782305828202418 6.658903196513247
B 7.641694126967799 12.165860636482957 7.299647266909017
B 11.461535309393462 9.865642425711988 11.93534165027886
B 9.124496390026772 11.555389860887445 7.734329754768526
B 7.5805707955322195 11.07900008639004 8.483550965765506
B 9.855727210310723 9.455787459833688 11.600653078286676
B 10.688354285842468 9.746691841930529 14.869578170452534
B 10.348944291390538 9.423436183820023 13.15718296986879
B 9.265667717179655 9.511222341367427 10.134329628371946
B 9.140234754982725 10.354040311543121 8.842734704986754
B 9.188611053571785 9.455684586252394 14.382654439987036
B 8.631663424992936 9.345950245597935 12.889368608660858
B 8.139388927213425 9.535340197025283 11.352858281275083
B 7.782301375525235 10.180862157004581 9.8441717677649
