28
Energy = -164.63476106 Dir = /p/work1/plile1/GA_structures/B/28/all_candidates/452/
B 8.837954465769124 6.420695341752996 6.703394071563174
B 10.312007356179045 7.14414569334233 6.533126698266239
B 7.265084830947288 6.378314022034375 6.960639093517525
B 11.467597339741413 8.317189463966663 6.282108033726608
B 9.790239178036838 6.799998368980043 8.092015163744195
B 11.075563189103619 7.7700796744793825 7.901556806284892
B 8.172800492563812 7.148192506463039 8.129026828826325
B 11.42765935479736 9.35076861288192 7.644667677145051
B 6.460327321466276 7.026078308147631 8.197552864564297
B 10.515109407794652 9.051487260939474 9.035687774984686
B 12.044723921891533 9.788077037703692 6.160435762073819
B 9.122055281749182 8.056008729254348 9.271105996290478
B 7.383355761590319 7.983151006342029 9.312847429610558
B 12.012858896844696 10.989128053440067 7.248402560044847
B 8.268098016420948 8.540341156881308 10.669500234361188
B 11.717199074084744 12.076563459213949 8.398102179213842
B 5.657014353136377 7.924832523282817 9.312722878233837
B 10.527469100286075 10.27295392270409 10.217295041502673
B 9.128339824834985 10.029095290016082 11.081333599975856
B 10.971406777359432 10.613275753346487 8.627658332734073
B 7.481893446939954 9.917903758599035 11.255344160917923
B 6.597253218818362 8.579204548321634 10.708990965919321
B 10.832632266056516 11.933942376775544 9.722303417389515
B 5.038140075847385 9.01444158624881 10.265396345343419
B 9.667326486964598 11.59522347029187 10.816407401400875
B 8.207657170097107 11.429210954565779 11.597478804957213
B 6.66383106731067 11.249084431151715 11.820535521008045
B 5.736320176376138 10.085537597107507 11.223959136620795
