28
Energy = -164.35810407 Dir = /p/work1/plile1/GA_structures/B/28/all_candidates/428/
B 12.857465213588561 11.281365450031837 6.597639290903527
B 13.651892699592533 9.95640541033058 6.852869847884301
B 11.300884191177108 11.572581181138851 6.9300388992103015
B 13.033966145983108 8.60413862555238 7.521391515176643
B 12.04454390556595 9.957033970112857 7.091039607675938
B 9.790568118344606 11.692770920550002 7.515364652664441
B 12.374259774446681 7.435414360246457 8.481592567000803
B 10.462984878382876 10.152296845004809 7.62166351817274
B 11.329178431317445 8.675608013805098 7.875097352761258
B 8.34300615180722 11.945318819779063 8.278873930494818
B 7.062076936365195 12.246890764485027 9.156842040943232
B 11.740579925441825 6.493473106587455 9.623308444295407
B 10.64808627944601 7.408170012145862 8.762075823001016
B 8.959396216043585 10.355359206143955 8.262304406801672
B 9.68084189504549 8.785141015022042 8.337796807614627
B 10.27095566034659 6.487331053075352 10.188616526940834
B 7.657694450285398 10.658856607356164 9.279716270386478
B 9.125424296615105 7.638796184332397 9.462963509143568
B 8.250680845367427 9.081048634790704 9.208367782782222
B 6.432141940909718 11.40848997638997 10.318735580605956
B 8.721410107057 6.62849100108076 10.775758888768177
B 5.921532899313949 10.6178649907026 11.621136647052387
B 7.601145166009222 7.686926806537935 10.033779516094345
B 5.385600228526326 9.038205516616273 11.371008461908112
B 7.386495151551564 7.049151798681948 11.592180032166628
B 6.0180035506537815 9.583695448160785 12.789675044813698
B 6.132051672397734 7.813562329186394 10.720725551259553
B 6.37487650671245 8.083103875877859 12.385791395055334
