28
Energy = -164.79050932 Dir = /p/work1/plile1/GA_structures/B/28/all_candidates/552/
B 7.973964329258486 8.843579654365083 12.386165641415735
B 7.001460798200939 7.628950756589057 12.022109393498168
B 6.084803383787706 6.498790396810903 11.397081600469894
B 9.174985091636989 9.540501868030576 11.639281258043228
B 8.489202794257016 7.934711969219967 11.065002573862387
B 7.121490787869714 7.214972060989273 10.308944963653726
B 5.99681645530833 6.021690692685842 9.892394650262599
B 9.238685035028075 9.024242436861757 10.00552825400967
B 8.544539045266367 7.487869784305106 9.434090556287966
B 10.178982807831135 10.320630271652291 10.610463029355087
B 7.179612997386905 6.59240473946502 8.741658204523844
B 5.890430901789851 5.53310688860616 8.325859070896746
B 9.26740353350307 8.53993589375274 8.384507245084896
B 10.257335854062156 9.80476393692251 8.967076426444459
B 10.806357342594088 11.387225705007689 9.534958133947823
B 5.494089801542608 5.260637068912681 6.821356486483371
B 6.579504221140664 6.528120071174907 7.064763361764569
B 7.428221536774634 7.890322084034341 6.7808748002335575
B 8.600035594838985 8.898378665682548 6.895275006352615
B 10.029828713901543 9.529612367162976 7.2570269953695545
B 10.74655553248337 10.925088372424497 7.819846081523437
B 11.219645378245938 12.396046011695187 8.325665518351457
B 5.917771456713739 6.0248990676196605 5.5445515336048
B 6.859538024377114 7.284325428442153 5.369055700168103
B 8.033752780989348 8.554394485168363 5.4080929966922735
B 11.018268769343358 12.16033780178783 6.788374762609034
B 9.267022295269923 9.693060629517388 5.607548513362754
B 10.313905391947232 10.876395628896246 6.083322236557154
