28
Energy = -164.40307909 Dir = /p/work1/plile1/GA_structures/B/28/all_candidates/511/
B 9.657420913384263 11.773561400846635 8.714605115796525
B 9.83736222798754 11.867541906066602 7.138678907891711
B 9.100584623653846 11.29574189822975 10.136518116686263
B 10.246594963347654 10.258239347268379 9.569190559569961
B 10.58487599439726 10.580536152106438 7.818928863216489
B 9.811377961800856 10.560154259118272 6.248641222040484
B 8.829383679674219 9.799269674403005 10.496991936055837
B 11.041047637574069 9.133088134042115 8.595229869454814
B 10.30037797513076 9.07863412657973 7.040752992876589
B 9.749370161137803 8.620000785563075 9.581414998196037
B 9.375503560384207 9.067952215952605 5.657203692692942
B 8.374789119734475 8.192598056258799 10.392463757290372
B 9.54212671979197 7.697660962711996 6.600019590621763
B 10.440529436837878 7.695417434746344 8.138235212292152
B 9.577494357673647 6.354116247047557 7.841077210491361
B 8.221183715785482 7.897569524676299 5.547061785241702
B 8.963403587515867 7.196920718893613 9.245157300607453
B 7.302422428520638 7.076029837717342 9.818156348479887
B 8.234646424934663 6.640707131976828 6.719346772859676
B 8.133475124163589 5.886427751836378 8.391871689550413
B 6.893904785592211 6.9739948928488 5.766165724931017
B 6.651897967372914 5.68744416626186 8.972600645069889
B 5.658146984165568 6.7758709507173265 9.762715066750172
B 6.737781095331095 6.16095689216758 7.226743462234945
B 5.3402895988042784 6.372559396221235 8.107522555795683
B 5.405137653481415 7.017779006388626 6.5131580723155205
B 4.307717879470005 7.293394604502659 9.053347872372637
B 4.193043423331106 7.372050339828757 7.487676408103637