28
Energy = -165.37238003 Dir = /p/work1/plile1/GA_structures/B/28/all_candidates/436/
B 11.706517367229958 7.292888485652306 11.102412592254185
B 12.391339253776307 6.542582436266209 9.88897868307502
B 10.193541599197964 7.839107905720845 11.180794943269722
B 10.790897072152156 6.865662619323031 9.816153712381134
B 11.684728122067208 6.2454979722274615 8.467032227083463
B 9.20250729390146 7.346418257192673 9.806214345118502
B 8.672963691716642 8.40181645474784 11.041706255992274
B 9.9448854853701 6.4346613284359 8.429935737912642
B 11.045683804282726 6.545362126924155 6.980240558913549
B 8.338782084072177 6.938707270137997 8.334707481234341
B 7.70387159028808 7.9882725290435115 9.7093551383915
B 7.25839515659123 9.234412624447074 10.743952514290534
B 9.395965691353977 7.012077195712377 6.9255393297742796
B 10.403607850771825 7.0955120741223725 5.62784080363906
B 6.287110193196606 8.783360933932153 9.47207195242886
B 6.318973451380453 10.45480041943803 10.151110752901035
B 5.656188687994188 11.543466697710377 9.229782873619532
B 8.957470007212715 7.719371947736127 5.4321787007551
B 7.820065090509869 7.561669520317815 6.771423449820571
B 6.785179564119241 7.579697675956474 8.215914224040377
B 5.451760978959199 11.398796665238173 7.655469084074937
B 5.38597966469833 8.450405760469657 8.065378513651392
B 5.338363926766188 10.0123827846886 8.725614477837993
B 7.493473432299493 8.521978669400019 5.422635202432041
B 6.473621051117316 8.476894018768329 6.738960826953817
B 5.332572317175713 9.714790956017346 6.989442930208491
B 5.723281146243564 11.067555204187476 6.096824088280863
B 6.4369794746780995 9.776315666901837 5.548839052906806
