28
Energy = -164.22795898 Dir = /p/work1/plile1/GA_structures/B/28/all_candidates/533/
B 6.041939696317292 10.893621786484212 8.774929941562432
B 5.637717985129603 9.465795866815736 9.337884447199144
B 7.466363918428936 11.560826389685696 8.811300643201873
B 5.451385023743582 7.877373376425061 9.721373311068449
B 6.8223161303188204 8.627811350827391 10.293305255815644
B 7.171918883294612 10.219347310434475 9.78684143963943
B 8.297321256392694 7.729879193138594 10.556108803214592
B 8.924007009561947 12.284023607897613 8.73924803399623
B 5.6669741915578165 6.483143172528124 8.899272495105395
B 6.764478570709827 6.920399774666189 10.288405564536127
B 8.919287132125039 10.482283904745046 9.554788012411493
B 8.311568395137407 9.374113239431251 10.707276432580484
B 7.136710665704272 5.609567913059781 9.281834928589179
B 10.315668920930186 12.919596512789646 8.38535727967359
B 6.252342991433021 5.386086265795619 7.894740693529106
B 8.24919976066818 6.1200881583432265 10.422177512072532
B 10.30265950120097 11.317623557322065 8.916475330531425
B 9.437064485832076 8.641290838852862 9.709280993342889
B 7.739133250046787 4.938184852995734 7.8595935487971476
B 11.758847768796135 12.307695349869347 8.201049349274813
B 8.805866440761548 5.590547428943752 8.862074393603576
B 9.591206943336553 6.90692765762467 9.56870306259016
B 10.476927071586713 9.57537910514714 8.88047304124722
B 11.688578891726738 10.515241307639286 8.267926546176838
B 10.824635774231096 7.920027435705246 9.136275273330952
B 13.031998089989308 11.3819831865764 7.894134400510215
B 11.956654622008049 8.805072905852972 8.333163903161303
B 13.11591725490221 9.81924589661898 7.876342707525189
