29
Energy = -164.04399918 eV
B 11.516639568334396 11.253530926132886 7.955713217916171
B 8.621253000787823 12.447251005900773 6.875338723452233
B 10.096515169782823 11.879647802768266 7.28702188904802
B 12.832244426953512 10.29729929308206 8.459960075406105
B 7.305454338748271 11.587994865248298 6.748464888743285
B 12.952214285176165 11.792574043589461 8.699530685315793
B 10.137992247664835 10.257869479984548 7.772104118241279
B 11.630796870580479 9.375824975848557 7.9044007672406
B 8.730788472836412 9.428671497179714 8.017865371744543
B 8.766791047721362 10.826680993711726 7.013770518162775
B 7.848904015284937 9.619384666389518 9.432606782295906
B 7.119733848131549 10.047860531175683 7.176597457385543
B 7.2028494845057205 8.592835746020704 8.026889585423122
B 7.981835157611109 8.657149246984837 10.917349132483102
B 10.20085029127694 8.506385539123539 7.877771560673388
B 7.353599791098448 10.42615071678265 10.711019380636166
B 8.679823414112859 7.684469154554711 7.834463111729308
B 10.387703027783358 5.391580273342669 9.106713626027046
B 11.635061169276891 7.724641943218315 8.1341286918222
B 7.160647579100214 10.054511558506098 12.20953763764532
B 9.00557804624472 5.995293564489954 9.537975692269503
B 6.890431618958323 8.134508455134915 9.625063362538555
B 6.269943262604549 8.816422672174236 11.528273106739933
B 6.436123895386866 7.340031718026947 10.99230725436896
B 10.03163951803993 6.879438811142992 8.37352526861457
B 11.591134217441713 6.199501906243876 8.587473311580265
B 7.760081688642276 8.696757080288604 12.7516158989461
B 7.9801994201996695 7.314533555685081 12.040137884596648
B 7.901931658172779 6.678901394866575 10.52778965565292
