29
Energy = -163.77946152 eV
B 13.056191712987841 13.021651856097778 7.339779429083157
B 13.09789009375157 11.467161795137617 7.4157486382802045
B 11.502661178300036 12.385939327926058 7.253302384283669
B 12.028540647733113 10.29449672646222 7.659480938976924
B 12.384057034849153 12.967534198919862 8.735152739881615
B 10.348018102105769 6.452565870872512 9.30122758118502
B 8.543141737648549 6.753970366530299 9.200892967578575
B 9.660356586655693 5.243800298258604 8.612351507408594
B 11.440344861450999 11.703112171010115 8.951130181240856
B 10.740168213004647 10.233804753752844 8.955213084921311
B 9.458873691204934 9.544968611369761 9.849833901894442
B 10.315478549228633 11.313627353694427 7.430199119132436
B 9.984386676251779 8.097380978312417 7.206770032287009
B 9.858151386255857 7.875709422779381 9.707144429666776
B 10.695170501516039 9.51402844231444 7.266128246668926
B 9.21110647696079 10.231993712248899 7.986642915089492
B 8.25763251279134 5.24511307793669 7.970090052484977
B 8.127830673908544 8.375121929445609 9.895166574990355
B 7.355361555892305 6.496868002840765 7.777205135807899
B 7.816832526614026 9.582112650432 8.604564875333624
B 9.23475862190222 6.751196489763531 7.5703101692151265
B 7.730757486496868 7.989273976531797 8.062041047757255
B 8.404494328343537 9.95030473645725 11.082377275400578
B 6.701141379349473 9.900073896252994 9.795510236073207
B 7.209613404800961 10.305347078773 12.018223204695904
B 7.063861292609085 8.59933185140913 11.212852473854326
B 5.692541157546724 9.892520832368948 10.992161500709562
B 5.692417374849096 10.152492724100957 12.578138028140636
B 6.108311470996507 8.65649085958668 12.473737336566797
