29
Energy = -166.76863286 eV
B 12.706744858783981 11.968265072688641 11.332202709948502
B 12.933054470221549 11.809284869265106 9.370396286538686
B 11.24276238732071 12.274106707358312 8.898544324227924
B 11.24761157700327 12.634544914881655 11.67838601758076
B 8.618185807066585 11.551913816263967 11.851742680305028
B 8.458769556539082 11.161451265403239 9.09626554942686
B 9.149820905184324 10.465276102642697 12.933095945177165
B 11.867503084691805 8.750679091140054 9.462606527148225
B 13.709786347585078 10.598020482073327 11.786045154041046
B 7.8540983617301725 9.695826383824901 9.898814971008633
B 10.788763754300765 10.178958464110798 12.9772848379776
B 8.207175978806127 9.78432718444692 11.581624883965882
B 8.94635783981131 9.491820610498474 8.768631974940309
B 12.335531195900353 8.699101966849131 10.98920705066517
B 10.603122141719679 9.287454694321465 8.64089056709476
B 8.803873463694307 12.239773740341853 10.306983129336153
B 9.581863817796455 13.034557176455325 11.64387114088722
B 14.036211117908497 11.404554742106454 10.440968878222511
B 12.603663815193126 10.309482962672575 10.361630459614062
B 11.69310891056556 10.636462662850416 8.800018238621552
B 10.06897827216367 11.007512844157684 8.416514556328266
B 10.190547715133997 11.742440255780908 12.699084987522788
B 10.781956821707054 9.560650531043796 10.646148644728918
B 11.016922184875028 11.328810712224714 10.436311841862853
B 9.327438059937347 10.460979190232308 10.434255280946621
B 12.493722898447317 9.788647002214981 12.442671714317013
B 9.627375149240695 9.00924701032564 12.251787398482216
B 10.439332378813976 12.973312549541912 10.194503086434931
B 11.174294691002789 8.661114270856423 12.16808786607543
