30
Energy = 720.54362141 eV
B 13.685273371915406 12.862593924341903 11.257554670700133
B 13.185408745551655 14.249707511322727 11.77010350676327
B 14.237952530893995 11.470542167472638 10.617654460287135
B 14.843475395944367 10.303503426697437 9.786057357537276
B 14.109863435383106 9.141584893099886 9.000922655347432
B 11.724843173892555 14.726055101796446 12.139610355509124
B 13.243233368478945 8.05753320403718 8.249632854172173
B 12.080449136903267 12.996384642540935 11.801377568263069
B 12.530155876041254 11.593299228377482 10.896571872343698
B 13.150316498249754 10.307412278393286 10.02384176197104
B 12.44776412135066 8.818433463918208 9.538614476374146
B 10.205475013907888 15.010926310291296 12.427625051236758
B 10.341554153028383 13.352766948098635 12.075646228856506
B 10.994861511222814 11.799113565037269 11.766842848339437
B 11.796129478300463 7.579364149545862 8.578333655885913
B 10.902245857800436 8.328350756076347 9.867632015641428
B 10.274272795773072 10.407145617531906 11.69362901167749
B 10.201512662478356 7.165997041289596 8.718819211953772
B 8.867971818870656 14.308548345944821 12.29781022118569
B 9.779084694145192 9.055175332006678 10.989503146946703
B 9.306255453660887 11.827737311819197 11.735088784795433
B 9.282019333328327 7.93862065429562 9.888571044405099
B 8.656881615924705 10.314517169588035 11.337145662144529
B 8.643042254185739 6.993718655253735 8.639834940619966
B 7.9755757652909915 13.065179912838637 11.894429093991741
B 8.112374445254884 8.9153633390079 10.601633044255317
B 7.587525562815417 11.649949121572993 11.41276886685343
B 7.481151753851777 7.8224940994736345 9.358759063454439
B 7.004802254780183 10.203254794263264 10.85276553040925
B 6.562541178746236 8.948740292038874 9.995234296050274
