30
Energy = -177.33581857 eV
B 14.83073026179752 13.96528981009107 11.202795799071165
B 16.253340616198017 13.303330570441574 11.256307122954071
B 13.426289279663777 14.746392736698793 11.037568796184287
B 16.60401248805968 11.814992864165845 11.399326002881402
B 13.42438098035224 12.91161166737207 11.315718390757006
B 14.9443318160141 12.205980618524842 11.404907051243962
B 12.002339614527022 13.816315739638794 11.053249674545087
B 12.04159996444606 15.459521175364388 10.802903430511437
B 15.719270883731369 10.564023032068565 11.578891324972226
B 11.955834919469908 12.087349466528957 11.309418538391247
B 13.392108312836429 11.190349367183014 11.533016688852465
B 14.429841857641788 9.68129157626899 11.75591086479208
B 12.925060945318755 9.500562706054263 11.820095057576125
B 10.554388581496692 13.053323469628193 11.034547595351091
B 10.615051344735738 14.79836160741721 10.747365222310407
B 10.41295872461056 11.411103799744119 11.281397764181019
B 11.51844630620164 8.640029071621255 11.885075550968047
B 9.129929790212945 14.074053860939237 10.64793338358549
B 9.035074457681752 12.389525863967977 10.91733403881799
B 10.948723134897113 7.078822577296429 12.083916886534816
B 9.459448386821615 6.630913401750763 11.910771311202295
B 8.841472588586875 10.769964920192521 11.117290787300012
B 10.17159071983622 9.813484338099558 11.514268618096096
B 7.723361616229257 13.319676393984189 10.547452491379593
B 9.876153005497413 8.219560312460377 11.729506629101998
B 7.429116486961259 11.780919928696932 10.730405518995449
B 8.55193045831584 9.189216448107102 11.341140907515818
B 8.11835080745102 7.463241988435732 11.526053963807506
B 7.1986013087663485 10.130503757487435 10.937613164218078
B 7.033089720206666 8.557116308334455 11.144646802467031
