31
Energy = -183.09666039 Dir = /p/work1/plile1/GA_structures/B/31/all_candidates/288/
B 6.110183319806897 6.114288517722309 7.735226386045163
B 6.6711500080843695 5.964091410016914 6.10559253841744
B 7.327204503837055 5.024491761014953 7.2707144481338295
B 5.752923771126388 7.300519180563224 6.447436068904966
B 7.484137015992203 7.317005201895652 5.586091911998321
B 5.485264491399003 7.637671673048931 8.163544619905357
B 8.391749780410395 6.027050564335998 6.352369885416174
B 6.6181189929511905 8.773414404422432 6.023244298931608
B 5.154496632483085 8.738961299384725 6.871575581342215
B 7.464992894804456 5.861571883609723 10.22974641203767
B 9.146916564845782 7.586757827718928 5.9479310853853935
B 8.131552365740298 8.796879363399603 5.360719262245843
B 9.971165669035122 6.398876057793182 6.74954135878493
B 6.137943436318307 10.033178526624338 7.1678072998863875
B 6.322699735987552 6.765784788637937 9.336065097137876
B 7.719219217046038 10.051726491082475 6.323678687110582
B 7.382617964749538 10.93836374546166 7.682724356670465
B 7.1566427071901675 5.156517750807396 8.831553420018412
B 6.376526426562301 8.484243660385397 9.422572134896985
B 10.57276330173356 6.649641586956057 8.209764013687264
B 10.359805476491267 7.981877620885181 7.09110909041215
B 8.97787248510358 10.475258452322125 7.616239898094954
B 6.671759642132733 10.020124929167745 8.932627154030357
B 8.887571817549421 6.550823809777904 10.52233227573443
B 10.292408595066206 6.899466790724812 9.78810786486354
B 7.54056849759516 7.583855200853555 10.243670323071095
B 10.271637819384718 9.512798022620716 7.669796429103752
B 10.397909609528101 8.311562216918835 8.868565822930373
B 8.157975958386897 10.671180550924511 9.113587709066598
B 9.153406647900873 8.143685719597311 10.00757778535616
B 9.407592143264633 9.62988302415214 9.145140120672728
