32
Energy = -188.49678233 Dir = /p/work1/plile1/GA_structures/B/32/all_candidates/168/
B 11.072828200697787 7.197905546589819 10.180293557092316
B 8.281854986142866 10.744122267040645 5.916883406177015
B 11.210461263141706 8.679187238179786 9.576492738373181
B 11.18651267247168 10.135699861943413 9.011935508501386
B 7.761113347926018 9.582992882303538 4.9080163744463015
B 9.87042111613067 6.1997224344156 10.278396031858641
B 8.930618387275926 11.282733678514079 7.299786196031172
B 8.770816419448591 5.972464547401899 7.063994600713912
B 10.230093192759579 11.02049428608381 8.193611144569461
B 8.456920869446447 5.512622388695779 9.955693240710453
B 7.8231880780145815 7.9403346126218395 4.907990545289459
B 9.624369389724508 7.749174166988101 9.498213497560371
B 7.7804129102247 5.45785035300332 8.364203623827642
B 9.663945924525445 9.462088463831265 8.895171446833718
B 8.198981075643635 6.5886275543692365 5.697750047674643
B 9.316678003200975 6.202774369321157 8.594637652292827
B 8.298102949499954 8.53687959337732 8.983437537862288
B 7.0845518377815635 6.024279965996765 6.851481610979617
B 7.27948370662793 11.17366307075041 7.313877358495247
B 6.838080301209461 5.431776887088489 9.722841163067496
B 7.998189144841044 9.928003762395543 8.251020059403173
B 6.689807441541274 10.037491715325922 6.159691707137974
B 6.488106343379626 7.115346799044777 5.701391371339959
B 6.422270130650079 8.715042043077114 5.330270977795147
B 6.074478280654576 5.870073307047008 8.285521146973373
B 6.734425280296428 8.849103770124314 8.97803421755559
B 6.072893079103364 10.20593727047426 7.819704972677817
B 5.502996398428064 6.60699018676148 6.9252979470554425
B 5.826057488730066 6.714103511319778 9.822638214133155
B 5.109057352857535 9.224607826906071 8.650376985921923
B 5.24750336116047 7.461295728075813 8.292561425660448
B 5.305793191841597 8.211402502482935 9.830770200335229
