33
Energy = -190.27291189 Dir = /p/work1/plile1/GA_structures/B/33/all_candidates/83/
B 13.50458048209091 6.008318686819281 13.877822644372838
B 13.16245798258328 7.429520438205678 13.433809110952993
B 12.466994193042733 6.0574144035136 12.678537855736314
B 12.117766122251105 7.72058132645822 12.27234394873523
B 11.408256092976139 6.4096564363154975 11.49418889751143
B 11.021744334728133 7.927412628866161 11.057606526362255
B 10.239803223281788 6.53178381756469 10.426694697751442
B 9.214995595573841 5.9501759484529435 9.326166707187095
B 10.113052018992203 8.873444145568765 9.995477307827363
B 8.61295114219619 5.895250436314645 7.905240888418801
B 9.008368417949548 7.697170367459481 9.44418283907297
B 10.87090929708553 9.997168341981137 8.87017298598636
B 7.627364682347906 6.7154408755084125 9.069784989502612
B 7.6967381167582944 6.942434943877732 7.102527192671042
B 9.763933631712433 9.046736443920809 8.17973639800381
B 11.284032217336016 11.503537933984745 9.249591446103704
B 7.243892017882117 8.053376057832201 9.87049880728414
B 8.455692638911826 8.743222066766936 7.183045112620186
B 7.021103121244972 8.210393796606322 6.502141796841404
B 9.255887603241158 10.469865474489792 9.64380583071339
B 8.324677290433264 9.20530486324189 10.180169988637099
B 9.684640153544413 12.183334715228117 9.451117101555075
B 11.133550899980818 13.022699499115026 9.543370401136876
B 6.851447488125152 8.110229317350495 8.220947147619885
B 8.133839596110683 10.05498179592174 8.375805275217049
B 10.010009640016447 14.133808827844264 9.353596491157916
B 8.202352729093697 11.712155943942324 8.694947995168723
B 8.54664796337635 13.325728854912734 8.778830290747868
B 6.835519486807816 9.601583392017538 7.324226834293696
B 6.960934986757919 11.189891538753066 7.729766064203195
B 8.729681430904083 14.94713653876019 8.84086403074023
B 7.121631640210191 12.797615422944094 7.933916595278266
B 7.457653330099259 14.3779150436962 8.151489109157222
