33
Energy = -188.90702005 Dir = /p/work1/plile1/GA_structures/B/33/all_candidates/87/
B 12.733418335659337 7.762290993439745 6.948878941860874
B 11.969175528940202 6.760839139251431 7.808419659652398
B 14.451275262699768 11.984029767043246 7.762651942453437
B 13.070695873879187 9.321654909153619 6.903166486160316
B 13.953702420866822 10.62478558855222 7.156495186779506
B 13.93479583369825 12.757651767842681 9.029964070411907
B 11.914319252773657 8.32502889990305 8.447290343000134
B 13.099553219790055 11.428245308947098 8.464028970434535
B 11.054123583981205 6.869652102923081 9.023595358676541
B 11.905766466121053 10.135064209314681 7.960986352883776
B 12.799983667336106 12.24559204940822 10.027646591177216
B 11.582563492021862 11.370900067996908 9.111061445095634
B 10.144488559918582 6.78758953855586 10.367751500950895
B 11.074779638743648 8.201241302085043 10.14649297945082
B 11.95369487402587 11.107481251503721 10.726296454459371
B 11.066245440844579 9.88157526425091 9.905371128973552
B 10.427502002194315 7.546145355827811 11.697019141023173
B 10.310951062205657 10.627440827465396 8.28942280235129
B 9.0298339887254 8.045917383532446 10.809434755316962
B 9.494736469199092 8.481349309103368 12.626491012931705
B 8.932684759181422 11.387650080475826 8.5594766183585
B 9.296426811299103 9.866372059349075 9.370163225957286
B 7.973655946952119 9.026792850076538 10.117907146026488
B 8.152518482759772 9.24349238653284 11.798908020760628
B 8.520349642483096 9.416511069333206 13.401878774612069
B 7.524397203594893 12.062034343524195 8.92443885354867
B 7.6571330925867125 10.4724869038388 9.381253038371645
B 7.159148087306817 9.990907231382458 13.0056681488406
B 6.769373533215569 10.002976121042568 10.82712169784539
B 6.4047013171041085 11.5651424654929 9.848885174784751
B 5.675845297396569 10.201855723961774 12.399900381193115
B 5.218379883884332 10.932099326014473 10.73003622770853
B 4.407222527006622 9.989137222515085 11.589287356785489
