33
Energy = -189.84657219 Dir = /p/work1/plile1/GA_structures/B/33/all_candidates/85/
B 13.168907700358544 9.331573294922677 14.728435879456699
B 6.530674853381374 10.235688381916468 5.831815729252052
B 11.923488318420615 9.412360742530192 10.640202544894736
B 9.495382000874494 10.510771649281269 8.81874829194642
B 9.46557935801612 12.652358795529926 10.707081139517467
B 5.642633148230225 11.88693537459436 8.857777621436137
B 12.834570863677433 9.910550972433454 11.984396171814975
B 4.349586067909222 11.33368793839357 8.243996042837349
B 10.165265309122468 11.448284928587563 9.999745409449716
B 12.625549745369609 8.326797494131323 11.57509860642789
B 10.644846375102311 6.0114670071155425 6.756755937705754
B 7.5985504350263735 10.772635209468332 6.836899443315422
B 7.232120092769002 11.652214080939668 8.228671024827092
B 6.895245659486817 12.492155970850792 9.640741927193666
B 9.74102720465086 8.651011096138275 6.637957241411235
B 8.520213496087381 11.85284796234618 9.505632295923402
B 8.981026001380691 9.928730888962646 7.30853285685796
B 4.086921946595268 10.343960851549493 7.093086670964121
B 11.479076851053614 7.58358837767005 10.764698638358743
B 5.857466484177863 10.738909170435594 7.431651010809879
B 11.835728058140687 7.039938859894618 12.315558722730819
B 12.640205687919407 7.882452605863944 14.898929407460793
B 13.285697260770192 10.200239442459337 13.438988759247772
B 5.0531897982274945 9.84542188523807 6.013361614691144
B 10.987948866325882 6.839186462958758 9.4089768826276
B 10.126631884308024 7.270032756349541 6.032292838384812
B 8.01465388864346 13.11792248322712 10.569137000845124
B 10.93393506515564 10.04453063517072 9.490170372111448
B 12.099635118447942 6.89380334061425 13.839308018417245
B 10.456166115701622 7.439048192008485 7.76447291628408
B 10.968872284050898 5.812238472591389 8.25570116712093
B 10.209289689172461 9.141080394466547 8.222706324440335
B 12.666149275219691 8.518861767101402 13.268681808153744
