34
Energy = -198.59188446 eV
B 11.37577169445663 8.792080807699476 4.970583895907487
B 10.34362331762719 9.696439115539855 5.870060838027478
B 8.914712955925667 10.120955936761673 6.535682331179431
B 8.325370389994935 8.483054152953233 6.444599775090651
B 7.32209530325689 9.834910369131729 6.906594160602957
B 10.408941110032346 7.67581575117421 5.431761689922991
B 9.270118832527302 7.035274570944605 6.340553265039606
B 11.546292715794777 8.696264635511797 6.545239713348032
B 10.66870289903533 9.45443522409652 7.675461440450522
B 8.350760074745615 10.82741757887907 8.054828669915924
B 7.1939504527691325 8.309610384429732 7.748109599806072
B 10.55267745121382 7.597431556275998 7.669377826174148
B 7.92410515822849 6.838334363846608 7.115582855052132
B 5.909642831206913 9.530727488337357 7.677167419206799
B 5.658299087549333 7.964843763997174 8.469682138279904
B 9.913886526968293 10.345792623481094 8.797612794700443
B 8.719078580786682 11.02126290370627 9.724408775206856
B 6.882341293655035 6.800080789993781 8.479673809450423
B 5.869040320104544 10.493325105809252 9.277417195117295
B 10.71944198075903 6.941647291045913 9.20061587053643
B 4.883750177510741 9.28800535861396 8.944778292824463
B 7.231551680359474 11.321424222083895 9.302086361071336
B 9.7657361995195 8.529172623306438 8.9190964490853
B 8.033965472980757 8.215673861868106 9.289832472746605
B 7.728963115895428 6.650991348031493 9.959948004227689
B 9.29847410064834 6.382757075492835 10.334916917152926
B 5.916018311837189 8.908026804169195 10.167786373263892
B 10.931018753057439 6.5995506123591 10.737717151721442
B 10.231824969132756 8.156082080539244 10.660725773697013
B 7.560278001027729 9.70593711752716 10.226823932659642
B 9.343486054407485 9.488079700956298 10.209141323722012
B 7.109926330564555 8.16357621111873 10.941947138831674
B 8.321309992497827 7.246339285813404 11.597890240687015
B 9.869455374271629 6.97929079485391 11.866907015642685
