34
Energy = -192.46772351 eV
B 11.869125722976548 10.723821824747183 14.770145918797274
B 13.871260253982804 8.459630734574295 13.750874204900283
B 13.628165720118862 7.609669682303521 12.229096669998533
B 14.094388714399487 16.159793570811125 8.60221270853399
B 8.765944038013483 10.942854391611212 13.510125678946233
B 12.617346382780424 15.693377629118551 8.135528156951773
B 11.426427544319816 9.942738652167623 13.260469523330421
B 12.239107266363543 13.070906093487736 16.236186173560093
B 11.660612839416176 10.147192826136603 8.615922928507079
B 12.23110876776476 9.288672137596098 9.854081033294372
B 10.02767840647908 13.99352023404891 7.374887664470919
B 9.547995856588555 13.20227563440077 15.393311946547868
B 10.052987089240537 16.787400884105466 7.6146115150330385
B 8.834950507150094 12.177787581183008 14.44597320238907
B 11.06693391457149 15.414855378540892 7.702619706444293
B 10.821715925506705 13.670955268244459 16.104826501726325
B 9.835069479151322 9.979875910410133 12.95324331618627
B 10.970269061275374 11.677428651800192 8.968594068523705
B 12.893275209707799 8.515680373407921 11.08789557765652
B 9.420847351298002 15.41864155402928 7.321451547910889
B 12.833300259857308 9.131866226836681 12.645732093301739
B 12.00479883302804 9.91229732404577 11.473976899709813
B 13.091591587049885 17.29253647191654 8.46258571476188
B 12.828716547807078 11.659416712280851 15.850111951471726
B 11.053626304840723 12.13868614572523 15.378674294901765
B 10.303052139443967 11.032248001100928 14.19503621818677
B 14.287711407194243 6.843575727109943 13.447961629651639
B 11.201303633564482 11.077933551832684 7.422832719575591
B 13.904105395427855 8.73202170263784 15.48018412879321
B 14.41024992294421 7.370160285890343 14.910522241297551
B 11.562243997706206 17.096850865506767 8.02689823273698
B 10.58585804466569 12.509635631256428 7.537770102355413
B 11.495399671719165 10.82270308207712 10.195091929074596
B 13.179200703242213 10.119357758653146 15.6569323000683
