34
Energy = -195.89706836 eV
B 12.476440069890744 8.151691421499143 10.312048902163397
B 13.621008802263884 10.721852640820616 10.167233478834463
B 8.476114359571431 9.86241881581827 12.1216170429607
B 9.0582933491141 11.059573284759285 13.146758515543265
B 9.797925388321474 12.11598518173487 9.299525802560906
B 12.217090599730858 13.046560011346443 10.650426088062481
B 9.31079518194692 7.995453382192094 10.102524913243496
B 8.313139809879798 9.060844931371044 9.300487104855593
B 9.309183090645433 13.102568840320885 10.699017845066086
B 13.39982605534387 10.652240538903126 11.850497080782498
B 11.678613906508499 9.15293686876819 8.772869477638844
B 10.719509163944062 9.774412586761928 11.616350741394523
B 12.327582105846432 10.762406934526169 8.97005022006802
B 7.7845100147777515 10.37433626539341 10.423856099287457
B 8.254772789585198 11.952852563811733 10.06071120571181
B 11.486017790103983 12.212166830902383 9.150355632505526
B 9.549394110618927 8.450238971896663 11.77290723369587
B 10.022785370874981 8.897029004063617 8.849831995477901
B 12.429417171705648 11.988952903095266 12.388189484179447
B 10.87036333326793 7.91275754876657 10.73474902158266
B 13.508997295204335 12.158293278513591 11.083057772336247
B 9.018220034773197 10.582419300693344 9.161700790260884
B 9.632137061145126 12.570919022965809 12.292732269571054
B 10.849035897449507 11.170135622263325 12.597162188200121
B 10.714612730452469 10.597824015398288 9.938159219063634
B 10.763121339184927 12.05603177253637 10.96287367933111
B 9.285516494948002 9.639983636390264 10.63259167856139
B 12.104013792050184 9.805430906986594 10.570310349562257
B 13.28170629637102 9.313024726387406 9.2922170086785
B 13.632120447062064 9.188911058355185 11.058395896009408
B 10.828504051034917 13.609821920698495 9.945732670920467
B 10.802288365172497 13.745059458234769 11.648738437151998
B 9.97222095472233 12.071565122222937 13.901887664691182
B 11.187575296486768 12.926153724746563 13.20728501004622
