34
Energy = -194.8224539 Dir = /p/work1/plile1/GA_structures/B/34/all_candidates/45/
B 14.452984460890418 10.10449231528895 10.337074577478848
B 14.064378082433775 9.133495356930698 9.23010421993935
B 12.902128792126295 9.908801919047253 10.227329132600715
B 12.575055385483841 8.591968464700702 9.128509427148218
B 8.670354053686863 12.772365534577172 9.586166940609008
B 9.751510599115532 11.956142155916881 10.40208657170723
B 9.487887693378902 9.439951776428249 12.02704326505883
B 9.335858484307545 11.033355963636637 11.683152966557019
B 10.259790359814888 8.402762232624644 10.731910007736184
B 8.130244306182565 11.984737859422841 11.003703617901015
B 7.146409804293933 12.447201298308613 9.647866201521705
B 9.769307667205 10.244174058097604 10.024994204104255
B 11.336116375161776 9.448023085991128 9.929198713925183
B 9.229965129301881 7.771150303941942 11.752017456189574
B 11.05676822751322 7.956082801031044 9.175418492757169
B 7.6895078297607 9.658746810297126 13.060416948764491
B 6.4323670327941445 11.335277829064253 10.598093591485664
B 8.367594933567352 8.262122047238078 12.955971597173907
B 7.657367979552354 8.799013251281751 11.504200697009816
B 7.350857664618886 10.718278421429126 11.897548854031514
B 6.960745995155309 9.729982996126505 10.383274857151639
B 8.394196912906438 9.71853171058761 9.175548370452605
B 9.980586546085226 7.383236975502877 8.064895186877434
B 6.977308993791231 10.740129438911257 9.06473695376052
B 8.500176273256255 8.527941238666966 8.035226640043243
B 9.87747918229891 6.166555508425494 6.943050380637973
B 7.203341727048707 9.640743971700418 7.871244943756355
B 8.702062700313439 7.350980875092749 6.995376895735549
B 7.253321914564546 8.417163342108546 6.825611638382444
B 8.642256551232554 6.297681061764372 5.738562682072506
B 9.691662499693516 5.000839827364784 5.853316510713248
B 7.184087782066641 7.314650463232223 5.641516193145352
B 8.504395983831794 4.959966216781032 4.78518347000666
B 7.34028426971131 6.026585896698427 4.732591125474132
