34
Energy = -194.78770191 eV
B 15.929447565482823 11.831472298868997 11.513840983023616
B 15.483130381001112 10.731850236843075 10.552980182444582
B 14.362803206258967 11.564649927125824 11.537934182738002
B 13.988751461783718 10.199027586820847 10.536363821366384
B 10.2857920757032 14.473439711038017 11.084496856430192
B 11.28634868879974 13.648978214932832 11.968535294560573
B 11.005103288798418 11.019472632951018 13.472891539557514
B 10.798417983534812 12.614743665291789 13.142369242620784
B 11.761648202171902 9.971846613707516 12.212938464922688
B 9.630175479376094 13.637175480918197 12.433404485359679
B 8.805613416325649 13.99555888285858 10.963281867578848
B 11.28398662652217 11.976238155981509 11.412701814471625
B 12.783786570660478 11.083694990749038 11.3920079047203
B 10.705915615815492 9.366526601039121 13.212726829321744
B 12.488233967433018 9.551714301399109 10.64434323385192
B 9.162849939342768 11.275533316033862 14.49266680550351
B 8.058995910963846 12.90978732919591 11.991448533525157
B 9.84689157661198 9.88609159359106 14.416903295796038
B 9.176031626381413 10.393012079601919 12.945257178691286
B 8.861256608248228 12.340647604185584 13.319318202429955
B 8.605331094029276 11.312998321946168 11.737091447070993
B 9.98751762582838 11.429760940224371 10.45203714444528
B 11.44444759538753 9.02734729182934 9.465133227790433
B 8.466208502254785 12.378264172903872 10.440412816033012
B 10.058841827192706 10.210744808908775 9.358440521915364
B 11.406336270993627 7.818722494222119 8.332619564218406
B 8.80462236252168 11.304237740669581 9.216844422016042
B 10.20401738159827 8.985496108796706 8.348616308835652
B 8.793579811246026 10.07369026692696 8.167160562095301
B 10.161741214994805 7.880375728135412 7.153792661882287
B 11.249679835904196 6.624003056630031 7.258888195309114
B 8.740943044782941 8.908193950400374 7.053122435430782
B 10.061303635823915 6.543972225532326 6.201797591184961
B 8.883288602162319 7.603770665676167 6.1406713787944325
