36
Energy = -208.99695152 Dir = /p/work1/plile1/GA_structures/B/36/all_candidates/41/
B 13.559810891309276 11.835561300327582 7.069746412682345
B 13.366404216347796 10.985334304483729 5.7722379473746726
B 12.412925781599629 9.78999547289714 5.512680830555848
B 12.716830819088246 11.668246348652552 8.426073653020355
B 12.302258895363833 10.701378488970143 7.042407203430175
B 11.506609577051242 8.486353139728653 5.254805052328269
B 10.895625828973305 7.086365095459086 4.969657136814871
B 11.879550803506303 11.490809625813869 9.791452726297145
B 11.302781187587438 10.70782846967939 8.371090242953601
B 11.152304910421106 11.222993034953076 11.178916951369997
B 9.554512035386962 6.451178804862401 5.53591329903997
B 9.998647029211172 8.046118956686023 6.014771079627111
B 10.308923782498548 10.721824364639252 9.770108611848938
B 9.931422099175983 10.388445054962515 11.62667750129455
B 8.576903717540018 7.3562379761808145 6.579044385758279
B 8.38810188028913 5.591606973866727 6.326622774928208
B 9.706790674233611 10.137563760743442 8.279936513859964
B 9.166757996064153 9.054623192275951 12.148988372080096
B 7.574147695691164 4.857970154351456 7.421440910734143
B 9.207883831189159 8.80436457701219 7.305159575423525
B 8.615139742642569 7.602469762697893 12.45144056699185
B 8.570499009629216 10.71246481246572 9.389232082808332
B 7.795601624961538 11.622174731216987 10.491185248863374
B 8.142068837482332 9.667003040932345 8.218143386889453
B 7.630958502106416 8.187636086459957 7.716070039532155
B 8.068000047096918 10.322344502699234 11.707958341391574
B 6.915573576181729 12.863014347994651 10.996814414277804
B 7.3419037416610236 6.536980455163877 7.399223020860703
B 7.628619907059701 8.628533091079571 11.516651335261045
B 6.983044995311063 5.465677589886753 8.764056953285161
B 7.099599443107646 11.57331245649316 12.058817406548892
B 7.508933165537932 6.9100912343969805 11.59081460655684
B 6.172896279158482 12.884440074305576 12.328131127797446
B 6.878095408047087 6.197845851308066 10.205153594055197
B 6.862343663753089 7.2053987292568085 8.869460734434986
B 6.841384553736153 7.840247891163452 10.361142224433218
