37
Energy = -211.69079609 eV
B 15.338335213078508 15.387379387865074 12.27472939173578
B 15.076000629541273 13.915979232928835 9.873914064858761
B 9.926108520287826 13.318257258791913 8.160776417735114
B 12.543347315575454 6.584469286364889 15.02109736938309
B 12.55740044404126 14.240861867931617 8.519513414888475
B 14.523435344441605 15.116618486792566 10.929829687223767
B 9.478210320994679 14.924669662604767 8.656534763816111
B 11.819166967801758 5.881559291770706 13.780282985262007
B 7.48666849768858 11.7026015064757 12.671867535356098
B 17.13955847929897 15.857855521949102 14.847236018393268
B 7.8277786823668665 12.596300840905139 10.022247534383993
B 11.901910863848602 9.863054293883975 15.20751956534324
B 13.292521749211781 7.651378426284362 15.94685804188617
B 16.147387825488607 15.721119079817301 13.647499107733179
B 8.50305697133184 13.756546605614979 8.9976144963102
B 11.503261023307262 13.175296727215521 7.658571466850969
B 10.76110394607961 9.107230667398676 14.324116070343324
B 9.430286585304701 9.404251555773126 13.414138920692315
B 10.90434601477389 6.5559097917251155 12.728041195439717
B 15.926604889046388 14.241526401486365 11.183512351957361
B 12.958086257846169 9.164340571506719 16.1349640237234
B 14.102628774917193 13.484830102816366 8.627039618835079
B 16.794650034532562 14.486095483603469 12.552255363913257
B 10.277026754595397 8.060323600025844 12.77328792582464
B 17.6115188364289 14.786760078815506 13.869766337690653
B 8.440504129454887 10.91437734796043 9.571513551350261
B 10.958488182143496 14.68188538751107 8.234496917036399
B 11.757433226182998 8.19999257364523 15.436706346984398
B 8.826091269265964 12.166269005881974 8.695292448600888
B 7.883580042337096 11.285417332908075 11.154728168781526
B 13.029755004623903 12.806549614448317 7.698315960087051
B 7.205189046680032 12.716749040029255 11.553242879631318
B 13.630736684585269 14.756572391606063 9.641177725496037
B 8.650497124201125 9.783484939380118 10.677355482872924
B 8.37990901548216 10.336590602537367 12.523511003537623
B 11.246474494792611 7.4127773349018025 14.065641740481462
B 9.142591888341396 8.935769748763125 11.906455155480607
