37
Energy = -214.29459724 eV
B 7.89073780654041 5.619153136757697 8.639626997649602
B 10.232705335940011 3.496827527767121 8.031578607141583
B 6.248180272116236 5.4284783261061 9.198374277187762
B 6.207765738714554 5.649881474517543 7.608404812369615
B 7.29779230981833 6.393924964671232 10.147900885437334
B 9.068881974406061 4.486899978211131 8.366121299834742
B 4.866533668696805 7.067821427659735 7.256200815796466
B 5.124444349230488 6.838403342027024 8.81443547950568
B 5.614323957172547 6.384255377308782 10.341324938040822
B 10.35575163879282 5.077883701164981 7.328807270555277
B 8.759287850659287 6.840812130915322 9.760650004745003
B 11.231797860961127 3.8680206767836864 6.949666974404445
B 5.632952836778486 8.489769666643221 8.105391603053308
B 6.043417662599209 7.90015989647191 10.213451904632057
B 6.276171386909973 6.335967794182322 6.212050444356345
B 7.7550451469373085 6.743600590418438 7.124747860594205
B 6.629514175594717 9.34907509256951 9.755266206841824
B 5.336917074388581 7.903515699509512 5.953676569994695
B 8.028631140521464 8.315059668452456 8.977634624929685
B 9.336843350065557 6.364830200138266 7.827772544545177
B 7.320379318470362 8.446364209346006 7.382014201553926
B 10.15498401382996 8.053490599474104 7.453138319844509
B 8.879884749357672 8.033309883952219 4.627857013859163
B 5.711879922063661 10.133915953668781 8.39949965056805
B 6.7762362951719775 10.954132981186847 9.334163975205653
B 6.153725455493123 9.606270491725569 6.831003407070617
B 7.564380707842442 8.869803015520827 4.441296707158142
B 9.665667679719855 9.548224921685172 6.842404563826695
B 8.133638860465586 10.047628511157912 9.04301865024797
B 6.123711023248266 9.08259121641525 5.178491504492625
B 9.826307981007623 7.722974319319013 9.021428998410363
B 10.011583964666459 8.336535917157004 5.778867576450276
B 8.892340078703548 9.523806039320275 5.452024427645842
B 7.101347533382947 10.980897686339254 7.7610809477259854
B 9.56607551391923 9.313909275072076 8.506059935426805
B 7.826381745645253 10.127444931257957 6.596139908799262
B 7.246298705589109 7.556878460546052 5.630945175518452
