37
Energy = -199.82564924 eV
B 8.58668014258697 12.919604374582645 12.133376420518964
B 15.962617822758958 15.936075728052435 13.804898603864757
B 10.868026110936146 12.592888219877501 16.181878242280266
B 13.932960728793264 9.486339792237008 11.333457784007479
B 9.932543247421203 14.71732630312566 9.515375658947628
B 13.311168533309377 8.632681088835946 9.967242067212988
B 14.275745952035622 7.8878847630420506 11.01847420976592
B 8.879479570019972 15.221297375358498 10.566234094008443
B 12.41257927358897 9.495526722143063 8.97225926864414
B 8.636940072069091 11.360994919132107 12.439540132505881
B 14.821136453202483 13.56298351750147 12.62695922650196
B 15.951925214589362 14.364730142552364 13.584630482198675
B 15.04107481563751 10.12305957553425 12.466304624443765
B 8.912175345073795 9.794878259047053 12.934076046959627
B 10.262384811025525 11.47576514992246 15.182822893123385
B 11.666519006101478 12.536827390227309 8.672755959038515
B 12.210207820204724 13.640033711042795 7.491434789445758
B 13.18501371900737 10.417484518152438 10.131860770938705
B 13.772881953211467 12.658344825651215 11.890320107869766
B 7.0804199214181125 8.714454385524114 8.874257604527028
B 7.766469211167321 8.93045029379097 10.42432254395159
B 15.031508799749218 8.565235733366872 12.197944182723692
B 16.07832887118331 12.838020831753626 13.4190776339261
B 15.15789888210381 11.81410651884636 12.529137892073903
B 7.591041598794387 7.410653734564256 9.562461259015125
B 8.31774161955298 14.423122299381582 11.770317510955172
B 8.148668374699191 10.116865370259054 11.502898075535855
B 11.058867899967414 14.096877253541503 8.448730140655465
B 8.48789171372334 8.520665581508997 11.983145687020716
B 12.164742537066655 11.018418337698623 8.903167158454785
B 9.491352039389998 10.905835279839133 13.88789438580261
B 11.021306967557935 11.133433459797 16.569056317663662
B 10.548348652125277 13.127330389267438 9.692059702178623
B 13.91888993471287 11.132060414786064 11.567023399776627
B 15.89701262557621 17.476583291221896 13.965500488888416
B 9.490043291596743 13.648498558714111 10.827287446590471
B 8.164581361959762 7.339836784036473 10.998992081900385
