37
Energy = -217.47832956 eV
B 7.6403987080903075 7.567865067452034 9.621398414156966
B 5.659080365446564 5.642771633817227 9.725745056335336
B 6.051769808397025 7.289377975488656 9.50222598824668
B 8.717411539409094 6.306595482167388 10.215175002219617
B 4.450771730523132 5.0026679379976216 8.788969972024763
B 8.254569378071508 8.74501098354576 8.483473231044428
B 4.741921540927375 6.670822630589261 8.745305090004411
B 4.215903964878511 4.099663643786853 7.524421055971499
B 8.040467490866408 8.326824966602581 6.808107797698426
B 8.443947057835247 5.640338774375233 8.745376836323523
B 9.307559883489311 7.313951596340477 9.08993185923518
B 5.301384781002516 8.37127446368538 8.063747507644226
B 7.2335104126091 5.793584753143858 10.187710187216485
B 6.843183753330956 9.446972242138187 7.91523214049358
B 4.586683799222069 5.743046293654722 7.247967630166008
B 6.855256504894234 7.6170295503610514 7.947097457752003
B 7.923423486242346 7.787375069617186 5.248062358883302
B 9.58256282839909 8.03937156427249 7.636166102102935
B 7.554180922023144 4.9955950313952435 5.738484369256494
B 4.781379019671134 4.357185084686158 6.115519512679644
B 8.317333954194291 5.322579768270836 7.161877862399199
B 9.233242785544853 5.6254176578870565 5.776009656536504
B 5.282972717613584 9.961858374622137 7.542991401049451
B 5.040780630255789 8.850342602960621 6.299637962438788
B 5.438422437599116 7.056020647570069 6.57707138369372
B 6.31089084181122 10.159841818249737 6.36046687206884
B 8.626096551289493 5.414318304666535 4.2759238633680745
B 5.897383156779726 4.601372336522443 4.976631889482248
B 7.011478413988284 5.180004264403496 4.080015124986661
B 5.381465163007275 8.026437883800197 4.983264084792878
B 6.419449285998556 6.634837139630079 5.093211397667793
B 7.803073616771335 6.851333739935362 3.697423545190279
B 9.591032271817642 7.420257071572159 6.100628717316672
B 9.325866318549537 6.8801608574029665 4.60241545301762
B 6.741082016538935 8.071007741333911 3.9477632312155095
B 6.88094792577164 9.214302141226927 5.219312486066721
B 7.1911113213931355 6.650579289082482 6.6332338835078986
