37
Energy = -220.18349339 eV
B 12.358985606132485 8.04721820134789 9.146029316177309
B 7.626551726091728 9.742659378547438 7.651474254825707
B 8.231467229624423 7.3348287226524835 8.933082014047818
B 10.962031263997357 9.635498251788594 7.097495116404907
B 7.562437815854309 11.141939548500401 8.619720013881127
B 10.821928110486137 11.995473583943525 8.706299619540317
B 6.995000807149505 9.645157099608275 10.891000759103814
B 12.16643952833788 10.82011921088453 11.040795562176836
B 9.211790217119878 9.747944395055875 6.938056799862427
B 11.680344452008589 9.364652631472774 11.704095194621212
B 6.770927709265949 11.114702176359494 10.08072151684351
B 8.385582170567393 11.139915288515944 7.199584622116988
B 12.487860333373375 9.43182747097828 10.109259719506646
B 8.486202645509579 8.238952266155827 7.51302997132375
B 8.11044507121058 9.55758288149835 12.21815739283825
B 7.11890851477029 8.213226502620062 9.970884533042044
B 7.859152887082847 11.099588720870024 11.394541666040306
B 9.480151341169607 6.532070585852392 9.651934284298509
B 11.666270974452507 10.98425307023412 7.71752950652246
B 12.131850044397334 9.550144743670812 8.396936537370019
B 11.091381963441188 11.911825735550366 10.423754352303341
B 9.76712005901707 12.626859192486311 9.779913129032382
B 7.409923727924357 8.202523857499271 11.592089960528133
B 6.991295762109054 8.306547163970308 8.291965007704833
B 10.686355908658905 10.905993740919847 11.788987590020048
B 9.158674369783629 10.716955164370336 12.348743892482235
B 6.696192778703376 9.722080431862565 9.177028438323351
B 10.983723220101778 7.121223138548969 9.309250661335264
B 12.025998021847899 10.930119002006062 9.340187935886124
B 11.680379084673516 8.01116569676001 10.66366813509548
B 9.059608495865612 11.991115072461282 8.451816885572914
B 10.018507174584581 8.318902045195829 6.887076060058183
B 8.452060537777113 7.303965226534543 10.675530399936084
B 8.240902006655457 11.98159669690508 10.012333406179998
B 11.267428354011425 8.104670759879852 7.892343173100717
B 10.18914638772246 7.178019085123669 11.000450144517258
B 10.894306601384404 8.056016162232032 12.111565330243119
