38
Energy = -202.56379662 eV
B 13.304319675971607 9.112849716774557 14.27594079083109
B 9.657697387907582 6.896846808959889 9.462645131288266
B 14.471901192736848 15.402486282602386 16.123649714331513
B 11.479668781299674 10.58712567653011 7.154751515247525
B 11.888433150128241 9.053386078548835 14.871161036017725
B 8.98888765135991 8.904314367156099 11.422281399147824
B 7.686700961411391 12.211166484792663 13.992347770220576
B 11.308722915736432 12.264377807926472 7.015828363000091
B 15.793171501828224 15.558146596747283 10.297260275271714
B 14.437643110878438 15.347800215259499 14.517137608464852
B 7.942038258475497 10.52821739892165 13.762115827542598
B 13.10177751632391 14.631895846438994 15.301675893248861
B 13.05764339834364 14.593023975870056 12.080765702934109
B 13.085400796692992 14.545683375141179 10.475725354248553
B 8.636647363529535 10.407597047915669 12.105340753310786
B 8.297223806010718 11.823531983776387 12.645991444413012
B 13.26627784072542 14.734917116107143 13.612492728542783
B 8.61152334930838 7.3467447820429985 12.493272599492627
B 15.871575293946334 15.648327505125621 11.836059658625695
B 10.115397922327787 8.252344642076377 8.440761782815152
B 9.164045772693827 7.287374119526158 10.99057459646365
B 8.33379823834531 8.987590354960398 13.020656625622706
B 11.166239681860528 13.825407801013526 7.050748335327081
B 10.86729490485633 9.129543519812325 7.0902562401323745
B 12.263339308168442 14.068921126363918 16.550264414822447
B 9.571133002484814 8.531006473539152 9.959448252593297
B 13.45495512173476 14.819917201755501 17.1377628807492
B 14.709724645613441 9.19686907753606 13.683054259062274
B 10.604427763021139 7.590472695074482 6.943606265209415
B 8.06107953619498 7.668634914995279 13.940139056869143
B 13.188582563535112 14.140331397929268 8.90309050652789
B 12.592011876849194 11.524450046488711 7.759918675569696
B 12.52093719038461 13.108919175977027 7.894946370095766
B 14.696075089813894 15.275372584790222 12.913434902366946
B 14.400881409865995 15.33018971253023 11.155006281475352
B 7.74567319977806 9.062823130530102 14.547813678353162
B 14.477159127020986 14.951019369152752 9.51157307803553
B 10.11536774308279 6.585751639557815 7.995878281975328
