38
Energy = -209.05216138 eV
B 10.682529041894897 12.151319617013842 15.694678329061816
B 10.853849319949502 11.227914405127324 12.839661622094203
B 10.54248222471966 12.823295512879858 17.138899433043157
B 10.440890306198304 16.57903725923218 10.044953818928473
B 10.986392079601785 11.112457808072548 8.264145754002321
B 9.731595129373309 15.826208347480607 12.463951975948417
B 10.809906801612831 8.830464913454355 9.763805641198005
B 11.949750321540836 10.545541921719082 14.010977490539123
B 11.839817176263145 10.124948899885913 9.433352429093194
B 11.633152619337567 9.370111749315077 10.995590634208535
B 15.800903415731563 13.661358264051763 14.003444367388951
B 10.726065212382228 15.044998974033447 11.051813454478715
B 13.121299878784187 13.190598399147369 14.362528098575112
B 9.06599490780071 15.706664531955862 10.832654678487689
B 10.414784691123995 11.241160304266506 14.460439502692047
B 13.320095717113004 9.833711274454032 13.525194499752773
B 11.70650056474615 12.429214576260856 14.231954267578772
B 9.949623305542254 17.02965648453445 11.48069500316834
B 10.489991840325072 9.640970623276385 8.486350968770386
B 10.341350970043791 13.456274967070762 18.536172897573067
B 11.356556766110966 15.363506398491339 9.485191911194816
B 14.670890900598204 12.505264415455311 14.009091738379864
B 10.5858815637288 12.77704186234587 12.862808121217197
B 14.397422852560437 14.136718491485864 14.418177000953035
B 13.404273962028038 11.511709277891006 13.976553989012666
B 13.135866136908753 12.919992822533695 8.621071364541178
B 12.59278304667335 11.500847589840868 8.976984864439894
B 14.846177411728114 7.19493741495593 12.972930702155768
B 10.218429853674985 14.308129385543527 12.471718812248959
B 14.528426231413071 8.780009407266398 13.275731209387502
B 9.556384636778454 15.018527924555595 9.510518978730692
B 12.019249153973062 9.995534975155177 12.411557994358418
B 15.648324407484854 5.9352606771472 12.541235661921245
B 12.226001268170933 14.187183383337828 8.698909561370078
B 16.059351195353067 8.487880639051687 12.846341061705981
B 10.488297036280008 13.999172901206938 8.718303230029136
B 16.657515067612078 7.097733743882937 12.466600064388018
B 11.44723554901845 12.700682420799804 8.361051431563329
