38
Energy = -197.71730184 eV
B 10.376730461581783 9.64693418741699 13.647136031520503
B 14.152275076888307 11.927413556314585 12.198357781227884
B 11.563824566073274 11.618738600586848 11.095029420233827
B 12.850002880097417 10.553999826799235 10.140236993451385
B 9.916662798835919 11.932883795719025 10.380948170924306
B 14.92146179121628 14.223913466355004 9.140962111585775
B 13.05896682290816 15.306994874117933 11.184911270264836
B 16.896292595946814 10.563366030232075 15.088023711998948
B 5.499775553532853 15.845086790826254 11.943974154790064
B 15.88807931891659 15.446485772245513 9.27480009792218
B 14.91296094201667 11.760875519504232 13.60640260906884
B 11.90718825754195 15.229025988538904 17.055206275896733
B 11.668648119599865 8.448838653749682 13.88765208160273
B 10.922234004202885 10.560890975588935 12.278134937260347
B 13.095975072470369 14.40530878036935 17.692230559089275
B 10.75759904257143 13.203700966912622 10.586075033124784
B 11.669216824281532 9.724913580413139 10.93357698158136
B 16.261341136756908 10.640515985661434 13.595549072856576
B 15.453108869757944 10.857247931712765 12.224614427552975
B 14.611318971869071 11.080541629341369 10.856831513086103
B 13.975541264205493 11.199414635022467 9.294693888698086
B 9.338651711579981 9.408810172629913 15.01628916725981
B 14.546604946952225 15.365745505830903 10.300990979903979
B 12.81471252361376 16.73768197095133 12.045242386315435
B 14.066726684519173 16.609376774224963 11.176802537511836
B 8.62156666422047 9.877759021555748 13.707690305540208
B 10.747923562213975 8.786653411162419 15.112995963032565
B 10.222333711019788 8.890046477699265 11.280876365220696
B 9.214156940712353 9.935985018553549 12.223119690851247
B 12.049506264239994 14.027162605619147 10.855749444069364
B 13.248094658217914 12.283011182497985 10.793777955493832
B 6.942721833979707 14.802043199264617 14.435325754092782
B 11.520191069052554 8.741111916813587 12.327553257857195
B 15.72138646428905 11.541295809731565 14.954018010482754
B 6.223342665195045 15.320001705593139 13.187818287266165
B 9.932239408251359 10.366343074864899 10.688613080807016
B 13.53801166808568 13.96669541517097 10.081390229933833
B 14.423735110028721 12.694295447851776 9.237509718067045
