5
Energy = -19.11514419 eV
B 9.132099354607684 6.425639582190056 6.988617752188318
B 8.20673251149251 7.416298412187176 7.745157712476683
B 6.588849540176725 8.187698221291237 7.5760052108131495
B 8.147756878836129 9.179201963126438 8.100215413661239
B 7.308467667227842 8.17506777354587 8.973909863201389
