5
Energy = -23.08195955 eV
B 7.802512716667461 9.338150693082353 7.099365343226747
B 7.307167808093129 7.880269820727552 7.493141586678289
B 8.785499173542208 8.725094432349064 8.162755832510225
B 7.27771178972258 6.463835047408163 8.21609156531913
B 8.51995735776405 7.285498852222182 8.721494518054923
