5
Energy = -15.58882694 eV
B 10.297742281060462 7.072087738993807 6.1118450441173175
B 9.786354706420866 7.567304917581655 7.464363260098911
B 9.271140450605103 10.720745428051769 10.417471072000534
B 7.73135354034419 10.544991767768645 10.287314053742733
B 8.523898351347343 9.705359477382352 11.329495899818598
