5
Energy = -19.92862731 eV
B 8.20688667650776 9.288046857109123 8.176390722928135
B 7.422382773325727 7.960226507949746 7.737817552786303
B 6.72519206258384 9.217977156431592 8.482127519727987
B 7.660549361300802 6.4994582235661955 7.118745681832762
B 8.067220541402408 5.116336367432011 6.567037065640431
