5
Energy = -20.78791346 eV
B 6.256666737617132 7.388914205273628 6.942918880989711
B 5.673645154131023 5.821028409396518 5.8760954262558664
B 6.677619113653261 7.009614128172664 5.421030651121331
B 6.154106891585491 5.84138980895767 7.4239650475726
B 7.353037631188074 6.0541289763748445 6.451065522235589
