6
Energy = -27.74702316 eV
B 7.459788929670888 6.754966154930973 5.861091525330816
B 5.839656054915366 6.489012350469901 5.563566444146597
B 6.540924825094267 5.948151590945973 6.969490842877956
B 8.030835713448404 6.531992956553618 7.4130456049360305
B 5.516981839691849 7.320898773514743 6.857634640204113
B 6.791908655986263 7.345573117432717 7.9345721759283805
