6
Energy = -24.68498695 eV
B 9.506202170634388 12.962041585428626 7.6472119010634545
B 9.704798320523242 11.734102805539887 8.565927321105645
B 9.909594310471046 10.458502299870213 9.415779721688315
B 9.95928956609063 9.132158722228072 10.213441913474114
B 9.832436165264046 7.790923231653272 10.970833666693093
B 9.616396767789775 6.450988656053053 11.715522776748921
