6
Energy = -19.36372365 eV
B 6.532570401913822 11.197528654901136 8.843310265095928
B 5.020570100152901 11.132520742678265 8.387031531931479
B 10.645623951596718 7.818002172366496 9.253680593696455
B 11.25568339629027 8.1874019938914 10.647924583850694
B 10.448427686503294 7.334407347423358 7.635028692790689
B 9.26135284499445 7.698686494951817 8.553782849911025
