6
Energy = -27.55298361 eV
B 7.949904614212505 7.134642740843775 7.802987611407874
B 9.92800354806997 9.090423013116164 7.58365730826643
B 8.43732502881918 8.721466078629103 7.727965688540262
B 6.9859571328247645 5.917358885748779 7.794915365165145
B 6.861984819443523 8.49937834391051 7.707562883113507
B 6.080944321960832 7.150365642094482 7.705558140857223
