7
Energy = -35.46489971 eV
B 7.7847369996342195 8.398083308157572 8.659013968257094
B 7.983558523287852 8.896572915254277 7.121965651096578
B 6.859609009146091 6.726587200095969 6.284394982609388
B 6.661923550935874 6.234350357789977 7.821526096180451
B 7.757882828253324 7.957086240320321 5.87769316291167
B 7.98855248401829 7.229757743836445 7.449379254310583
B 7.361895930286062 6.929564179769037 9.053248644428503
