7
Energy = -27.55148011 eV
B 8.42517626799071 8.470663824543081 8.532156561419585
B 7.980885090231907 7.515630910451404 9.722420967175298
B 8.912891623364882 6.716590506607876 8.739277779448676
B 9.503544020967368 7.436601810560527 7.478784318548576
B 5.799078371444438 7.310148556996836 5.833505818714239
B 4.6016364420359475 7.822944022819316 6.7291146551851835
B 9.170756696068906 8.951512763892442 7.2130506027109815
