7
Energy = -35.46532513 eV
B 7.075813374930037 6.65902172190044 5.24480582399287
B 5.644130713879747 7.1117633868192875 4.765411978899293
B 7.311569947769145 5.519694296511917 6.3832053764363925
B 5.787132743987281 6.261246305904694 6.280725292274307
B 4.572758545332059 6.00722645453809 5.122704185132938
B 6.129680296844332 4.769773561104958 7.113934999398078
B 4.803596862354088 4.8771146741999996 6.269761236621443
