7
Energy = -35.46581112 eV
B 6.821373165311799 7.582180400050357 6.653743146978073
B 7.488261196925386 7.781549949290539 8.251821305998508
B 7.882910755899953 6.536997175042435 7.1692085164398405
B 8.16103648671682 9.331122093936061 8.410202426247407
B 8.882348751051422 6.829404110329752 8.41898419539723
B 8.878268320672815 8.185722337166062 9.224090467188628
B 7.169084134505547 9.036306745268316 7.1552327528337205
