8
Energy = -33.93397308 eV
B 9.458123878135055 7.3663047153369625 5.129753971418381
B 7.7543902331205095 5.138219436357194 7.889892970490482
B 7.538293124666362 6.675866219565813 7.5918457513518725
B 5.127426447582129 8.473116299088947 8.51275129485663
B 6.389675697018379 7.47025882342023 8.467420617966502
B 5.703934321500237 7.999786937942033 9.825922099084988
B 9.025290416649252 8.685788056981757 5.728777768981097
B 8.465458371263125 7.3348345024896755 6.404897938110159
