8
Energy = -40.63279822 eV
B 9.89587088774269 8.122795403736607 8.5986614108464
B 8.381697179980767 8.43504857580151 8.206574218377707
B 9.065111404768016 6.87112617421562 7.811192832675328
B 10.620340727417819 6.797684448379579 8.347187429779574
B 6.835917787524523 8.664108892825137 7.847908427231435
B 5.236441592164078 8.688178256091913 7.46818676007668
B 5.9775687791882675 7.39045576619057 7.127627705448146
B 7.5225420878944504 7.105102398977231 7.422218336656579
