8
Energy = -40.23284513 eV
B 5.557238860969557 6.425627199637256 8.496979955036602
B 7.960351947822007 7.108591667257508 6.281145396459624
B 9.171848276430943 7.741230320741293 5.3932481541362325
B 5.720021840623596 5.242350679553401 7.520020388630035
B 7.518345523774371 8.229321884241141 7.552781607031899
B 6.346105711628157 7.745258376004501 8.522104591882051
B 6.761856042820941 6.629322916242354 7.286212574349042
B 8.675072369880294 8.631061599439212 6.5260882692390965
