8
Energy = -38.37079522 eV
B 5.161884503390256 6.426141214576882 5.915027503005435
B 6.576796478871849 7.564674186339973 6.132078439210094
B 5.812008751301205 7.0523554910428725 4.540158397530223
B 5.871620441805601 6.766116826269511 7.408882258553455
B 7.497242333189353 6.363510341951184 6.819830904902079
B 6.165826225959405 5.110805796841392 6.5058737670995805
B 6.9420431973552965 6.032510838926974 5.286075023221208
B 6.631368407156452 5.342675643080344 8.050864045507197
