8
Energy = -39.60355348 eV
B 8.532103493391588 9.748736003069762 9.220465266697785
B 8.441495665596559 8.24054440554005 9.165599565010506
B 7.872318697855777 9.406006485236384 7.901456635011701
B 8.02385467685442 6.906445357055124 8.409599044030948
B 7.276431079943716 8.345955176172675 6.877751651558247
B 7.45146736185817 5.845163653883362 7.372083891561907
B 6.807097994157248 7.01479578791717 6.148236957743973
B 6.7215386503383865 5.504739566836307 6.090225194320512
