9
Energy = -47.41112683 eV
B 7.22206165569105 5.9186189630359465 8.16789253738826
B 7.372427677246748 4.888621223824814 7.038461344145115
B 6.632234270843291 7.30727691563256 8.285098760425855
B 7.019941624160709 4.7912326585578455 5.545898835203874
B 6.484033973648736 6.4924340864060355 6.403953389076213
B 5.931404039275025 8.18604113654925 7.2643817876842025
B 6.360131052999135 5.687028194647083 4.513762924765391
B 5.566152040823828 8.0818127326614 5.774709951859455
B 5.7467107824581065 7.066597573117367 4.638416624225478
