9
Energy = -43.78157141 eV
B 10.790832777293211 7.9175171816844605 9.066346389482453
B 9.190562514452084 8.0294435755486 8.547541476576745
B 8.829985236565102 7.988204741071917 6.906168356779492
B 7.854465828436366 8.968718401862224 7.953724161219313
B 7.246597412151635 7.993946174037794 6.587201654499419
B 7.843418194670107 7.039190648959923 7.9736450638114835
B 7.748127993442069 8.021971888565675 9.403532485904503
B 6.440567984616965 8.015891725839136 8.463725724529441
B 5.737313008061482 8.153789029796409 7.046078820530102
