9
Energy = -46.60424536 eV
B 8.184957786828807 8.327555829722721 8.24412344024723
B 8.21352040266751 7.55444156528534 6.848594339615635
B 7.065038602169833 8.098822068954064 9.301658063327421
B 7.429114584985848 6.666383239359649 8.454954346175404
B 7.5640099431710865 6.3135934413993375 5.736354260889574
B 6.037847225404942 7.85714464085395 8.153847866729377
B 7.61007391521196 5.768978683702645 7.207650454811371
B 7.271780944718204 7.825810828564128 5.3952312014574675
B 6.38308656117669 7.2054998790103655 6.740829930427747
