9
Energy = -46.78768608 eV
B 8.674255362290213 6.103546111152158 8.918738621318706
B 8.418913918472272 7.458859687921156 7.938019244286339
B 8.531987256511952 8.982246446262923 8.823850477584195
B 8.897314351665235 7.542103011298458 9.551361673924651
B 7.703846798697342 5.939928003521665 7.70592710939107
B 8.751808363626123 10.65330897078791 8.943903672361394
B 7.8301721273619895 10.201110421494986 7.801137649195592
B 6.979865814503943 7.203729786777025 7.090643528851415
B 7.378401302553771 8.75961113316286 7.368014597224976
