9
Energy = -46.16041444 eV
B 7.186000106184607 8.416745198567035 6.156178488724422
B 8.705278795038215 8.433227496711137 10.887554601581808
B 8.920649236508702 7.530098785470051 8.208593296814747
B 8.003524932102511 9.788243473142169 10.548449769545334
B 7.68675055889597 8.633372241167695 7.627203276832556
B 7.951728535132622 7.498179628215779 5.179986376713416
B 8.146070555795706 8.762658349670687 9.226273053059174
B 9.22260627890885 7.507507641687268 9.762957341216525
B 8.54351797547682 7.44093319862188 6.634423417650565
