9
Energy = -48.01143669 eV
B 6.4700443888573425 8.236822 8.236822
B 7.1346005027230195 8.236822 6.854719797197845
B 7.1346005027230195 8.236822 9.618924202802157
B 8.630098177682878 8.236822 6.513146439005567
B 8.630098177682878 8.236822 9.960497560994435
B 9.828969762372383 8.236822 7.470165996544852
B 9.828969762372383 8.236822 9.003478003455147
B 8.237008362792988 9.090157479793493 8.236822
B 8.237008362792988 7.383486520206507 8.236822
