9
Energy = -47.41488442 eV
B 6.3272622908930165 4.875041803892081 7.369295130499038
B 8.608942870588436 7.60164406259776 6.589928318442049
B 7.816282216987717 4.918425278876216 7.098033594317613
B 7.494880147728288 8.656153093237263 6.613514943166459
B 8.746238833693374 6.080213991686393 6.786696231724084
B 6.001646364999859 8.60655866881189 6.86270797342066
B 5.211179535506498 5.926251209400513 7.40839015409437
B 5.079511994859825 7.446080735785632 7.213789292616447
B 6.914869538797237 6.749824319430263 6.989338204540181
