9
Energy = -44.09896499 eV
B 5.08414422584926 6.678640067259287 7.540654908732988
B 6.414139387008306 5.425898317531081 7.542603890168018
B 4.896583148893962 5.1700457561635575 7.771871562571961
B 6.559479548042928 7.170220512450104 7.336663814946043
B 7.867569452606074 6.099038754287451 7.348532019790628
B 8.309770718841635 7.593343968451928 7.210447047366814
B 9.466929276788123 10.084621343375627 7.303495570732216
B 8.883825239064945 8.886069368506485 8.0884464783744
B 8.962405559131968 8.901191861505994 6.442282007245685
