9
Energy = -46.59586624 eV
B 7.1510724700700985 10.300534058618185 8.180524446509153
B 11.141642862167375 7.707340667840904 8.604647835159556
B 8.478535358484223 9.46646992623806 8.27774698480116
B 9.847575199598841 8.57802249443066 8.422880725264399
B 6.48120370593467 10.949005925858337 9.422923316201928
B 10.557482413097228 8.485929761989498 10.033938171404117
B 7.858212939436247 10.202669425160936 9.75532198202192
B 9.219753492544049 9.36074765798962 9.88676627190677
B 11.831837884423786 7.516596407630315 9.982566592487775
