9
Energy = -46.16951348 eV
B 10.822304524111757 8.97862761930682 9.359857425174809
B 11.033078448589567 7.5030384765800395 8.86684206482245
B 9.458788989564773 9.696932351617669 9.296396779723757
B 9.482194102484415 8.121811530712293 8.566627081096689
B 8.044515074672276 7.645184329434315 7.861493761747307
B 6.6868596389936155 7.238951227029296 7.188597375963798
B 8.090021964599002 9.215342232320111 8.66050491942488
B 6.678820763047109 8.781302255231761 7.994938990415661
B 5.430113087060644 8.133022603238723 7.285839652222692
