9
Energy = -44.89040533 eV
B 7.527502624658172 6.897116550054304 5.992621682755633
B 6.650484237520119 6.674209771054271 4.5603359974419995
B 7.089425275442678 5.499066162297736 7.100786486588667
B 7.55562531683226 7.299303102880489 7.535816849380914
B 6.826197027412771 5.414996795844883 5.492512736613507
B 6.021005160444576 6.891688670245217 7.631328377796836
B 5.468954754085642 5.404071931538011 6.983071850892418
B 5.394909033249311 6.755944448896386 5.560561493393601
B 4.509850309543453 6.652772368827928 6.898058791774113
