51
Energy = -111.42256933 eV
Ag 16.91409548711538 12.841035264372296 8.555795677935404
Ag 17.098176238935547 12.277544179547347 11.330484204851373
Ag 16.899644219894768 15.053236962524233 10.439557074398664
Ag 16.428509497713872 9.524453634249582 11.965597851788825
Ag 15.33733490007496 10.630431865289397 9.682517216455588
Ag 14.675966928569075 7.8938707992926735 9.985287675132806
Ag 14.98293748981753 14.877797910942663 7.811063212846094
Ag 15.415866643702861 14.460580738774903 12.817089964980008
Ag 14.376028448163577 12.105791130345665 7.5271075415773
Ag 14.77813210225557 13.447238084397773 10.228937087921176
Ag 14.888293219798905 11.746794110848196 13.014502553936593
Ag 14.81982502921109 7.159035997245443 12.631254453739414
Ag 15.041616331736133 9.326996673958792 14.406983409859983
Ag 13.676498080495628 15.939550221239163 11.09612336614878
Ag 12.14571365475936 9.061451923721172 9.292295558901635
Ag 12.46499898149202 14.610818196746346 8.97049447102062
Ag 12.513264132277305 10.636461014562279 14.329121844821422
Ag 13.51738082071917 9.624079104934493 11.838629290620867
Ag 12.637948636952357 11.745448033468099 9.831612076236121
Ag 13.390237700592936 13.247686237743876 14.925791637337895
Ag 12.635969170532565 13.832028903460223 6.321516619311045
Ag 12.133559606343173 7.227919010591666 11.524069590729713
Ag 12.739479303055516 13.429776486039184 12.176769940099863
Ag 11.802363292995775 11.049617455181037 7.158421826306608
Ag 12.703558280334864 7.772600458741815 14.344671502930577
Ag 10.996570650356881 10.88545576072231 11.960886697646746
Ag 13.182267642442927 15.845590867276176 13.881913775905884
Ag 9.955238052876432 11.075503502171662 9.352930613236468
Ag 10.236965628586777 13.389923484144317 7.67194769993597
Ag 11.18243916561618 14.826273407114497 15.59419877466411
Ag 10.195458537131165 8.202017284995215 13.314544658592881
Ag 10.831425293063715 9.02817681059366 16.00955617066587
Ag 10.932369176846642 15.818210004262008 12.26617164088624
Ag 9.765419901595992 8.902054463519294 7.727226399907897
Ag 9.687095085219699 8.504153276964797 10.623095816490455
Ag 10.443311244479359 13.550329695230781 10.541192159430071
Ag 11.11835175801594 12.024849713387358 16.2831217391079
Ag 10.157333765687774 13.309663878361143 13.44023067842202
Ag 9.391860433205359 10.800061700626488 14.300403907009468
Ag 8.297437586502795 11.285032602097866 7.152937001294898
Ag 8.217621319748647 11.793073996784258 11.77627614807086
Ag 8.780939504078539 15.615158335912664 14.290097830663406
Ag 7.651392553924347 9.164182540987923 12.45657166026717
Ag 7.912279905192819 13.10003784412538 9.296760931478264
Ag 8.131617880908422 8.425130453326396 15.197470685289009
Ag 7.407767465413632 10.018045369773755 9.716918606572282
Ag 8.251961121130249 14.787406667647776 11.628400230692767
Ag 8.639520940775846 10.644277777411295 16.953149909438064
Ag 8.698151008909075 13.27271042815613 15.968857515743514
Ag 7.0701205209956886 13.359893465534169 13.760896228599846
Ag 6.659831849894078 10.792999889609133 14.62762167780183
