20
Energy = -209.02806981 Dir = /p/work1/plile1/GA_structures/W/20/all_candidates/3401/
W 8.419575231657387 8.86641129317411 5.842806184200581
W 7.249837989702321 10.824512082074008 6.986406478098175
W 6.67300717484076 7.176526336274977 6.297185102377455
W 8.402591259017948 5.823030910934424 8.084193219956159
W 10.343055639389299 7.774177073156833 7.418412643847165
W 9.912995444498055 10.507409259257125 7.482896024715555
W 9.039151299272856 6.3231957106051855 5.804525823321634
W 5.452196483245031 9.25044025778336 7.463550033391325
W 7.934642641846772 8.538813047160458 8.444997771870055
W 12.141055937154688 9.532997539500263 7.753771235657386
W 5.915242258999095 6.598830445916228 8.538578780357087
W 10.98429454294883 5.687691029859076 8.744686428330088
W 12.136571385960753 7.885983148943489 9.506602312116545
W 5.611386353094486 11.362214692128198 8.872452387586762
W 10.247843721542367 9.52897298555519 9.78474943150374
W 7.95996487434394 10.865453394323048 9.603292009460816
W 5.774630332755366 9.205348658831559 10.020492610401993
W 9.627306212536942 7.056372521400695 10.185115737325573
W 7.102602475700504 6.939202619188837 10.627421378669386
W 7.942701797587244 9.123070050027799 11.408517462907541
