20
Energy = -207.95740465 Dir = /p/work1/plile1/GA_structures/W/20/all_candidates/3447/
W 8.361575584787696 7.423632415715989 5.03687975163184
W 10.5333195930302 8.353335057745886 5.518380847597779
W 8.011690632929191 9.935320726991415 5.80723989068114
W 6.24487420511173 8.010177295728669 6.419084543523116
W 5.821693399118826 10.696178381290792 6.776207609369996
W 8.987196129029675 7.961933505954111 7.688931634944927
W 7.950607363338286 5.586673803188823 6.77129215850397
W 10.570457857906634 6.198789262589552 6.8139479387416495
W 10.018283650792489 10.399209851366187 6.987623139366872
W 5.534965931830763 5.768884821237097 7.0689079859338735
W 10.981716104128093 6.775861194506569 9.154626244855642
W 5.088124574651262 9.063708806511272 8.417333307531104
W 8.944309723065945 5.593755717985287 9.23915490864216
W 6.70570040247672 7.076951792918743 8.88620312239521
W 10.17717432800243 9.652084673696443 9.324612662767763
W 7.4732922697185415 9.99000882241191 8.56089042845553
W 8.961486316260103 7.887939009603375 10.611671698473168
W 6.448086761526891 8.925966914484613 10.935853103659987
W 8.395163378953221 10.398579779578597 10.936610382329855
W 7.052217173367066 6.5629435465202555 11.306484020620928
