20
Energy = -209.44275011 Dir = /p/work1/plile1/GA_structures/W/20/all_candidates/3304/
W 7.547174554567242 9.748775542810218 5.197459250532468
W 9.791633564735324 8.643821275987799 5.887143478672133
W 8.09668904023933 6.975374108700026 5.578396815350942
W 5.910456748000753 8.146315876179694 5.530394213260213
W 10.6577399798458 6.626207600591635 7.197324398108302
W 8.690803331281227 10.610119923662259 7.392164785325553
W 11.265492728129631 9.506841640658022 7.835605624283754
W 8.547063922562964 5.305472252651496 7.532222247715951
W 6.295508088764261 6.867756267882036 7.675901171424376
W 6.464071785602671 9.450580722201275 7.820630130615154
W 8.715537417796433 8.011707011656286 8.313966518134823
W 7.5975302835077425 11.521169696480584 9.444091932947902
W 5.140221640019382 7.801255446277697 9.772225551987885
W 11.47633229491586 7.5529139335069 9.310575665038812
W 9.708685242556802 9.90231106174908 9.745789640477925
W 5.505117971997474 10.291626709723559 9.974842945064966
W 7.316184476633858 6.505743147037558 10.01774093701136
W 9.669008352291055 5.540828004747807 9.696673900992486
W 7.481778349889845 8.972174585654235 10.56967230059242
W 9.715960635177796 7.611995600357658 11.10016890097838
