20
Energy = -208.42886023 Dir = /p/work1/plile1/GA_structures/W/20/all_candidates/3354/
W 10.13026714267642 8.069692235022588 4.789595666993039
W 7.045659917019748 4.870131717411539 6.38008276823083
W 6.5726000784674605 7.378650631752508 6.222878867615126
W 8.533598482199972 9.631384755137 5.9772664687280255
W 11.199921781751316 8.907508940282744 6.620769769111409
W 6.056712312840373 10.04944993073648 6.253918475648464
W 9.307572610617525 6.7985165988825145 6.750565794805564
W 9.63650658144611 10.393663706178662 8.027781955738003
W 4.826889546110767 6.38273390189776 7.534472159212071
W 9.169088731974522 4.255096154447528 7.245445048813756
W 4.999938151292781 8.713278028653527 8.169261584298033
W 7.112491638450071 -4.883217429248917 8.222227218515492
W 7.664849970307079 8.550435562571883 8.265730280410718
W 7.322624087369731 5.824771633458322 8.583995730179543
W 5.84178786806186 7.33787227943542 10.057523287235165
W 10.172813103006039 7.929058763133945 8.89328062351583
W 8.788646873874624 10.003001115014744 10.591835497214037
W 9.750615082999735 5.417690543483943 9.223285504190544
W 6.486638803926503 9.841678701495532 10.496768168681674
W 8.317382840680997 7.571547274817685 10.629920735935864
