25
Energy = -264.0249969 Dir = /p/work1/plile1/GA_structures/W/25/all_candidates/1546/
W 7.813906635412303 11.358614346796545 6.471404453809828
W 10.13760641887965 11.755194023138841 6.303209130061136
W 11.601135449064229 8.176075158312324 7.139815256482539
W 9.255595929647408 9.428039651031188 7.3809895163448065
W 7.953928835722248 7.449214906402106 6.791141053763587
W 8.542162765897224 13.23603521697442 7.989640815702296
W 9.760644623757184 6.922571715767156 8.422280235645413
W 13.24949144003438 8.998130119258189 8.608547350383853
W 7.401546618714191 10.844693657926278 8.995725806967014
W 11.008774994775557 13.070481487039006 8.145114935500612
W 11.362805143016201 10.59847253559964 8.556280837385572
W 7.352225119490387 8.057782487411101 9.184668798084116
W 9.815777408055498 12.18669337204222 10.26294775279427
W 9.396448560030572 9.338245921474185 10.156836569669197
W 10.488817963457194 4.997271253978447 10.116654927201102
W 11.619263867132002 7.734052818608781 10.003066810463212
W 5.8178414684112 9.512230180284767 10.564649260654035
W 7.583619470976438 10.915803618615746 11.664230976851421
W 8.897985429313149 6.5898030234946425 10.961981598795594
W 7.5245847164681905 13.070421820019192 10.245118855112851
W 11.865472990613416 10.153120608248997 11.083558487610038
W 11.476112880640164 6.024547735139952 11.915440279885143
W 7.569378007437855 8.503727167461296 12.049064093935394
W 10.090650294871873 10.82308201245461 12.44239688273328
W 10.30659083210611 8.148063026445216 12.437603178088715
