25
Energy = -264.22728885 Dir = /p/work1/plile1/GA_structures/W/25/all_candidates/1013/
W 7.750539516164716 6.511520900382968 5.349297455862236
W 10.010095775293035 7.148527136816221 6.011307189106786
W 8.097896085408896 8.878486061177455 6.269785924906611
W 10.36584667192503 9.951387238954839 7.80937582277172
W 9.10121702566174 5.1924049797089635 7.297235102496041
W 12.146424560702318 8.078093331514403 7.55076046804668
W 7.857575527084832 11.388290646143664 7.334772394573647
W 5.744334792388173 10.070900090854812 6.874007491847969
W 6.137111215336262 7.566888224234246 7.31780355547868
W 9.753824956149419 7.353452842532366 8.569366000772323
W 11.563931331470066 12.105273112586106 8.621883116380225
W 6.764675787224679 5.115068963573152 7.135148868804429
W 6.394501175015096 11.436840289516027 9.221444118914588
W 9.300499857023771 11.686423959405198 9.573422521672933
W 7.44421504873848 6.373205558437244 9.331506746484786
W 7.710204879670471 9.154959848943752 8.908117554910113
W 5.078005975332974 9.27985593402003 9.078899524057189
W 12.485417822016935 9.823766865954351 9.34007253034936
W 11.861030681566683 7.43955722735378 9.911106248240614
W 11.4763621441083 11.537642786023683 10.882817151439252
W 6.556894133038456 8.038624566768348 11.086274257678205
W 7.5694756818839615 10.379584928549727 11.229587552164947
W 10.109925261015357 9.315649071252007 10.586320551109933
W 9.166687435314426 6.706589776064332 11.165388755624788
W 8.548579320980238 8.462278319746284 12.539571756819566
