25
Energy = -264.33439006 Dir = /p/work1/plile1/GA_structures/W/25/all_candidates/232/
W 7.9612630160637945 11.543638885016602 9.877679777109956
W 11.014049987201147 8.3371953166462 10.589478659855427
W 13.651212925613958 7.505792321080484 11.251319852883084
W 8.046726851618676 5.28489913396136 8.581204095712366
W 9.836365017328863 6.992964546749746 8.341922284519887
W 7.087607451277765 10.38473389246013 7.725440609090106
W 9.226505641141589 8.396276355820985 12.424108908405055
W 14.149930341047567 8.771555580317965 9.376305781702062
W 7.928947780107855 12.827507865860502 7.756566385332561
W 9.705887308220246 9.740879997361224 8.486196820998723
W 7.99503713345661 10.40796726532733 12.258203554547258
W 6.723514489088951 6.547407594884569 9.973108199720127
W 7.957392461222859 8.771086003280304 10.121053089100146
W -5.516515804670954 9.753745688329419 11.663725728792386
W 12.357084514634455 10.61447528633525 9.383244505517737
W 9.162775291476068 11.129582943634617 6.313607539027464
W 10.307042316548518 12.3018580171731 8.496604347200712
W 10.10919052958001 10.784400319382698 11.034863758496213
W 7.535311922918489 7.7451901529322456 7.591616282990435
W 9.02268970770008 6.328880555365284 10.78517436603409
W 12.290850483609692 6.535787241808461 9.445424708081307
W 11.742892044681431 11.040516242395475 6.9110445338115625
W 12.14614391333415 8.454612254484784 7.841513964533389
W 7.59693822214034 9.191174305194956 5.562177216541532
W 9.957432059237316 8.604147838776122 6.204690634576173
