25
Energy = -264.37096914 Dir = /p/work1/plile1/GA_structures/W/25/all_candidates/1335/
W 11.695569731502156 8.978795926231902 5.374801821344959
W 7.343082780011386 10.250069183559676 5.596904309430984
W 9.234442951479892 8.379555837326668 5.585250484188351
W 9.910862317037916 10.771518804987899 6.567359398091729
W 11.075128893276988 6.742695334559221 6.237737894818284
W 5.706519870127267 9.663149232745003 7.8477411748069565
W 6.758269875400735 7.974512593322562 6.3974295122208495
W 7.320657264225533 11.556531229795551 7.668586581886765
W 11.255491003336756 8.44540741414804 8.06032605832403
W 12.305363670594089 10.555746552510719 7.0700302243694475
W 9.14185350022648 6.748160948507728 7.892892373105015
W 8.501332020736161 9.331591952778178 8.144257526565935
W 6.817355532910903 7.265895235583589 8.98552987701724
W 10.824237003830442 10.748002912974977 9.251118307321198
W 10.653444942413032 6.130003808754321 9.795774557171192
W 4.793703291107615 8.004043767185701 10.217142256737558
W 8.57303469742849 11.33190248284146 10.123731489885376
W 6.533296304967851 9.764538433101194 10.229029522281833
W 8.309677400407105 5.89776006928695 10.515378748974367
W 11.750919916186211 8.412766702768607 10.562052590582617
W 9.257738235579701 8.382535267227903 10.524717389651453
W 5.82001390091209 6.029449247488732 11.229542848675122
W 6.978055057163598 7.909760449340512 11.973059836472968
W 10.816509882217671 10.416140995929894 11.718115253505939
W 8.466962712498045 10.15298837262113 12.275012718147952
