25
Energy = -265.55561128 Dir = /p/work1/plile1/GA_structures/W/25/all_candidates/1823/
W 7.014488172114408 8.078229160819035 5.865017979188929
W 10.84037981767119 7.486277502697769 5.714299579458718
W 9.274412818313724 9.263540343497306 6.526099250010039
W 6.520524778930452 10.526126112959995 6.2588910670651146
W 10.651691895196638 11.511590706085386 7.007937372960076
W 8.989355796643569 6.6575429901725665 7.200985831678137
W 11.73183041397476 9.238441035627739 7.442504001335771
W 4.945111617775296 9.183383813593982 7.486007960773026
W 6.161616749301337 6.715108191434885 7.591655364820111
W 8.350183517291084 11.517096319018574 7.8352332107592035
W 11.71562375361533 6.760569142627965 7.931546153181418
W 7.400647522903916 8.947972252911018 8.452461952979174
W 10.074538236630755 5.288220170340199 9.086276379508245
W 5.888365536817974 11.083581874351015 8.971159307678658
W 7.724604044220297 6.466011364623313 9.621501237546564
W 9.871198707999115 8.333695897803713 9.239728937439631
W 5.3317929076229245 8.520631505332142 10.037409471397849
W 11.646510820605709 6.550992736312537 10.518161788190454
W 10.814657767516733 11.149431388255751 9.37391291011864
W 8.33766927020536 10.68927524922068 10.29545977595085
W 12.155978046985245 9.133305734934646 10.072676453069052
W 5.898673838470632 10.58821129649116 11.346453868467114
W 9.413204946844834 6.802458359248477 11.43861964475734
W 7.373626439721892 8.52636075980819 11.336687382134903
W 10.124865087739213 9.233498596944484 11.600865624643259
