25
Energy = -264.15680866 Dir = /p/work1/plile1/GA_structures/W/25/all_candidates/1772/
W 6.554352263228899 7.576891636426685 5.790163557289675
W 8.820876263549913 9.22493828562107 5.854241954516866
W 10.800394823621557 10.78968805502363 5.988858025388943
W 6.303836156041699 10.16908262355251 6.132854305282877
W 11.690483066035126 8.657565099105927 6.499452922461631
W 9.732493896742637 7.281767656079747 7.4990233928348715
W 7.267604408705375 8.288604570187953 8.288560834989719
W 7.739347481731949 5.7269960569393294 6.908045343428641
W 8.029607350961015 11.409702018308773 7.22894921022168
W 8.92021696216447 6.8548071374347685 5.073658373120243
W 11.808576920246372 6.099814124335893 8.5829094588489
W 7.8328919979461435 10.816358895103976 9.74953187509894
W 4.555248389584797 8.085369295382385 7.381126642506881
W 9.983666116650744 10.046980799008638 8.208493395300946
W 8.768851954161942 9.720276764792182 12.178300523045191
W 5.552261338448573 10.167615988726384 8.444254911434802
W 5.9880629715767135 6.085969659178249 8.779472090138803
W 11.860586741717487 8.408115048928057 9.034078970093299
W 11.012932852573497 6.379246074181866 10.768297411702354
W 9.130104378523251 5.623278254025654 9.431630839695156
W 4.717370903505005 7.938881064995761 9.720439353125025
W 9.305621031749615 8.251365739407753 10.244794979267295
W 10.056465920041704 10.981471883769341 10.673931922529317
W 6.628449898841401 9.099324266436454 11.101687544155938
W 7.309024316517145 6.685217407914645 10.806570568389278
