25
Energy = -264.14605292 Dir = /p/work1/plile1/GA_structures/W/25/all_candidates/1595/
W 11.480335978849805 7.391680014604325 5.554368059418289
W 8.951640582120387 6.655788446724073 5.794633102662171
W 10.929131877299426 5.134178317815016 5.853446979077581
W 7.555584077172016 8.763655484639612 6.26982407694133
W 9.13750671310318 10.605139530358212 6.9103928861843125
W 11.834648481945557 9.691381622504228 7.27094062298625
W 9.89810711997104 8.183134785876119 7.6459377585612
W 12.000456254516843 6.5209461859863636 7.810029100092924
W 5.8411328190932466 8.73286513348527 8.404112450303884
W 6.714655696051902 11.051197970735247 7.5630440452168015
W 7.528219861145848 6.815917522577289 8.157451626222583
W 9.753398114244337 5.423877864693839 8.087255114834749
W 8.128544973461485 12.115353284016093 9.376139682609905
W 10.444896595766071 10.860028875311778 9.137359042081622
W 5.357458549280258 11.19869645302284 9.694964484269496
W 12.029491631379251 8.49065607040105 9.43804946129471
W 8.038217910355987 9.440484186773311 9.413343469125286
W 5.53036966525236 9.154129071931001 10.841820774105782
W 7.111924314152213 6.944341086198659 10.545954767616303
W 7.217972200810198 11.177289425176406 11.504618206410932
W 9.734287590825023 7.190708048801659 10.023561681164127
W 9.785879911099736 12.25430625386413 11.289892991867951
W 10.490921793660398 9.532858266685725 11.22986941877616
W 8.116169498256268 8.72262420828357 11.949603091830102
W 9.186517729836819 10.746231829183323 13.030857045994958
