25
Energy = -264.85595352 Dir = /p/work1/plile1/GA_structures/W/25/all_candidates/813/
W 8.870739466861636 9.850585719800602 4.937894385471462
W 10.390997990076759 8.225658630450008 5.770200557692302
W 8.052246200456715 8.087762203015906 6.667131782599643
W 8.53545471631937 5.769654635579378 6.0179686337722345
W 6.216359473672497 5.9436376647022415 6.526566414000369
W 5.8986867755579535 8.116649716587496 8.08626206694999
W 10.673137515771392 10.870209225826267 6.332728154768266
W 8.22878921941399 10.665366179082353 7.351283861059471
W 11.577950951150006 11.479382465860928 8.71688704755973
W 10.401212244715516 9.101241397841573 8.289117084803442
W 9.678927251464765 12.68955096424324 7.685018597919765
W 9.874740262518838 6.411667299130478 8.076897470793599
W 6.530219273856849 10.880876832348374 9.441494705019501
W 7.4132811483953445 5.93627122471295 8.594154475927677
W 7.938647096584213 8.53543492538227 9.503499711859465
W 9.175206633623741 11.228384798877736 9.731825077473689
W 5.034253188296623 9.09370930242993 10.300690194511253
W 12.480351667478466 9.46456722458074 10.062338816742141
W 9.10947915427751 6.271648235150979 10.733730097835005
W 6.3088305486941305 7.094786640420109 10.864225977073534
W 11.301045837417616 11.109492606688827 11.267967590653377
W 11.341982264746068 7.198832193424173 10.09710110490752
W 9.965090756477752 8.972036521523524 11.22428891296311
W 7.2112015853541624 9.758053313996404 11.547818861466476
W 8.140945183852974 7.594316485377882 12.522684823211966
