25
Energy = -265.59321374 Dir = /p/work1/plile1/GA_structures/W/25/all_candidates/1324/
W 7.226816650812054 6.232323046774531 5.239480978715011
W 8.279231667684664 10.306329696825669 5.633931038351602
W 10.417923303599007 9.617202582965083 6.841854381715984
W 5.4976369996581935 7.864143661249003 6.50842335039946
W 8.87796126225877 5.4407892377721385 7.000920189488713
W 8.134810766301102 8.040670757369275 6.760141833146462
W 6.74221525141326 10.38190188814954 7.590907471435711
W 9.045229662383644 11.720321948817771 7.633506487879624
W 12.793950094152912 8.983507041411839 7.8910525382592995
W 6.179951716940156 5.625029139831998 7.2088191521336284
W 10.650475708488566 7.315120663132227 8.06627192500936
W 10.225612428324027 5.239419556853451 9.251976637646601
W 7.060577907045698 12.553008660398875 8.904620559873651
W 8.028219088451406 6.401841696387268 9.119610288285141
W 6.093230194825421 8.033166635840479 8.775818790213762
W 11.463136942064612 10.77623259091539 8.920143776452377
W 10.053644063354666 7.437796716584408 10.66464275694804
W 6.748315304600795 10.428366042146916 10.280179511107432
W 9.015917165619754 11.774995962938567 10.260689712069523
W 8.8981636133304 9.3551331487622 9.080326623827057
W 12.395825583157276 8.380105884565632 10.058721714548716
W 8.154254588473623 10.620320630057803 12.428428366823985
W 10.647254342568182 9.959174609405013 11.15869036313354
W 7.42664143162167 8.145291486749848 11.121885816428033
W 9.18618432065688 8.610986771881809 12.842135793893423
