30
Energy = -319.65280891 Dir = /p/work1/plile1/GA_structures/W/30/all_candidates/449/
W 8.855637807240628 10.50876290938404 6.053070840059374
W 8.040632831276142 12.821788004947996 6.912989243918805
W 8.609128697143749 6.911637698644625 6.073499735339698
W 12.395017179002215 10.26110728925144 7.157202078291653
W 10.646809324043247 8.55529424935495 6.453374459116261
W 10.338892778772655 12.116082754464488 7.10054831745887
W 8.256182906662529 5.2440844505654045 7.979863937226523
W 6.456233277501819 6.378258054070794 7.0153313197268945
W 10.035919641326725 10.025756655456563 8.499269670947887
W 6.764811307248393 11.094734386025152 8.074385027400165
W 7.692700563545533 8.72731613860304 7.596344191702678
W 12.405734351473157 8.168750785653847 8.38492883110822
W 8.705728988587062 12.232415359138793 9.386399933114411
W 9.704122546943559 7.320120470775218 8.607265577057715
W 7.035224658136839 6.949931483812455 9.472595196238876
W 12.452855091173872 10.578872498049595 9.704742383087861
W 8.323513292673734 9.42191812452355 10.376948097093717
W 11.091472569447456 8.441720459420047 10.692951661567633
W 13.644767981184094 8.329930790206616 10.88180626051813
W 5.861338873901867 9.263323643411505 9.805651911812934
W 8.788308475519733 7.05675489401503 11.462767610806397
W 10.40716612352336 11.08376025179338 11.443977214033964
W 6.596272180808215 11.52898348346661 10.7035921801347
W 14.390804405137898 10.58595679290637 11.226425480456623
W 12.657484377187258 11.828415660346371 12.255784497913671
W 8.66058959158294 12.862389328565172 11.873169262204716
W 6.82242269054121 8.2038218761817 12.067174435847512
W 12.358724367927636 9.433577255791752 12.781553343748715
W 9.766660618351784 8.95197001396109 12.889831125325829
W 7.846894060139248 10.724615795217227 12.67860773474429
