30
Energy = -319.00141688 Dir = /p/work1/plile1/GA_structures/W/30/all_candidates/802/
W 12.001623114156581 8.65275745441299 5.279711775998283
W 10.80774296014534 11.216499758249093 5.763468679432874
W 7.099639679665779 12.21629413648483 6.6420001555615205
W 9.5381267643938 9.181194347879787 6.10179206898676
W 13.77916303738718 9.34777946602897 6.523473055881244
W 11.81640683346864 7.554340797795023 7.508043990133258
W 8.022032256115395 13.66193556124793 8.417149760055956
W 7.108884120622155 9.945383403568517 7.317924784801879
W 11.750044145800175 10.175293972539178 7.796235432625587
W 9.301589146100119 11.396718224478617 7.7422811512316265
W 10.377414167742208 6.203471879994834 9.326530622871523
W 13.709947319433383 8.567821838092847 8.904703390160673
W 6.330611733191479 12.045104705185015 9.19135422492341
W 9.488531866401535 8.485024467590563 8.530707446982627
W 12.795321976316425 10.642046983588816 10.119705046252816
W 7.607920579040951 9.91713405020695 9.81111851409099
W 8.777343933335043 12.4337207043456 10.416096476304842
W 11.095424429184396 12.500014254411527 9.175466648715302
W 5.468163607598912 10.470117288162475 11.320985994023664
W 9.09122220647791 7.950130499821673 11.192048521210868
W 6.648728838903853 12.36167456073751 11.798866756871579
W 11.761454080323109 7.879418103387 10.472251205036793
W 10.379631253493896 10.294821980895353 10.299650698467564
W 7.677752974536169 6.03471145553517 12.728386469767067
W 10.076051582269352 5.77381657921219 11.906071373552585
W 8.067858035160215 10.255583565123423 12.503025117909914
W 6.722995204311126 8.289589382790975 11.882691973135161
W 10.65329443274867 9.706329204325426 12.69120239455771
W 8.88837508368136 7.637012890452886 13.79573723822376
W 11.386402644108069 7.433956489567455 13.071017038344689
