30
Energy = -320.23299151 Dir = /p/work1/plile1/GA_structures/W/30/all_candidates/952/
W 11.057440160999048 10.05057406574401 4.802010729135514
W 8.712278862137536 9.099647608245093 4.858143962809606
W 10.132002150803446 8.017467591516802 6.522418837830496
W 11.003223130129879 12.157225873329237 6.183271266592443
W 9.049339043512637 10.72210744265575 6.705340663815344
W 12.514870443594113 8.418141757529165 5.984642803002497
W 7.496772497421514 8.585341631953227 7.224867400385428
W 11.785436655072738 10.242220025619762 7.4863032536101075
W 8.526012398056878 6.479106332282299 8.226977539216664
W 12.010896837483969 7.908039320774147 8.74379776763741
W 10.141422049536143 11.887500238458836 8.819587532964961
W 7.261457795164037 10.820872411149624 8.992426443207256
W 9.632575742349681 9.096116643770403 8.932019662525121
W 5.410570825933317 9.092076481243136 8.416821140915365
W 6.16857231699633 6.678601780264332 8.880725250898406
W 6.491453628615895 11.9151588177927 11.074796259625037
W 11.703009538416854 10.00928656807878 10.345330891090581
W 7.6330912564632625 5.603508946680422 10.746130715095687
W 8.806755548348088 13.30152372527152 10.351493079121266
W 12.28363411614944 5.970850267287295 10.142027469931318
W 5.2578496007580595 9.871371029117057 10.810627622522805
W 7.399552573365667 8.331733159057968 10.316808390499219
W 10.984079959289875 12.729805454729547 11.185780067332944
W 12.340160899309431 7.806617790505986 11.54347835065683
W 9.889347553585736 6.67723542305807 10.457346818465306
W 8.943675916050719 10.904346409045631 11.16080675472071
W 9.913235911913842 8.637330850175797 12.081978488215809
W 7.928566904944868 7.134209675085132 12.556396682308645
W 7.101742517648576 9.69970515113088 12.488738024495552
W 11.11738632152338 10.848690684022484 12.655319286945947
