30
Energy = -320.3802746 Dir = /p/work1/plile1/GA_structures/W/30/all_candidates/111/
W 8.019009844000571 10.453334083518614 5.991990595891446
W 11.990590691964073 7.429790898164307 12.809704478492863
W 12.079925297040798 12.107460139548136 13.070583870174703
W 8.52441628751968 10.343503995432613 8.606791557109641
W 6.283720171150772 11.784545520039122 8.239167905673277
W 7.997349634671425 6.37853755232547 11.666735530947442
W 7.835760923736208 12.499702459767635 10.153815181887067
W 7.904425912401386 6.501378521492943 7.461127429526171
W 13.354167310563257 8.221161750902601 8.107582075008299
W 11.926262457585379 8.911888798820732 6.321754537413356
W 7.026940795496914 8.547784543855832 12.180339325934005
W 10.372920526118982 7.262737462374951 10.98103375760482
W 6.32432025013034 10.114517326215092 10.192025593559853
W 9.289295984634387 7.893347274528456 13.143329182301642
W 12.773998768639823 10.75587086760953 8.249309006943585
W 7.078509042601903 11.407029780766058 12.160612458434855
W 11.31475537577014 9.77979715548351 12.539936191766929
W 10.681165051605925 10.950878866162267 6.8156340284069135
W 7.200046684353056 7.808123944374199 5.650224819981993
W 8.061695349318235 7.877539023534097 9.584462005021738
W 10.415761542898773 11.943278600851654 9.411928334435208
W 6.519593412244116 8.994314243137621 7.6041135572348955
W 12.530431065786184 11.336321870856635 10.796612255829958
W 9.039795949200203 9.971789295906117 11.327635415605387
W 12.913447313999667 8.630453311013058 10.668536272793371
W 9.477023695043478 8.390393552465541 6.932014914592196
W 8.391260124648166 12.531845952386718 7.199137034163419
W 11.16478010782961 7.004950885102352 8.341672033505645
W 9.9966340349196 12.319609397817255 11.941252857380313
W 10.930535152515327 9.26665168393559 9.269476550768239
