30
Energy = -319.80974371 Dir = /p/work1/plile1/GA_structures/W/30/all_candidates/442/
W 12.94123667498395 9.87002971188164 5.497187882413151
W 10.65785275047203 9.322732354233931 5.258631461281572
W 6.433025202109217 10.627782044955753 5.980919337977922
W 8.067748853154718 8.818575817347666 5.929714106124078
W 9.158198870744364 11.21568447751429 6.238583200876886
W 11.726116865713129 11.287167973434693 6.991444759252299
W 12.29552350915912 8.41305917764486 7.421065640241029
W 10.192957050346788 7.133398503200692 6.767345377820061
W 5.899176529111049 9.120810011150375 7.789847404275582
W 7.57160282570149 11.074422422585497 8.23364692894021
W 12.24965556230284 6.069346992328496 8.470893429867154
W 9.666777244657649 9.423864929431462 8.087745430561762
W 9.855827465248645 5.267421291596497 8.399782885849735
W 7.755235963391891 7.307911008273902 7.992009242234689
W 9.943911712309871 12.227462586305542 8.72937575489767
W 5.927243543482177 10.642074147467408 10.081610392378614
W 10.15481744789574 7.333635770031914 9.717642194194081
W 7.863174535683181 5.899915533622003 10.086672832554308
W 11.767287252170219 10.142421981393209 9.343974631729347
W 12.543191153715593 7.76002164462796 10.16373070315972
W 7.664493961890531 8.74649560038611 10.221137527914514
W 8.305137168042151 11.473331728146023 10.915877548956104
W 10.776917478235145 11.939867112529505 11.021449868389174
W 6.800880986339714 7.17180739580409 12.056915285370277
W 10.157983073724806 9.501475598892531 11.348326358914111
W 6.144250776132835 9.852504001383856 12.42795256335204
W 9.072409772536123 6.918482335350288 12.189045523040564
W 7.36585249365434 11.912673679164158 13.109211941295506
W 8.406919173575101 9.276813764866805 13.162014827513277
W 9.694739146831926 11.308955447765404 13.426390001940355
