30
Energy = -320.95809287 Dir = /p/work1/plile1/GA_structures/W/30/all_candidates/715/
W 10.202013439456817 10.30223867224341 6.5786090744903465
W 7.633709265332817 11.138218451993328 7.309131524993601
W 13.034784338920574 10.135147045633756 7.16121146496125
W 11.524836951324398 8.156494770636371 7.296583929001677
W 9.06549995686092 9.150640432347243 8.515476870139647
W 8.50386876764903 6.7317645029113695 8.305619338151182
W 5.44255843389665 11.004448661431072 8.278586998194854
W 11.414294763379388 12.25396721783088 7.437856937389477
W 7.240264534769429 12.836723125199175 9.138503133180901
W 9.563202612794168 11.848115345082672 9.233079627517913
W 6.412793579915639 8.763750773964857 8.088644161170407
W 11.68531175740513 10.081475071612909 9.374110176717885
W 11.170379938855586 13.781263446666989 9.640708116352114
W 13.19849098276884 8.022301021358453 9.128854774275057
W 14.533008523626954 10.11401368756025 9.110753030083828
W 10.531904723515758 7.212508077960974 9.771496452514045
W 13.131667870143866 12.29040798269577 9.30886830538332
W 5.333374188900469 9.004293558173494 10.230398085233418
W 8.923759006668847 5.630757192529524 10.73021855338701
W 7.593759779143714 7.753299668316996 10.462432061123915
W 7.233823218133631 10.65465678698447 10.29174920316416
W 13.346036511475486 10.202552539246671 11.347102123787339
W 9.670073843272064 9.628595955256138 11.174488514227841
W 11.310185237253158 12.033610606406157 11.388201544941003
W 11.850251547244225 8.167899887488677 11.760365052715656
W 7.136920315917157 9.293956730752676 12.548070408012155
W 9.439861075517165 7.4255538131073635 12.4510122375479
W 8.791042687276931 11.701582899970026 12.269058230310504
W 11.4566778275313 10.198436749189053 13.149900908237761
W 8.982970272437841 9.838651276837515 13.87623511418223
