30
Energy = -319.64828484 Dir = /p/work1/plile1/GA_structures/W/30/all_candidates/965/
W 8.785254231898666 7.631763931417429 5.23580769565056
W 10.660052450351106 9.507623479875502 5.301199387698962
W 9.713960956999722 11.730963935075085 5.401437621285951
W 7.983437537095493 9.938223261879918 6.022909424433686
W 10.36967468172741 6.505501421934612 6.531138882058834
W 6.254709399998385 7.875527006854636 6.5449953525293685
W 5.917554940266859 10.619858005649258 7.331213045315071
W 11.539741165955327 10.779125898850612 7.35119515465755
W 8.060850579529001 6.537709934019702 7.710624862587886
W 12.374636214353426 8.136870365564151 7.513187409634655
W 4.636141522559656 8.704443645891546 8.044867407580435
W 9.902783021599435 8.692727528579182 7.733963765550229
W 10.48036743343421 12.942666926089382 7.447353741242781
W 8.790418140940583 11.316566848812565 8.115572669222598
W 7.327433051264903 9.184979333364952 8.772161388323578
W 12.206160501967986 9.483781927782147 9.643155969018787
W 11.309800715102224 6.945470635522786 9.467002210160404
W 6.0495028439030145 7.186637328681726 9.56606738075702
W 10.576314421484266 12.002394453386973 10.045122480431646
W 9.713373938102166 9.563851365748933 10.240281851916407
W 8.74182166603281 7.12133639487225 10.150841236347897
W 10.332170561325954 5.838086214531269 11.627918384184385
W 6.97430454834711 9.444252592234049 11.313193411757164
W 8.10829329173033 11.886762920777043 10.60460851800035
W 11.017645814903407 8.146886233179778 11.937071436142395
W 11.781496033316726 10.729247829395607 11.846448170538775
W 7.338574783018909 5.844829574867503 11.854768187882742
W 9.349564609581918 10.766816923916588 12.384783154200953
W 5.68519098408044 7.472219483507271 12.096600876645773
W 8.454197864350014 7.898302502958493 12.59993682946455
