30
Energy = -321.01672125 Dir = /p/work1/plile1/GA_structures/W/30/all_candidates/899/
W 9.552051407941866 7.860525815886674 5.78141183518159
W 7.5122496053499574 9.012251059121247 6.768317846475817
W 10.149534529240828 10.183355179919984 6.2980826847581985
W 12.658781558275003 10.155041973470187 6.898848204128587
W 11.515692552251167 7.980072410618071 7.388978901307955
W 8.041617694196882 11.38148761801711 7.512181626126078
W 7.141568072093002 7.370089899333192 8.71893895957043
W 9.12647804199252 6.294736278225314 7.7155022930807045
W 10.692595428805914 11.55454313002625 8.511446066633676
W 9.384989022119814 8.919443008306642 8.518874572413356
W 13.268756399083856 11.477412578743882 8.737692616707184
W 8.742190534929856 13.05939264458084 9.583901256970208
W 6.354676256944421 12.39361176858771 9.108665888201243
W 12.00353867707165 9.343387211018113 9.605659771510975
W 7.095162977042349 10.062261901052509 9.517518174939205
W 12.22711572001552 11.704362413141576 10.995388560434394
W 10.657859571571208 6.738790400555866 9.830444054730792
W 11.144237903003505 13.690376926118596 9.857913159573194
W 8.484503077791107 5.589678122500227 10.027814253133958
W 13.350957666853212 9.656874489782552 12.091829147486028
W 13.01571893827865 7.5619649850651225 11.003299202553604
W 8.527603103253416 7.950272366630091 10.949671699296912
W 9.65830162293363 10.501648851795974 10.924924018386951
W 7.057298280806301 9.614215545283082 12.209881153981778
W 9.985620450931377 12.991930824684822 11.955501099397125
W 7.314771311129823 12.001325047211015 11.460772516350572
W 10.914831025660042 8.24861486850386 12.129101652890856
W 11.17099610482901 10.5494040297994 13.118792879152824
W 8.851740337888414 9.043508689332313 13.624270899209039
W 8.79776431517684 11.508622150147835 13.553577192876654
