30
Energy = -320.44607138 Dir = /p/work1/plile1/GA_structures/W/30/all_candidates/196/
W 7.203586671042327 11.227769341718211 6.0439627019575735
W 9.445530902235905 9.911184411260916 5.924103199444533
W 13.428851939465495 9.53264510650323 6.873941558576141
W 11.445130828944626 8.112706467360283 6.821062131474497
W 11.652492006991553 11.29060927675668 7.050490419882694
W 6.807760933840875 8.985913788756237 6.652456733961145
W 6.628847388936789 11.031286920884703 8.490783911115644
W 9.68984555706092 9.923897594966657 8.424878246776775
W 8.83659307815885 7.699518388169449 7.122856581495105
W 9.099362791400425 12.284741080854358 7.576170538607554
W 12.119087349728245 9.586203053951643 9.180237604331944
W 11.160866091014828 13.601625839383487 7.803154948601117
W 11.870223445395997 9.58291194000706 4.980227976585471
W 10.338820354361477 7.430993539840644 9.33000817842883
W 7.520560959742502 8.808745540520425 9.331094236681247
W 11.104002739009355 12.022279856471613 9.762594655358246
W 6.046635722843404 10.548441693611037 10.831940812366172
W 11.98247670830317 8.625560946828664 -5.518954433485989
W 8.468308893024222 11.775287238047776 10.158662104287322
W 8.447935765921086 6.565137334385192 10.691341500031179
W 11.840229875367191 7.8224418432064855 11.519266791239058
W 10.49343388445505 5.724108526179516 11.394865800937113
W 9.705011916031077 9.499608430185448 11.133762374001183
W 10.39288496279207 12.314056759159461 12.114200159609693
W 7.3094130677443925 8.57386145284971 12.041099080750856
W 12.06118871590986 10.414848228179974 11.90435097384814
W 9.670428468256443 7.633293969889793 13.064247125363696
W 7.939968619899634 10.981659431605703 12.549809942170514
W 10.103105762142034 10.212991192730662 13.760566397317895
W 7.9869741538513175 9.075230359604994 14.399739998564659
