5
Energy = -45.70314538 eV
W 9.299102233586023 9.391628460950985 10.80599599266696
W 10.724194847259701 8.218418494463467 9.447547386767102
W 8.54383885139314 8.202379903498137 8.379746637016053
W 7.744255150331725 10.288304476552563 9.381829473693077
W 9.81727548810478 10.074659978212292 8.140237866961085
