5
Energy = -44.49856192 eV
W 8.655991755849731 8.429115346629905 10.444963014946136
W 9.225242064499984 7.358066065887544 8.271463545485316
W 6.9905795597686655 8.14319700655487 8.948332743836543
W 8.531946238911559 10.02187723472906 8.53671140788635
W 9.594463077364129 9.038853503637098 6.790973794180821
