5
Energy = -45.70383553 eV
W 7.398734656313628 6.619052060831948 4.647482053542086
W 6.201911579982439 6.592434560837485 8.073059783397863
W 5.622306990323233 7.657348865062788 5.971453775078579
W 8.122190013545499 6.7084681444938035 6.819407992160176
W 5.793917331737972 5.384198342165587 5.988143621465324
