5
Energy = -42.89410776 eV
W 7.719696368156657 8.695615372551275 10.411659402484963
W 10.308162162446425 8.462042036890846 6.565840414372615
W 8.952227833683684 7.426163388285794 7.712519853012492
W 9.28400490127289 9.539800025761474 8.811905210998551
W 8.348607762403395 10.517727895471964 11.143806900726464
