5
Energy = -45.7059224 eV
W 9.385930969293364 8.872007412511705 9.390015926172733
W 6.8127756913483415 8.367849486567582 8.219081202434754
W 8.569492251346723 9.944821400619563 7.532523339578725
W 8.328523298433197 6.8325063352878015 9.398192081956795
W 8.454664822928112 7.5205049828165 7.024984138804862
