17
Energy = -44.92826569 eV
Cu 10.59911346026288 8.400179814801415 12.331417764747082
Cu 11.185807023530986 8.354073668147551 9.996354824605186
Cu 10.065858105527838 6.4068503829194725 10.865226671927156
Cu 11.6314849148831 10.606655347492628 9.053061602728105
Cu 10.085936001928038 10.433511341421253 11.0719282603419
Cu 8.71276373090742 8.365198695472712 10.757031685085702
Cu 13.173110132501757 8.801725134536818 8.700876604077305
Cu 8.655241176800946 12.398089542849425 11.415411588304504
Cu 7.3203709049502965 12.680337929312447 9.346307195535626
Cu 11.09971908024755 8.358459125195104 7.520853607467334
Cu 7.6889672093022154 10.507281524519405 10.248321620879258
Cu 9.606990107087078 11.98769941542083 9.212695045437115
Cu 9.279240990687931 7.149200186692907 8.67288888977211
Cu 9.457258298333546 9.655832116982815 8.667271323854228
Cu 8.676459045601588 8.56639268669268 6.712015976206963
Cu 7.260095472397247 8.575612470221458 8.756378496988383
Cu 7.606731875976417 10.825755237424081 7.75480648496216
