12
Energy = -30.11656278 eV
Cu 8.697351136155117 11.165935053194746 9.319812634283014
Cu 8.697351136155117 8.606989946805255 9.319812634283014
Cu 8.498101179440738 9.8864625 11.308643709001998
Cu 9.8864625 7.979082752682678 11.53267857510629
Cu 11.075573863844879 8.606989946805255 9.319812634283014
Cu 11.075573863844879 11.165935053194746 9.319812634283014
Cu 11.274823820559257 9.8864625 11.308643709001998
Cu 9.8864625 11.79384224731732 11.53267857510629
Cu 9.8864625 12.218063856378116 7.442232864219849
Cu 9.8864625 9.8864625 13.23164146836731
Cu 9.8864625 9.8864625 7.559547569993559
Cu 9.8864625 7.554861143621884 7.442232864219849
