10
Energy = -24.30558119 eV
Cu 7.694040063207095 10.330892907877011 8.305970245409972
Cu 6.643738164228823 8.245993626753867 8.701460446574188
Cu 6.8198182575249415 9.06608895623012 6.3595783867598294
Cu 8.18029233174852 7.184897445183633 7.237752934841949
Cu 9.979577047956058 9.88202715029956 9.10771568375331
Cu 8.140854306039062 9.166403722167251 10.420640197177502
Cu 8.472785499458688 6.936937607006251 9.670741981505302
Cu 9.241212993545373 9.266005888049708 6.854490184622221
Cu 10.31534821798524 7.655810485573352 8.366888634063038
Cu 10.346013007464238 8.098622100017163 10.808441416134643
