19
Energy = -51.92257224 eV
Cu 9.553778740580766 7.6066099405404755 11.587692436104627
Cu 10.56666223378047 6.464442662723805 9.828604061145018
Cu 11.391325337786249 8.932158961907762 10.387127697823267
Cu 9.53291343839219 6.508985742147954 7.696372221648851
Cu 9.440940053607987 9.986966535827612 11.758937618474333
Cu 8.025535731286443 6.8207208688147976 9.760152180353739
Cu 11.601821245979961 7.735484620829058 8.085684649990588
Cu 7.423329556595695 8.632367606605776 11.445362888286835
Cu 9.416534276172216 8.730704226257952 9.181317990916364
Cu 6.295432323502689 8.645144196330142 9.348164104192255
Cu 10.229904068531459 11.175920564266285 9.865148826123292
Cu 7.834729668027945 10.585193649327877 10.020430962027294
Cu 7.672068736892361 7.969343878781792 7.541144595614182
Cu 5.529945543175213 8.725705569348094 6.934645353791941
Cu 11.370630703184268 10.112982543711029 8.068270472878249
Cu 6.61841604637939 10.591688247578922 7.953915954784684
Cu 9.01565010460983 10.810930199680698 7.778191401257292
Cu 9.852245134642452 8.753857180534133 6.661464264922336
Cu 7.690182401351592 9.763917889299492 5.962624224446334
