19
Energy = -51.90532034 eV
Cu 10.505599 10.508109129442014 13.939574604780821
Cu 11.804830655137255 12.29340749853561 8.431662856799328
Cu 10.505599 10.508109129442014 7.071623395219179
Cu 9.20636734486274 12.29340749853561 12.579535143200674
Cu 9.20636734486274 12.29340749853561 8.431662856799328
Cu 10.505599 12.758953484673262 10.505599
Cu 9.180206708000068 8.683166431247635 10.505599
Cu 11.804830655137255 12.29340749853561 12.579535143200674
Cu 12.640862494123407 11.20046394428587 10.505599
Cu 10.505599 10.50584050024203 9.355496944761475
Cu 11.83099129199993 8.683166431247635 10.505599
Cu 10.505599 8.298033940279861 8.431583614532439
Cu 8.370335505876596 11.20046394428587 10.505599
Cu 10.505599 8.298033940279861 12.57961438546756
Cu 8.40867276094881 9.820642503435439 12.582404487653937
Cu 8.40867276094881 9.820642503435439 8.428793512346065
Cu 12.602525239051193 9.820642503435439 12.582404487653937
Cu 12.602525239051193 9.820642503435439 8.428793512346065
Cu 10.505599 10.50584050024203 11.655701055238374
