14
Energy = -35.38975667 eV
Cu 9.524898450000238 6.30599647748398 7.289710595116508
Cu 9.589534359457728 8.69617850323508 7.751890025089158
Cu 9.45437091182412 10.917544990991374 8.68892902917996
Cu 11.06684760673837 9.298766549546091 9.675276979190238
Cu 10.112524501034763 6.9688670372056025 9.541413380158561
Cu 8.551434985233303 10.638347286723976 6.5004043996026715
Cu 11.9180058441954 9.981184046403252 11.928994997318856
Cu 10.524226177686119 8.0521178068092 11.646328670268785
Cu 7.773225133320758 7.253426228143861 8.537498471631334
Cu 8.962261770529235 12.854346038559385 10.085327334785768
Cu 9.904395955050946 10.862427581543686 11.093134359999803
Cu 8.676743591132901 8.832723366121195 10.15099756920955
Cu 7.542161399694028 10.99998800593449 10.167688154310898
Cu 7.30753170951293 9.590077722376009 8.209321391347089
