14
Energy = -36.27181738 eV
Cu 9.294175373896682 11.335663876165826 7.404863625352662
Cu 6.211500445069394 8.862574730363526 6.601033559674586
Cu 8.611844010203727 8.962181549200492 6.6407850895942495
Cu 9.721850520172907 9.275975942543873 8.75766754082062
Cu 7.343655055008917 10.330318011064158 8.253896381740992
Cu 9.227483228101324 11.332827639507014 9.834179462886905
Cu 9.571643868916551 7.051703892493379 7.853010610292525
Cu 10.194029303990739 9.34813511434134 11.093625217441673
Cu 7.549274020570281 6.740269510251405 6.503079136561422
Cu 11.188544306071568 7.5470866412823305 9.788111120501846
Cu 7.857608012296208 9.42118751056465 10.46314342530019
Cu 7.277438642911699 7.9192882185449776 8.580229594217927
Cu 8.902174558942022 7.207785977315376 10.234686863109054
Cu 7.881540483206422 5.553876865842683 8.692651127437674
