11
Energy = -26.00200262 eV
Cu 10.47553930869212 6.2801259047791 7.121385738596055
Cu 9.578947428083065 8.423684534386977 6.839758040430015
Cu 8.92007003484928 7.072616435000616 8.71319709930578
Cu 8.521439902472286 6.801721626844087 11.096135234553104
Cu 8.574095678362577 10.458942102161968 6.118510841795634
Cu 8.935301066777935 8.99298247645152 10.122231416955648
Cu 9.561070540582275 10.388943499810571 8.275845710291172
Cu 6.827501978532754 7.7776298380153035 9.775475709366951
Cu 7.510749350995693 9.125418303340153 7.9069204516835985
Cu 5.210514366685201 8.693721132963683 8.368894613371234
Cu 10.496017183317665 10.75383083056675 10.383982122208685
