15
Energy = -38.70545514 eV
Cu 10.710336808197205 10.733037640750556 8.906958729794978
Cu 8.247617597768826 10.508183914870255 8.617828427360843
Cu 10.295958280143294 9.384458886821623 12.95971292915694
Cu 6.128451998790778 9.169772141850574 8.463262660144768
Cu 7.203269550392357 9.357910343231879 10.533762903155154
Cu 9.26924790760855 10.661947658177805 10.928234400347883
Cu 8.401812749827291 8.109981361742722 8.714735214134281
Cu 12.97650854845635 9.558065540898907 9.127468603247763
Cu 9.38604199493741 8.247791597436173 10.980800646845612
Cu 11.50884609723427 9.564651421285904 10.964319207961818
Cu 10.854834950296592 8.319361066927723 8.93209818669649
Cu 7.5104017315981055 8.925892356044033 6.5755555929353156
Cu 7.966349114360119 9.623547710774789 12.735314286502764
Cu 12.023397736574099 9.953280023927674 7.000742526633198
Cu 9.75664438083944 9.383859509872021 7.021876420141234
