16
Energy = -41.82859055 eV
Cu 10.31910005276368 11.111630816438396 7.468144271916446
Cu 10.267082932726234 9.991696322894278 9.633513800582325
Cu 8.278664152021236 10.4479559545518 11.137854410166232
Cu 8.08987233762266 10.897520697838232 8.71135224380306
Cu 11.585333180827137 8.982085888911401 7.877285035594896
Cu 10.68647799167209 9.426829933419407 5.650317183768518
Cu 9.066405489036617 9.089710199604323 7.309176148266883
Cu 6.196143330567727 9.763324967278834 9.9821642697429
Cu 10.342270299339347 7.171714871276841 6.6556123417856075
Cu 8.304662268686782 8.584964713875474 9.612476142869783
Cu 6.689986261301377 8.960669452105133 7.752395298133214
Cu 10.30699927160484 7.347505120995183 9.0830306545562
Cu 6.22697248306603 7.288216968017515 9.43889198820087
Cu 7.2381249814982604 8.136287163715624 11.60612577781817
Cu 8.339947093198456 6.250522214031937 10.222626026020267
Cu 8.140005663951573 6.849330855047154 7.826916475700588
