14
Energy = -34.70267811 eV
Cu 9.548864359478028 11.559183886550311 12.758898038843368
Cu 8.933885620595678 11.920201562968995 10.342912281808239
Cu 10.82408 13.00891385625976 11.314689655867529
Cu 10.82408 8.639246143740243 10.333470344132476
Cu 10.82408 9.349389900026573 12.759555021052734
Cu 12.714274379404323 9.727958437031003 11.305247718191762
Cu 12.099295640521976 10.088976113449691 8.889261961156633
Cu 10.82408 12.298770099973428 8.888604978947267
Cu 12.099295640521976 11.559183886550311 12.758898038843368
Cu 12.714274379404323 11.920201562968995 10.342912281808239
Cu 8.933885620595678 9.727958437031003 11.305247718191762
Cu 9.548864359478028 10.088976113449691 8.889261961156633
Cu 10.82408 10.823392166923227 14.610994328647331
Cu 10.82408 10.824767833076777 7.037165671352671
