16
Energy = -41.64060411 eV
Cu 8.353331314934717 8.745022141841307 11.022692763039844
Cu 8.99568617285713 8.428230830335814 7.126184725684219
Cu 8.960645103140315 10.160243170734992 8.989993798700203
Cu 7.385482548266901 10.208750894297433 7.155783519298152
Cu 9.447477869833902 7.488045294066149 9.260544985104092
Cu 10.772850463439578 8.935643386329595 10.734968243839292
Cu 7.197703004299883 8.430212528886473 8.828232360438175
Cu 10.503197759643163 12.251042393077636 12.914043673712163
Cu 9.581552957380849 10.046462597532111 12.59306691225965
Cu 12.437528372415278 10.478859647862267 9.894238358081788
Cu 9.759698044313627 10.617415143698832 6.543956865814659
Cu 10.912665705596385 11.619993906252462 8.372001382030435
Cu 10.262597312640109 11.392152864565698 10.694336879478593
Cu 7.453632086403325 6.627665381183432 10.391235153378613
Cu 11.037052949518168 9.154516445034739 8.260012453321798
Cu 11.960460692595316 10.437305731579306 12.24027028309616
