16
Energy = -41.4537458 eV
Cu 8.165931224576845 11.333950173975778 12.784170092781766
Cu 7.250385053473318 7.533381590460645 8.62595354134087
Cu 9.271923881166321 7.831259026472875 9.843186620666025
Cu 9.326913842682448 11.502557978592879 10.665441019168217
Cu 7.9530034297943715 9.874147082861004 9.297114436601872
Cu 10.509226746814827 10.63246914580366 12.589344010168352
Cu 10.355722108511673 10.39916493385266 8.722054677715905
Cu 12.730014437517836 9.982237276941685 8.918519179888765
Cu 11.238312910533862 8.139912138970162 8.36376635786695
Cu 11.82777636632777 11.406776289679291 10.682432714426739
Cu 8.683270749844292 9.348439346120212 11.566817769515323
Cu 11.13918597431323 9.14112115836409 10.721093243761008
Cu 10.691038746572318 12.729283266586313 9.076214562594885
Cu 9.074984260402783 8.730774391382843 7.424783182487531
Cu 6.821194004477018 9.431579010770488 7.22013067943574
Cu 9.40356916181664 6.425400087990701 7.94143081040574
