19
Energy = -50.20763135 eV
Cu 11.466256061637875 8.592424368959817 7.3450820968844726
Cu 8.975774490842303 12.723981231443167 8.535113439340366
Cu 7.838113161008896 10.50883589206409 8.5725048865165
Cu 11.199297661549538 12.155786142258023 9.383087524152941
Cu 11.548822212288137 9.810740411629578 9.321915459318008
Cu 12.837734786908019 7.809245747068923 9.40246964271531
Cu 9.055845838783782 11.361737769722879 10.570291317481887
Cu 9.971362999773017 12.213254720290015 12.69615598207699
Cu 9.435128165807422 9.661758392599051 12.329018981007025
Cu 11.458399054178182 10.791968016035757 11.474110435561142
Cu 10.506435666561122 7.208953673198065 9.13198943624537
Cu 11.134907872021067 8.316145150237183 11.24341901909134
Cu 9.844892202553543 13.622523676258497 10.677899442799182
Cu 9.049893474587273 8.60701841431043 7.686498852191938
Cu 10.092653939891937 10.789466647145638 7.620338623702198
Cu 7.0790249139795165 9.971268394757086 10.86228682354792
Cu 8.988954912367987 8.820642231106843 10.074024590014258
Cu 11.896375339772966 6.090625648636081 10.787626854020713
Cu 7.755264051526474 11.262186748492685 12.756250200254796
