12
Energy = -30.25245164 eV
Cu 10.190584263033744 8.11343148213195 6.818105649629572
Cu 10.252182071725889 7.244566351580482 9.056892821358796
Cu 7.186926965621212 10.182258777631343 8.411627875107579
Cu 9.658066207489764 9.645877652599442 8.931349347764613
Cu 8.930372642815186 10.216303686921105 6.754013621793724
Cu 8.79592379456742 11.908155969272974 8.579283853298396
Cu 8.146901186253258 6.256564482132716 9.618575766937782
Cu 6.887194326007756 8.39103483952415 9.94945771678721
Cu 9.277376275898337 5.863260905771716 7.401072026015301
Cu 9.07257586128542 8.259059914891216 10.858616133749623
Cu 8.07268295695485 7.939213477839576 7.857839846795425
Cu 8.099561843339886 10.53922317541283 10.584780580183534
