19
Energy = -51.01098525 eV
Cu 12.330927667590526 8.246753893794779 8.19072930119097
Cu 11.77127398592992 7.006766701421262 10.314997098439996
Cu 9.639453131989413 5.719141072955194 10.307113531259564
Cu 10.385022661882447 9.670525380189943 7.484810498743816
Cu 10.130433782393618 7.380089872418944 8.605830960254064
Cu 12.438278851196374 10.666299191485294 8.267928004885187
Cu 11.20440037519094 9.402933257118217 9.995029898295902
Cu 8.3280477509942 8.082127181115895 7.171312984635571
Cu 9.609271734315149 7.972633888769559 11.100040402637779
Cu 7.827780103445763 7.067416383788913 9.382708348789107
Cu 10.643142543142215 11.649323357249461 9.505093779167076
Cu 8.661367682524054 9.41260626640905 9.183304207962058
Cu 6.415163517084597 8.990255704894945 8.453215302304596
Cu 7.338080446769033 8.632682527936547 11.209105941755618
Cu 8.068095824014327 10.459219085342886 6.987010079191696
Cu 9.183528897241928 10.527298828106105 11.155370798384727
Cu 6.775694071861885 10.749979512547911 10.321835098415974
Cu 8.363962243728434 11.902159117428067 8.988358922339074
Cu 6.143633957162627 11.420899524837933 8.080003802249152
