19
Energy = -50.84782062 eV
Cu 12.188417965419601 11.766442936931968 9.650162078885302
Cu 10.263846840890146 11.424504463456206 8.223623271343802
Cu 10.178325274920967 13.083083465313305 10.053633764851265
Cu 11.794913310606697 9.430081648169033 9.18643126403574
Cu 10.190759625987814 11.019322211666667 11.270117011344157
Cu 10.333126403748073 9.164278753411683 7.201148251790644
Cu 6.925648810220282 9.317447785393032 9.48027523562806
Cu 10.461693581297038 7.305612006269006 9.009055119576079
Cu 8.081703077785985 10.447720171137611 7.568906930144412
Cu 12.402208661427647 10.148119582153113 11.489013436935952
Cu 6.503705524450159 6.8880681858049275 9.008360451214102
Cu 8.585374264843617 5.723635898732496 8.694293146920499
Cu 9.364169313903872 9.496758679814535 9.400640865129269
Cu 8.302529521340876 7.945369026292184 7.802622616441426
Cu 11.87098631777167 12.654747034627524 11.818334566941946
Cu 10.566968518268386 8.520041090178301 11.244165056884592
Cu 8.415847650164581 7.44602269633851 10.417855720073355
Cu 8.198698084850777 11.567083466174822 9.775817383044688
Cu 8.263702866564877 9.62884167966217 11.561988562770056
