10
Energy = -23.34180902 eV
Cu 8.510403951884063 11.871841543677052 9.096642430575097
Cu 8.125643253286261 9.80274096547937 10.20136244026302
Cu 8.182977877326051 9.912782079076289 7.7755330365258235
Cu 7.724842765453095 7.782997028832608 11.413398982911671
Cu 7.633030885188629 7.781083474661779 8.900622915622726
Cu 7.798583011814192 7.985682500225184 6.430290485542073
Cu 10.286143119984485 10.119714412562638 9.0110681461569
Cu 9.738314748341425 7.979467768730895 10.1530698687188
Cu 9.79189262242108 8.100806669952117 7.72354521149007
Cu 11.814108112277902 8.134522979861867 8.998222340413456
