11
Energy = -27.12047798 eV
Cu 8.094826566762624 8.116581224838887 10.507321655725972
Cu 7.280848496825765 10.055853069604217 9.324194208894864
Cu 9.424813377442321 10.718488888865199 8.322670287603763
Cu 9.434066384071999 10.092470254404198 10.644041539200446
Cu 8.497949174076966 8.500629231791416 7.928928334267331
Cu 10.812458796012466 8.934898654671716 7.390367914837574
Cu 11.557977299101523 10.088647952858448 9.387333909717102
Cu 10.52386096329317 12.155345032618282 9.919641593823636
Cu 8.423106600736148 6.3331350809248095 8.929229930790642
Cu 10.286718006188586 7.985759489701691 9.550449545608071
Cu 6.402144335488173 7.756961078973317 8.834591161025866
