10
Energy = -24.12227586 eV
Cu 9.3374340098325 11.710130666404742 9.197086126391035
Cu 10.454084144534576 10.751225158077707 7.310688499764529
Cu 8.147228054417267 10.22289747038784 7.738825111466059
Cu 10.566855121411885 9.657594701638288 9.447442760650933
Cu 8.214837191203445 9.531359181008227 10.079268570891305
Cu 7.237585864872241 8.143192658836917 8.34583532144934
Cu 7.3657791595745135 7.066192626329896 10.496474745068342
Cu 9.664526871055575 7.5706157563176655 10.038688007888469
Cu 9.577751143896416 8.26853197454174 7.7164062722351225
Cu 8.427293554723835 6.07163492197865 8.622659699717133
