15
Energy = -38.17807228 eV
Cu 9.833413862117418 8.353846023130096 6.273072300873426
Cu 7.923854494808751 7.76520573427608 4.806470078614799
Cu 9.960029757118805 6.4184696883831736 4.855518442521137
Cu 7.602119038867762 8.941528380954871 6.833361717758034
Cu 7.860677694511013 5.570614862359854 5.745064629908772
Cu 9.753804397468054 6.162714231105442 7.225776689239861
Cu 5.949073534059574 7.191504871751733 6.359130158328713
Cu 5.477109697252549 9.151895967501845 7.912368280848688
Cu 5.385807912685118 6.9724770572878025 8.840685675575937
Cu 7.51139573275725 6.263865630426409 7.986580479160293
Cu 9.055670145461807 8.116318960244705 8.704292396345197
Cu 7.5416290815185905 10.127384714550894 8.910386684807506
Cu 7.453301131660951 6.927842762645208 10.275033783332894
Cu 6.0754459113389165 8.835886435113206 10.244643108641622
Cu 8.469453414922182 9.053230486817421 10.880401380591865
