10
Energy = -24.02278579 eV
Cu 6.485022165374609 5.689676206037876 5.873851420204256
Cu 7.752589863522761 7.340917060558566 4.60153319790128
Cu 5.23679700396953 7.43899493043723 5.004519893321332
Cu 8.795512318129003 5.482076258002934 5.983277540149178
Cu 6.645915647252083 8.612848154279042 6.448772415648656
Cu 8.674648654883544 7.622998189044012 6.954616532863658
Cu 5.2913619320336895 6.884427397133011 7.574136143481332
Cu 7.416783578510564 5.756822580071488 8.087813256906584
Cu 7.079561109031072 8.049460960261495 8.781539229851072
Cu 5.849243242890698 6.349213779771898 9.917375885270195
