13
Energy = -32.84895789 eV
Cu 9.973716 11.554752206657037 11.71317694189983
Cu 11.222804368570486 11.18446715715535 9.669090291946155
Cu 11.76999071533111 9.973716 11.805785003293648
Cu 7.911132591889422 9.973716 7.646053687398134
Cu 8.177441284668886 9.973716 11.805785003293648
Cu 8.724627631429517 8.762964842844651 9.669090291946155
Cu 9.973716 8.760764474767292 7.571023046949604
Cu 12.036299408110576 9.973716 7.646053687398134
Cu 9.973716 8.392679793342964 11.71317694189983
Cu 11.222804368570486 8.762964842844651 9.669090291946155
Cu 8.724627631429517 11.18446715715535 9.669090291946155
Cu 9.973716 11.186667525232705 7.571023046949604
Cu 9.973716 9.973716 13.509869345282151
