13
Energy = -33.04410624 eV
Cu 9.8430695 12.26594721562962 12.30285363203334
Cu 8.608790574870323 8.640059691233501 10.666553380019954
Cu 8.608790574870323 11.046079308766501 10.666553380019954
Cu 8.654088734633316 9.8430695 8.53982222535578
Cu 9.8430695 12.07301670296596 8.865654309495552
Cu 11.077348425129676 11.046079308766501 10.666553380019954
Cu 11.077348425129676 8.640059691233501 10.666553380019954
Cu 11.032050265366689 9.8430695 8.53982222535578
Cu 9.8430695 9.8430695 12.438842514802491
Cu 9.8430695 7.420191784370381 12.30285363203334
Cu 9.8430695 8.657577494226652 6.7190935017488975
Cu 9.8430695 7.613122297034036 8.865654309495552
Cu 9.8430695 11.028561505773348 6.7190935017488975
