12
Energy = -29.18263738 eV
Cu 10.21311787760333 9.490774857965368 7.726443018010347
Cu 8.874663765722387 7.477895976068022 7.855870322577227
Cu 10.901751900103598 10.926609088891642 9.493730887111122
Cu 8.562929924265068 10.595856878363177 9.103678743339723
Cu 10.101108555037758 7.0722480213938725 11.724270021541653
Cu 6.804911241770564 6.279018088439984 8.458151617584775
Cu 6.313720900237076 10.741325718968085 8.27346116353598
Cu 9.511496247226797 8.437127943292415 5.683978920380809
Cu 8.42813537832479 6.705531687462802 10.137066007037822
Cu 7.206292043679652 8.59778844075393 9.145826663698674
Cu 9.769154509327858 8.687734626840767 9.986767618510793
Cu 7.863136879088858 9.532356435243331 6.972496521644018
