11
Energy = -26.45326834 eV
Cu 7.70684973081565 9.511388943115222 6.492179166104022
Cu 8.83954145617591 9.966280938729659 8.632463159331607
Cu 10.102653245918427 9.305718761964764 6.699746154878584
Cu 5.444441725836923 8.961366020326578 6.390142396617739
Cu 8.630320025589713 7.596139481776343 7.718851133585142
Cu 10.621878430337052 8.228890468607355 8.930658773071347
Cu 9.508145488330904 6.148256373659815 9.396976158921786
Cu 10.14370610164988 9.77359874390824 10.681072038236094
Cu 6.601077189142311 8.680080293414756 8.477871404113646
Cu 8.38058606327585 8.205654510591168 10.154065449797244
Cu 7.071403513307566 6.390702504892445 9.348013232848748
