12
Energy = -27.69017226 eV
Cu 10.048069145542694 8.35092753 10.048069145542694
Cu 10.048069145542694 10.048069145542694 8.35092753
Cu 8.35092753 10.048069145542694 6.653785914457305
Cu 6.653785914457305 8.35092753 6.653785914457305
Cu 8.35092753 6.653785914457305 10.048069145542694
Cu 6.653785914457305 6.653785914457305 8.35092753
Cu 6.653785914457305 10.048069145542694 8.35092753
Cu 8.35092753 10.048069145542694 10.048069145542694
Cu 6.653785914457305 8.35092753 10.048069145542694
Cu 8.35092753 6.653785914457305 6.653785914457305
Cu 10.048069145542694 6.653785914457305 8.35092753
Cu 10.048069145542694 8.35092753 6.653785914457305
