19
Energy = -51.40666507 eV
Cu 11.637744047483979 11.364893676904964 9.45746215030096
Cu 10.653004824744967 10.178341556301591 11.362307274435338
Cu 11.66942346778697 8.924919726171465 9.54171109313648
Cu 9.52656873069755 10.22555147754964 9.154478122389138
Cu 9.204299932258554 11.384915165429792 7.070304531451013
Cu 7.459059444217551 11.660929298553112 8.772918618719713
Cu 11.288561023970432 10.0380242927972 7.41383055809748
Cu 8.5646200969404 11.518857891820357 10.951508648727703
Cu 8.486247846147648 9.465500601348882 12.195180171818052
Cu 7.246341191022352 9.60760143922867 10.074757537531214
Cu 7.285138538252551 7.539183957833478 11.367489196397388
Cu 7.6434106866351295 9.527551663006648 7.60140242581394
Cu 9.581570756691068 8.062119166831922 10.511229001854105
Cu 9.974502228889735 7.993366721762264 8.023283229624477
Cu 9.47276659440867 9.25530033957206 5.984719420817081
Cu 7.652913708380505 7.467360808940794 8.954774882018631
Cu 8.74147535044918 5.8244155496011345 10.407969137240647
Cu 8.053222957095912 7.372562287018425 6.537081652242784
Cu 9.10891783121026 5.757312977662983 8.035359828557551
