10
Energy = -22.47050383 eV
Cu 6.7643690298066765 8.066635126026476 9.717605156912594
Cu 8.69125761 6.663672637289617 9.717355575798354
Cu 10.618146190193318 8.066635126026476 9.717605156912594
Cu 9.88330708436409 10.33352968707804 9.717829615647585
Cu 7.499208135635906 10.33352968707804 9.717829615647585
Cu 6.7643690298066765 9.31588009397352 7.664910063087404
Cu 7.499208135635906 7.048985532921956 7.664685604352412
Cu 9.88330708436409 7.048985532921956 7.664685604352412
Cu 10.618146190193318 9.31588009397352 7.664910063087404
Cu 8.69125761 10.71884258271038 7.665159644201642
