10
Energy = -23.46534923 eV
Cu 9.67392666179011 7.490041157721749 7.977970505461722
Cu 8.167280428221693 7.390952029666856 9.803932018719888
Cu 7.711109799257164 5.90408631706145 7.858587073265674
Cu 9.213625533455426 6.268332291863613 5.989928364330436
Cu 9.110455256421861 8.852767174788298 6.109121740392395
Cu 7.1158970884026616 7.478664162614688 6.147259393788958
Cu 5.290173599015851 6.1146713611910615 6.913537842664947
Cu 7.605614002868434 8.986073450396816 7.976485036868049
Cu 6.022645052268064 7.362285550346005 8.777318605814237
Cu 5.2090010678220535 8.677568938794721 7.000307936636439
