18
Energy = -48.12750659 eV
Cu 9.929053798619861 11.041423376351531 10.479546402122045
Cu 7.118371482915364 8.762029220412337 8.399398015231787
Cu 7.858655478158927 12.074054288698116 9.93139589607212
Cu 12.100420582260245 10.337248731073014 11.047620777287406
Cu 10.012386738690788 8.973942197380971 11.681522051284754
Cu 8.100520215521705 7.555232095203339 11.863623159996722
Cu 10.613945280579205 6.589877936751684 8.495941252874559
Cu 9.824760288123056 12.001760428009858 8.284174582064601
Cu 11.666107778036514 12.565744052146984 9.889252423483887
Cu 11.761125260568306 10.563696319187958 8.59529003872596
Cu 7.85998437515146 9.703379347323166 10.578151539247196
Cu 8.823250462482344 7.665891712368026 9.610784155884907
Cu 5.946791868953752 10.640878150932208 9.424119003535912
Cu 11.343204475040077 8.444530382812246 9.764818692660429
Cu 11.762317894525907 8.479134966446566 7.402593358986444
Cu 9.590149211868711 9.405730344774256 8.054331348404446
Cu 10.346058420143489 6.612392201475535 11.078062769415132
Cu 7.7287910903695956 10.96894895066138 7.805269234730332
