18
Energy = -47.39314777 eV
Cu 11.735797241042748 8.008164324356656 6.281572733295509
Cu 7.753414526440696 9.534541808296872 11.382410881976089
Cu 8.325557610243632 9.498666264367841 8.981624906274153
Cu 8.691548172991109 11.515917897251718 10.402407613511238
Cu 10.528043845411958 10.78740151410988 8.888266337005367
Cu 14.20138564338881 9.891844005499596 10.929374691231427
Cu 12.28479630583747 9.946643470513276 7.488132684827923
Cu 11.973202430947277 10.302427357999496 11.652148974092567
Cu 9.3053912796562 13.168941740522955 12.117053491018277
Cu 12.866778534163883 11.266077238049782 9.471261201961514
Cu 9.273721273001371 12.246939288093357 14.325921898128803
Cu 11.002509621330592 12.343213222948343 10.656974441073446
Cu 10.048387717293688 9.110525812056169 10.63335089480958
Cu 9.71779527400945 10.626466629960918 12.547456591518738
Cu 11.418419973323255 12.233957140115523 13.101358340480305
Cu 7.544695644378324 11.620333851778739 12.635738363401307
Cu 12.332468901915163 8.8844264848022 9.719579297632848
Cu 10.433706505206198 8.451132449858498 8.222987158343326
