18
Energy = -48.53736841 eV
Cu 9.374328326959306 11.786291066285134 8.622596722983689
Cu 11.990147636545272 8.571561213267092 7.708389917958235
Cu 11.18407865588544 12.778931035147634 10.03410457398083
Cu 9.780541606853355 9.446361217254175 8.097227340300737
Cu 11.675417769105424 10.850644541933773 8.581354163032485
Cu 10.966684105663004 6.69585917300089 11.12591987889201
Cu 9.468364386346217 8.527657267900754 11.040482239036582
Cu 7.526902663397197 10.295655543183376 7.846339723338817
Cu 11.721772875974747 8.848511166689077 10.070263255537824
Cu 12.783448729641433 10.992828461250447 10.727934248221073
Cu 10.383439534313487 10.73763470468281 10.86725849289121
Cu 7.095803911610689 8.204127958869254 11.231644661953272
Cu 7.932070227169113 8.130099172928134 8.95238988536315
Cu 8.592076418877983 6.373680930991776 10.545592123140421
Cu 10.25028186185263 7.211859214368633 8.87146135590078
Cu 8.039745962264325 10.301206654607832 10.218864273196148
Cu 8.814015337062616 12.612399991035575 10.836582900442577
Cu 7.018325531597512 12.232136227723517 9.219039784950313
