11
Energy = -26.45477366 eV
Cu 8.120930778109852 8.262157934967778 8.410229245091141
Cu 9.164235849945653 8.393379391409642 10.589085154781289
Cu 10.611891045039373 8.10453298755784 8.544608493488951
Cu 9.233966023799905 6.326631607662462 9.349479959946795
Cu 12.04925539466159 9.894851850215824 7.756861274840921
Cu 7.262364675617564 10.268084823360633 7.349791347593603
Cu 9.631440000483318 10.094834964496268 7.572126504417375
Cu 8.168243778732979 10.364362021908759 9.60071628775546
Cu 10.678279612744575 10.208844008154788 9.747374782990034
Cu 9.36153346166687 10.53449493651135 11.703958055789398
Cu 6.746490290497841 8.576456385054051 10.404399893304904
