13
Energy = -33.32580087 eV
Cu 9.591187457880284 7.573132651369301 9.056936851931715
Cu 7.684591476937015 10.823577366189227 7.138012356568314
Cu 5.7220638964675 9.338858594821678 6.756931908063505
Cu 9.67180203801535 9.366337831403632 7.401830297703992
Cu 9.007714928911284 6.944353389430313 6.847966148124427
Cu 7.904037580929055 8.827666083022251 5.815473373536546
Cu 7.451829524615071 6.298631843807469 8.8099812645068
Cu 5.485707901453332 5.195051797402492 7.843232940496561
Cu 5.314140759130798 7.55664039406372 8.384067775911154
Cu 9.630684387452886 5.208607595364978 8.448343179841077
Cu 7.508837400849763 8.679108867570095 8.264002058009622
Cu 6.548817964591676 6.922273839983145 6.4600356333560915
Cu 7.731815775152654 4.799805998769463 6.987401314891708
