10
Energy = -24.13061944 eV
Cu 8.869374616699883 10.224049832549653 5.7779978348745304
Cu 8.381312567603866 7.967988978789639 6.459184547584058
Cu 7.658876603841548 9.855950846362697 7.812587706465076
Cu 7.716970303954599 5.797829782378838 7.156260537973772
Cu 9.984420395702205 9.198680209039745 7.7932856114900275
Cu 9.395974090881746 6.9153883552202755 8.501146879596607
Cu 7.017486171150615 7.543686989969423 8.581700659732707
Cu 8.720376189172253 8.740841968367576 9.856885571488062
Cu 6.414078110868882 9.494794192248857 9.792366470985083
Cu 8.03997388428408 6.459631779232441 10.46742711396962
