18
Energy = -48.44415573 eV
Cu 5.96419224045389 8.585971851025281 9.596844372827213
Cu 6.8539156721737715 10.855635089141884 10.414560633846934
Cu 8.969496485058057 10.40724258731524 11.825225374510092
Cu 7.453288268867074 6.741998568456065 10.531430385831914
Cu 9.096291623670082 11.144143904148681 9.435842840036647
Cu 9.29674959543477 7.866300132747712 11.937569285342445
Cu 8.237559159248962 8.95034080596058 10.130767688302598
Cu 7.707995216716353 7.5352898019384345 8.151972691036057
Cu 7.304153535597136 9.978541593387787 8.086319873686795
Cu 9.685919723445878 7.044523714865285 9.591250925294707
Cu 10.686586341967518 9.248526452618 10.413249515668243
Cu 10.025190880795572 9.258504894242275 8.035714599534067
Cu 8.44606273113822 8.824213664129212 6.2172224155348825
Cu 8.9725951406883 11.150386809252902 6.856929652864118
Cu 9.84439504944427 6.982852574314852 7.124298365708753
Cu 10.987490560458724 11.592036004505443 8.066721137698849
Cu 11.748495673427659 7.578401495741704 8.581823736547058
Cu 12.376975522805758 9.850163390029454 8.82170668203739
