13
Energy = -30.56296226 eV
Cu 11.941574382215205 11.398098137431605 9.620717953064755
Cu 11.832371807830487 10.242853121351871 11.715790495168612
Cu 11.664037603700072 11.516208151088394 13.745939685227437
Cu 11.943585132774052 13.798951665157412 9.559925089135747
Cu 11.820400713840817 12.668170420555045 11.659230470012663
Cu 11.655902933126875 13.95755281837418 13.66103075844812
Cu 11.659783402865546 16.311035252255635 13.622207878134319
Cu 11.825553823003418 15.150200681105261 11.57531902978954
Cu 11.989839262714657 16.14747351074954 9.472861371803921
Cu 11.905977541242102 8.95827552603311 9.707390839376549
Cu 11.892482140525853 7.8332322711281 11.793921215838713
Cu 11.889211141036826 6.738959247611454 13.853676539498744
Cu 11.810276005694911 9.109984697158739 13.842984174500714
