12
Energy = -29.83101943 eV
Cu 9.434040698985173 8.598908633438036 10.809703825839652
Cu 7.873331955808484 6.797125125350016 10.427732537125653
Cu 8.022231066529065 8.997920574862233 8.95580107414969
Cu 9.562047452811235 6.953521211122845 8.8531282792784
Cu 8.048327131084905 5.065754646516644 8.762903401458953
Cu 7.157723753158601 9.357650201873392 6.763530757786671
Cu 7.308896233769973 11.270563327652274 8.314152560152225
Cu 7.348913361612393 7.030411565254827 7.623222339545544
Cu 9.304928940524832 8.26167459920184 6.81348732514983
Cu 9.244482549833647 10.926399044596504 9.826870052087134
Cu 10.54526577641208 9.215504424420066 8.718094764248969
Cu 9.279050430473385 10.65380599671454 7.2606124341809
