13
Energy = -32.8735803 eV
Cu 9.812446998559595 11.283698112441618 8.077913478243968
Cu 8.116059414686507 10.20375151707858 11.792304899246762
Cu 11.77985930897425 9.974194635120302 8.713920870713206
Cu 9.510186731036642 8.195263801912759 11.432588013294513
Cu 8.5343777278042 7.7112702191979 7.479354187922739
Cu 8.03779958050942 8.877795148220287 9.613078022284347
Cu 10.259598879762718 9.266026313545636 6.911562710592001
Cu 11.803837535320637 8.988010530429959 11.020230692829829
Cu 10.316006041709878 8.132236763740933 9.12949965941115
Cu 7.907607407706045 10.027025318285167 7.419099202542561
Cu 10.36787211132991 9.966526866857464 12.780400344783937
Cu 7.853544468383471 11.261300047702706 9.548097109958784
Cu 10.026271294216455 10.438368161573464 10.40741843596243
