10
Energy = -24.20338973 eV
Cu 9.795697438659968 5.711800491056129 9.567335012184312
Cu 10.34591958486207 8.073990265320031 9.276593412581557
Cu 8.624592418360793 7.155653448997768 7.939570799929082
Cu 10.72336287889758 10.457088943266656 9.118371381461316
Cu 9.291198790804188 9.433960377697874 7.501912561636805
Cu 8.234845255113335 7.369675932414732 10.326011555956585
Cu 8.920386792575158 9.673476160016541 10.560075872384456
Cu 7.271947435600107 10.662655282726615 6.9859010503679055
Cu 8.461634145377083 11.365949508588688 8.872021230932896
Cu 7.332667082185431 9.09800141235066 8.854458945000477
