12
Energy = -29.95412875 eV
Cu 7.269903103343337 8.440264017353869 7.300495128861429
Cu 5.914547396660485 9.521341624146986 8.856842427359622
Cu 8.160252036195082 10.489386719006365 8.618186610007529
Cu 9.542204989321593 8.623139008890588 7.847660895515929
Cu 6.834944580966614 10.14474646690638 10.899285315679393
Cu 7.9783348504087295 8.300506874942291 9.703642179968497
Cu 10.733699040194072 10.446051929049826 8.917024144291634
Cu 10.565284816099549 8.29113573981502 10.079975085281417
Cu 11.843496728691726 8.202760559771061 7.961016767858461
Cu 9.181382739413017 10.179467627252656 10.795673430642356
Cu 11.45342257897653 10.21859274926091 11.391913153311725
Cu 12.823950156946959 9.420529139137171 9.685928107972499
