19
Energy = -51.55019256 eV
Cu 9.841524909464125 7.626918339593303 12.083106192619384
Cu 7.724466514231629 7.562394989423152 10.808967622139996
Cu 11.353345690186803 9.511025781422724 11.53385912993164
Cu 9.586894235196983 6.216424566234657 9.976171425364747
Cu 9.778846141716139 8.59444179172302 9.81474565716745
Cu 8.739389448248275 9.815430354026157 11.648208352024659
Cu 11.739006539876021 7.36978843415708 10.421301968400295
Cu 10.875899066978219 7.242095487649766 8.066618571099575
Cu 8.308981606411946 7.47360112690809 8.214595902473658
Cu 11.908313596653501 9.42696521728185 8.966172265221957
Cu 7.543047717403936 9.512306117790946 9.447130399958398
Cu 10.248950423281666 10.98978605560896 10.02437016827378
Cu 9.894651675296977 9.314085090649758 7.354162957589807
Cu 7.462713632480212 9.428751667934712 7.036367769581574
Cu 11.096578837735287 11.406115699482555 7.804772041969516
Cu 7.94445253441494 11.776770424366886 10.261753588222891
Cu 6.262121191904705 11.174569669933499 8.44516295988877
Cu 8.661494463737794 11.330789689128746 7.976569726418094
Cu 9.823100367057544 13.115845896008647 9.178801136530218
