16
Energy = -41.45654967 eV
Cu 8.293674103388952 6.700880113592545 7.8278448114624775
Cu 11.613356224152763 9.515320319040681 12.039577871609838
Cu 9.98587447318019 8.355403255367166 7.726696842075367
Cu 10.995439613112149 8.659770062889322 9.909116110169945
Cu 9.813076783876632 7.645062347625048 11.766839135197491
Cu 12.916655770398888 12.039320909636391 8.954676159891543
Cu 6.516590335428336 12.178881271440762 11.221575619462783
Cu 7.160950177275465 10.314975488033673 9.91129720120983
Cu 7.513630503649159 8.997934256559809 7.883215504655172
Cu 8.776460663522135 12.14476595305076 10.59307887637273
Cu 11.076917122503488 11.321929535954025 10.363209216405226
Cu 9.316857358362101 10.431614528823209 8.836310016087266
Cu 8.525532989788486 8.115616089426299 9.806685479613032
Cu 11.661794528934317 10.163787041912801 8.153644417075382
Cu 13.079408061193522 9.97860624311703 10.187986698303426
Cu 9.254778980301543 9.937130272598326 11.319243729476897
