14
Energy = -35.35201569 eV
Cu 7.749165845918245 8.534512220192301 11.52391394407018
Cu 7.488013455297344 10.062621294720511 9.71268231004108
Cu 11.567060838575808 9.25436395468623 9.168726538271072
Cu 9.410615417189423 8.277436772252177 9.73002339601915
Cu 8.453250949135882 6.337770299339878 10.955132231268598
Cu 9.73689238818676 10.884219706293253 9.583215598423267
Cu 8.104574543199915 11.382587601442657 7.783606989524138
Cu 8.893760421086787 5.975397186167748 8.6600353827131
Cu 7.12165820072563 7.619455229657745 9.26689618670953
Cu 6.668788090003519 9.374862897587695 7.586032509692505
Cu 8.37345751644663 7.731349013645911 7.086920456228109
Cu 10.711746701881145 7.364323925452345 7.882596358606485
Cu 9.799007887858412 9.638490238581516 7.559659399519528
Cu 8.224171378262175 9.884866050734672 5.80616165015293
