19
Energy = -51.54193749 eV
Cu 10.628152490939433 7.5296914433521485 9.679060741819358
Cu 11.736516913056537 8.498722763465741 7.6974458695585035
Cu 8.323631982262878 6.673603576469814 9.354421805414084
Cu 9.311321165754071 8.254825347579514 7.737290827104547
Cu 12.326062636213933 9.301143485844769 9.830863614617252
Cu 10.61901451356406 9.218402153300907 11.485662467861717
Cu 8.062438993440189 10.21684326169585 6.93917043680893
Cu 10.430909947361664 10.124565270345418 6.486124557020766
Cu 9.219354963853158 7.179522373000721 11.65641961097026
Cu 12.07386939210936 10.947411301870865 8.11727195517961
Cu 8.552309923104774 9.42906575347124 12.633254319630954
Cu 6.943781978210472 8.456501979836514 8.305696430603367
Cu 8.407048572933672 8.894673472772467 10.216151393683672
Cu 9.769193314048756 10.570735238571139 8.751724648328253
Cu 11.29634984905426 11.403791613642705 10.485766418293649
Cu 5.7113967611595005 10.347515307019513 7.449391323763272
Cu 8.871513226834931 11.18723361639671 10.949605996120681
Cu 10.343844209246221 11.223905702712294 12.793756935452276
Cu 7.294531074546429 10.787144291057281 9.174613808338655
