14
Energy = -35.44537152 eV
Cu 8.648045016709403 6.2494255378631856 4.526025279602705
Cu 6.9139782954061095 7.539310552705183 5.524898979320921
Cu 9.14913745786586 8.13696531449951 5.975103723872467
Cu 7.839527829858828 9.610674133166407 4.643591411096365
Cu 8.457398043955058 5.982602703449208 6.921863879939453
Cu 7.183851554245968 9.50461417718366 6.9753991172942
Cu 6.518459644062098 7.006068985257329 7.83438940265237
Cu 8.036101740898633 10.527742953110787 9.129830906889318
Cu 8.737780509901919 8.327332258770081 8.330609468588268
Cu 6.955698303528072 4.691584649586038 8.46897753734572
Cu 8.538592595592425 6.205282551425807 9.37064075540935
Cu 6.285436098773481 8.936226381870835 9.191263887191983
Cu 8.079915669912127 8.342274759012712 10.619999568052066
Cu 6.3490047107866046 6.63282251359671 10.180333554242122
