12
Energy = -28.25602505 eV
Cu 10.454881757273874 9.357881553396675 7.952681736335552
Cu 10.381817491579044 9.336755415424518 10.342887321977495
Cu 10.332449894744066 9.279076043758614 12.69940173576668
Cu 10.489439471064081 11.432214426759842 6.864239811912303
Cu 10.402234523967776 11.456951274251695 9.226870088582782
Cu 10.363056221253583 11.422820893435201 11.657895115052288
Cu 10.294451472430843 13.496393734954506 12.815376099875744
Cu 10.378227017939489 13.537798450499066 10.493651050506644
Cu 10.447740489699088 13.551934626766766 8.12336115613134
Cu 10.389630046632131 7.262954696161533 9.101349640020398
Cu 10.36519255093626 7.21422798332717 11.46933634932698
Cu 10.273551062479614 7.223663031455079 13.825621634131458
