12
Energy = -30.45295328 eV
Cu 10.875974882518484 10.293865281456162 9.799395
Cu 10.642214654703837 7.869172585660309 9.799395
Cu 9.961768638055403 9.122891994470844 11.776774918925298
Cu 8.822500073300368 11.180639884490612 10.997170443691893
Cu 8.822500073300368 11.180639884490612 8.601619556308107
Cu 8.44391354022031 9.081744831951953 9.799395
Cu 8.806158944665345 7.037577538626186 8.53563673573019
Cu 9.961768638055403 9.122891994470844 7.822015081074705
Cu 8.806158944665345 7.037577538626186 11.063153264269811
Cu 11.012727015696544 11.497486014571813 7.726854094785234
Cu 10.42432745127116 12.670766564463715 9.799395
Cu 11.012727015696544 11.497486014571813 11.871935905214764
