15
Energy = -38.88268824 eV
Cu 8.744536446415387 9.508439812799509 7.174323822897213
Cu 10.684613857173927 7.918340456325986 9.696447587528489
Cu 9.895200024433457 11.503328031373211 7.969450258365118
Cu 11.101657985034613 9.373465757288196 7.689281800800199
Cu 12.803058889449051 8.97333018289166 9.411800805562764
Cu 9.827565350690083 7.341786936829565 7.518018202326025
Cu 10.913815946385581 10.475288212931746 9.891198603962131
Cu 9.498358090808047 12.43299707813976 10.28014399871488
Cu 8.3402668036204 8.19451642102914 9.22182012381767
Cu 9.235992969923956 9.13906095730835 11.332630844565884
Cu 8.182277441053195 10.618792862067705 9.388163550474603
Cu 6.8607415297323895 9.294513529954655 10.896537375169697
Cu 11.712054852708228 9.087078901313484 11.658815428360944
Cu 7.996364136627843 11.233148284727513 11.777895148782388
Cu 10.358589095235342 11.05059563868679 12.251541353665386
