16
Energy = -41.76766324 eV
Cu 8.033072601230849 10.910453986615758 7.521906800635138
Cu 6.7282361842932135 9.06245273463167 8.670028147599504
Cu 10.146369729127318 9.896264706015465 6.5743771126693895
Cu 11.537126446520775 9.01204068943891 8.453168402616333
Cu 9.133327975878656 9.051694775165894 8.595135455540241
Cu 7.999198137716401 10.75223695648621 10.035564461739972
Cu 10.979396065690773 10.24940774407772 12.753229557759079
Cu 10.134759281919457 7.419857452634674 7.095024916462421
Cu 10.436384569301685 9.37582009735006 10.64370625947627
Cu 8.084355877166649 8.208302895707797 10.625011119233058
Cu 10.218405054136285 7.149873531335735 9.601733593844846
Cu 8.635750307855915 9.921378757501916 12.231112351539075
Cu 10.208516504115247 11.224612229483183 8.772582696471373
Cu 9.95178603737908 11.72816558144424 11.120010907631231
Cu 8.03826363905118 6.9084276983863395 8.417911921335783
Cu 7.973346957168494 8.62003999382226 6.5653072636609116
