15
Energy = -38.97548814 eV
Cu 11.627900434602637 7.745253850558617 9.22473691679123
Cu 10.004768623477773 5.849665819842108 9.116396990625939
Cu 9.941157124114923 7.756310102097607 7.501740253733313
Cu 9.352497124962303 8.001718035885407 9.957455677036627
Cu 10.413841120450341 9.86762927345141 8.751689977845933
Cu 7.939950402127924 6.478172960933215 8.044340550470913
Cu 9.65259419071848 9.938734804440706 6.387079914463541
Cu 7.868339665329957 6.180438700117523 10.432598820063218
Cu 6.886370536595311 8.223081951886902 9.368885973910784
Cu 7.427354604096558 10.882426160269087 6.0928744892621065
Cu 7.704646158661761 8.708072186408707 7.094701790803088
Cu 7.674136395096752 8.347604756094329 11.649626858820731
Cu 8.71563028679432 11.412553452563802 8.082003291198571
Cu 8.23334893559613 10.194002157295794 10.074933798456764
Cu 6.504165295252434 10.416328930589948 8.300879607400638
