13
Energy = -33.00988032 eV
Cu 12.21363450584678 9.793831328924627 10.008184192404691
Cu 12.219102481389381 8.240014448010701 8.024750947788746
Cu 10.79440628967265 10.15893325572691 8.113434694314275
Cu 9.872083291792674 10.463558585633633 10.378375372151492
Cu 10.494867823349944 8.161481703793067 9.688879346931794
Cu 9.869336322267174 8.034084838325 7.298048094147227
Cu 8.44465667238614 9.60131177043368 8.570058102649515
Cu 8.41759707774401 7.0430287157748 9.022554307737185
Cu 8.424394889793792 8.553235034639794 10.940009731575303
Cu 7.180333049408901 10.565433697954436 10.33623895492893
Cu 7.168150357625747 8.123129296614392 7.231898358332621
Cu 6.098066077863673 10.164712580145155 8.145717081332434
Cu 6.428093400440042 8.306562040176852 9.602699868485557
