14
Energy = -36.14454559 eV
Cu 9.075531435107441 8.051852703738817 9.618467012449628
Cu 9.341786563963153 7.655532804881702 11.993723709689588
Cu 7.149446715818161 7.483543931982042 10.865572614247405
Cu 10.602488699030667 9.431010316175328 10.767859595716878
Cu 8.22462227366134 9.695510852514717 11.395216843480993
Cu 9.024315130207432 10.687100336979054 9.30631247769469
Cu 8.195615451370106 9.344127889183953 7.413312049102276
Cu 7.163723489572742 7.301509092485225 8.266110744641159
Cu 10.658300170297512 9.219511792477752 8.143943992018372
Cu 6.864239321351469 9.465159057279735 9.48375131601081
Cu 9.547354702194342 7.1878862137500725 7.375522200484529
Cu 9.713126751751908 11.133058364554463 6.940925460297401
Cu 9.926051924758383 8.929787021755052 5.7884797435223545
Cu 7.725729633515052 7.626741884841499 5.853134503243327
