11
Energy = -26.5404732 eV
Cu 9.87855931109967 9.669609890451703 8.963646812503137
Cu 11.700363881015539 9.980889367066018 10.595866749673377
Cu 7.497992938596712 8.899757919781287 8.1342714257989
Cu 8.136013383636808 11.25862962254519 8.595533727027158
Cu 8.636655989010038 7.520557429733392 9.79052893178336
Cu 9.622578523666164 7.747924771440615 7.559218708413265
Cu 11.07335462651776 7.736237727369574 9.700844889682745
Cu 9.760244480941948 8.88360098200925 11.469224692625
Cu 9.56991617299421 11.247980757091618 10.731347562642986
Cu 7.70771153366036 9.691265189766433 10.42832080621489
Cu 9.048220842551537 9.995157842745037 6.66280700994402
