19
Energy = -51.51232123 eV
Cu 7.126411658265907 8.535012741868835 10.149175549755585
Cu 9.460538519783245 7.8588022817437695 10.415088843743886
Cu 10.155156431898119 7.7399421672401765 12.714797165162002
Cu 10.75179383540007 10.076943895018053 12.57442495948243
Cu 12.446174036114991 10.360458092586716 9.478972111222568
Cu 7.694374723798753 10.874488162719977 10.242664622393413
Cu 8.418828888850017 9.350851809260936 12.054047770025598
Cu 11.147992652199552 8.3008915284006 8.746043187043185
Cu 11.799213573771361 8.546292591507225 11.072368377039558
Cu 9.038114875182819 11.692814436236327 12.219889738075105
Cu 10.785925239090421 10.305380203788857 7.508824665255063
Cu 10.092948933053785 10.38764834773282 10.133174023249813
Cu 11.187678786841134 12.317284211503937 8.791221891338445
Cu 9.286864276297848 12.843394596761598 10.17033715360431
Cu 8.807891881269587 11.591004156212774 8.176998973009288
Cu 13.474294816814412 8.21154019758252 9.410683458295344
Cu 8.669468877874397 10.132422098947027 6.296356841998826
Cu 11.440066559881187 12.014984014391796 11.239858660408977
Cu 8.76824697366958 9.109391361059304 8.440383040069046
