10
Energy = -24.32496041 eV
Cu 9.72665811797663 8.489640932242825 6.636940046109636
Cu 7.557507525753539 7.663808208718607 7.3940887122855585
Cu 9.560763349472134 7.27114024436584 8.719742105114678
Cu 8.000632981325955 10.034524102891641 7.391869659359629
Cu 5.910611811272324 9.209431850293154 8.260235679797495
Cu 10.020546038392718 9.721091830513249 8.700735401463207
Cu 7.795192800661706 10.102007954685215 9.754643854806465
Cu 7.358543501361476 7.774976987995789 9.755014718016541
Cu 11.615552514917395 8.159344233151117 9.667706442661965
Cu 9.459042819699732 8.579085115975625 10.724074841218018
