10
Energy = -24.08566042 eV
Cu 9.0333852906017 9.429695089946048 5.797357458621161
Cu 7.239518845656853 9.143187711321072 7.281729049775955
Cu 9.491626808484302 9.59737509871389 8.164285610958629
Cu 5.694060808589823 8.8248360393778 9.01488270642022
Cu 9.073475949559851 7.418565963586366 7.22914411313188
Cu 9.668434739599604 9.409173923360143 10.534771116680021
Cu 7.927611037865976 7.90603645334146 9.295282733590133
Cu 10.27648882370159 7.421990898889065 9.349512721575213
Cu 7.621874187298244 10.27972749495017 9.517173762255668
Cu 11.459459524830098 8.055347342701884 11.301796743179152
