10
Energy = -22.50060702 eV
Cu 9.825119672244547 7.734782790701031 8.823453088101113
Cu 7.312863064365995 5.506197870212297 7.563541070837555
Cu 9.27936924046678 6.874315071588182 6.3434082028632295
Cu 7.5154913787287 6.895469054477318 9.831354208385827
Cu 7.773939216529421 7.765728071148724 7.767286584294441
Cu 5.537316067445357 7.258321850855912 8.071995700112334
Cu 8.011184599780103 9.471241242057989 9.322314123969115
Cu 9.208001113685647 9.444309958872548 7.060491086327377
Cu 6.678409366860949 7.2014499738157784 5.795461958954723
Cu 6.537181741677696 9.527059578055155 7.099569437939606
