18
Energy = -47.7904835 eV
Cu 10.625784491754564 9.676831390535748 6.50190735336704
Cu 9.574519448050374 11.692241086854931 7.560790002273415
Cu 10.59731413997401 10.147659500639646 9.078490636332736
Cu 8.631279045423172 9.288741264619532 7.71286040771849
Cu 10.017512764425478 12.322200512585766 10.002276650845433
Cu 11.111479870702729 8.006494108629486 8.087888851162868
Cu 7.199482271807936 11.20081228094488 7.302094981807092
Cu 9.351199505560437 7.2857809007565315 6.6120461769976275
Cu 8.155277074869213 10.99641815522741 9.478465274925988
Cu 9.552517629241446 10.242921722393787 11.31936652030675
Cu 7.284990433465246 7.28840025530149 8.179446574605889
Cu 6.328176742510607 9.499665589280294 8.86660249531606
Cu 9.379305533629172 6.56349483413565 8.980866245573951
Cu 11.689397568344114 6.1881153588868925 9.46509688631548
Cu 10.558460776644992 8.08096326442834 10.51366866982877
Cu 8.20646352175703 8.530762461750388 10.107517877097493
Cu 8.874113673026537 8.15219617135756 12.32424253685616
Cu 6.052903361106729 7.575598595044857 10.27100380208487
