16
Energy = -41.79240903 eV
Cu 12.220276067819016 10.869445957276008 13.44287933923509
Cu 11.187290626045417 9.007317763896456 9.924914894054048
Cu 8.894215812949039 9.196452920680814 9.021279680436118
Cu 11.626428942254845 8.896999077786667 12.334386024100178
Cu 7.386546531068222 11.05551409382454 9.051569375622059
Cu 7.016974096153376 9.14385366579779 10.586805822190088
Cu 9.93210914530575 11.54147800316357 9.17333897194996
Cu 11.069289906487747 6.939716789870441 11.200627142663764
Cu 8.661710140537727 10.835220392125523 11.097488414711448
Cu 8.87894935969 10.966296769751422 7.130459275169639
Cu 12.311451444196024 11.10622138548708 9.092624620030383
Cu 11.155512376358608 11.101920026995542 11.271999918735133
Cu 9.83974136385322 10.327433919598828 13.152992011178046
Cu 11.154419513807696 12.040867918764231 7.1335589793566685
Cu 10.857370452751608 9.715138450513976 7.661586266624343
Cu 9.274338594161133 8.55160120452343 11.472801731141496
