19
Energy = -51.96074687 eV
Cu 8.24504188919464 8.768293573982309 11.558058842424682
Cu 7.069007846909257 10.89926719978237 11.443332058930457
Cu 11.919206153090744 10.89926719978237 11.443332058930457
Cu 8.262866980114623 11.678540005718876 9.494107
Cu 11.919206153090744 10.89926719978237 7.544881941069541
Cu 10.725347019885376 11.678540005718876 9.494107
Cu 9.494107 10.940430164021587 7.429347846988562
Cu 9.494107 9.496508255276867 9.494107
Cu 9.494107 10.940430164021587 11.558866153011435
Cu 10.743172110805359 8.768293573982309 11.558058842424682
Cu 6.983563978989679 9.475087595299513 9.494107
Cu 9.494107 6.679607402507138 7.551872064403017
Cu 10.768095343879386 7.3369756572850875 9.494107
Cu 8.24504188919464 8.768293573982309 7.430155157575314
Cu 8.220118656120613 7.3369756572850875 9.494107
Cu 10.743172110805359 8.768293573982309 7.430155157575314
Cu 7.069007846909257 10.89926719978237 7.544881941069541
Cu 9.494107 6.679607402507138 11.436341935596984
Cu 12.00465002101032 9.475087595299513 9.494107
