19
Energy = -52.0115438 eV
Cu 11.246474921744637 8.449040639620739 7.926928352990126
Cu 10.490889135415985 8.596054748043732 10.37263450244724
Cu 11.358369820181778 10.54774155320373 9.300133080779744
Cu 10.222590761840046 6.541352817153647 9.113209796095676
Cu 9.743511201395675 6.68758473465666 6.796972432720828
Cu 9.808229953067107 10.844507788340852 11.109595323333933
Cu 10.511298267065452 10.742567728615246 7.110369878318469
Cu 8.389034589543268 7.284536575483642 10.47408996910833
Cu 8.902606985065528 8.86045877916655 12.249457191202458
Cu 9.585889048050056 8.855907294036461 5.9625053408290745
Cu 8.883132122362252 8.747657695252428 8.362116052932627
Cu 7.890519662364095 6.360152142040188 8.254114679398326
Cu 8.92083897841354 11.291166282487337 8.852471830512657
Cu 6.5260820137641025 8.207975147833556 11.669303479066118
Cu 8.16510221682466 10.699573758347778 6.542946976992512
Cu 7.719923236416549 9.83795238969984 10.399352440411988
Cu 7.198294166567709 8.32397601212365 6.76034571175858
Cu 6.457125974189273 8.071201378476719 9.176411920019063
Cu 6.664301267435121 10.285068892867589 8.288871521327545
