12
Energy = -29.47529681 eV
Cu 10.662277453303904 9.184292425589627 8.484175271637318
Cu 9.510932785285615 9.913072326894595 10.584934625580924
Cu 9.70223002952913 11.30860573150446 8.478368949297831
Cu 11.410105396740157 6.975234832184911 8.486649155155664
Cu 9.452527058715784 7.548546306266903 9.903932025108546
Cu 7.395077719332975 8.546192880749308 10.832711737371168
Cu 8.059360152506212 9.467314838680673 8.742947576742912
Cu 9.196299162317832 7.441829213257856 7.475664699420571
Cu 9.11905496481074 9.73207528192683 6.6018567398697385
Cu 7.232010793579492 7.050623619310915 8.926014468775342
Cu 5.686354764895514 8.903021237945122 9.013208479668494
Cu 6.988958271361854 8.4010868505432 6.910934688597124
