17
Energy = -44.41530095 eV
Cu 8.147321498182734 6.165594276472996 8.957241505717064
Cu 12.200492278074025 7.933390945670553 7.144343318469499
Cu 10.154691485083896 6.997812809345744 7.9401322318419
Cu 7.936089542976209 8.225109092220217 7.777736073432981
Cu 9.188651309672595 8.278483260850829 9.888312441619917
Cu 11.58256799649618 8.583702507559124 9.387276996906182
Cu 10.244267160130068 9.302490044422008 7.422265878860606
Cu 7.024729421704268 7.272244774172111 10.729316770459835
Cu 10.205457150076331 11.643298517082766 7.074121478543099
Cu 10.605279614496826 10.863620544429278 9.294089405480168
Cu 8.34831854215113 10.620128876642765 8.241373841369846
Cu 8.161564368108264 9.043463242185931 11.961006247061322
Cu 10.559124823427807 9.643737237174049 11.37385324539495
Cu 6.122468831304621 9.724901375743283 7.608695317774834
Cu 6.927998939853709 9.472105986747753 9.829737544591639
Cu 8.60079761008244 11.02582898663598 10.695245717755622
Cu 10.64811245466183 12.051942175424397 11.376509927411178
