12
Energy = -29.79541861 eV
Cu 9.287183845311318 10.584128503421352 9.265619
Cu 11.63359867886473 10.001135977242097 9.265619
Cu 10.238197041472187 9.599010922111754 11.277532155868938
Cu 8.19946349703128 8.536873385675355 10.518595907061718
Cu 8.19946349703128 8.536873385675355 8.012642092938279
Cu 10.263912345150521 8.005717840087629 9.265619
Cu 9.950475091897983 7.2837853805160115 6.921494115555058
Cu 10.238197041472187 9.599010922111754 7.253705844131064
Cu 9.950475091897983 7.2837853805160115 11.609743884444937
Cu 8.134498701763416 10.789903877457169 7.071589086217785
Cu 6.957464594194543 10.177298547728459 9.265619
Cu 8.134498701763416 10.789903877457169 11.459648913782216
