11
Energy = -26.66667132 eV
Cu 11.511524828335189 8.638962363420724 9.558965655634596
Cu 8.41534973218493 10.154815674735163 9.614719166910605
Cu 9.432675841829312 7.564855710106674 8.976170986756204
Cu 9.915641209400606 11.834007741020798 8.609619459045852
Cu 7.833171360454523 8.774525298868376 7.718623064875423
Cu 7.235570494999244 7.954052632454303 9.934490621454193
Cu 12.159803317040968 10.781065529018115 8.512697621735084
Cu 10.14835920626005 9.603002248938633 7.832639451944199
Cu 7.296276968266715 9.497434380828961 11.709910461166825
Cu 10.67185761076114 10.656455530671494 10.492577785627281
Cu 9.480480982272423 8.641534993546903 11.14029644894721
