10
Energy = -24.05222399 eV
Cu 9.98436483079559 7.934809375713706 9.60001294173744
Cu 7.833224497023132 6.737658295047672 9.924151402477007
Cu 7.930824364757178 8.659390143840207 8.478600345003654
Cu 10.018761797496353 8.812636948544565 7.286087290722617
Cu 6.0261093931833605 8.78708650131769 6.989816233352497
Cu 5.748682389002501 7.940770120187971 9.29700824821129
Cu 8.056201968518453 10.118671590500119 6.526614909887192
Cu 6.776647853646046 6.514616991305966 7.680908915047269
Cu 8.107612666522245 7.769741982882307 6.077541370731165
Cu 9.20134101543979 6.519937858007304 7.849014387565939
