17
Energy = -44.35580917 eV
Cu 9.997574944080709 6.376778208582232 9.24627668524994
Cu 10.968444437003944 10.085349996928196 7.817833282058643
Cu 9.18079828849714 8.364196711468534 8.089051452264851
Cu 11.32334064261096 8.356204168121293 9.682264981464822
Cu 8.551239183619302 6.163093780725715 7.307962728275533
Cu 8.518302695452041 10.739280293323453 7.81377541565489
Cu 11.970852454536365 10.802357615414692 10.018128297430787
Cu 10.207285872882382 12.271691581694624 8.872887287351928
Cu 7.574654615535162 6.991931021647726 9.312644277570032
Cu 11.801781737877079 13.184084119606725 10.446044195410273
Cu 9.639031050964377 10.074648641784218 9.81748673599437
Cu 7.964386949015648 11.82826909059568 9.993107267246035
Cu 10.829053704118364 9.54257512550915 11.867378100876003
Cu 7.336945207622325 9.36997105315633 9.65424289991527
Cu 9.129995089855631 7.933376527876297 10.92737247116801
Cu 10.070960636189508 11.873803271331472 11.415931479353075
Cu 8.356022999386461 10.144387690430053 11.843051341529934
