13
Energy = -32.47920506 eV
Cu 7.377126601199949 10.562562030644768 9.397725259449084
Cu 9.351835 8.142304845340673 7.979898469168083
Cu 7.282806014812741 9.351835 7.293239812023173
Cu 11.32654339880005 8.141107969355238 9.397725259449084
Cu 9.351835 10.561365154659326 7.979898469168083
Cu 11.420863985187259 9.351835 7.293239812023173
Cu 9.351835 9.351835 10.47437974508601
Cu 11.32654339880005 10.562562030644768 9.397725259449084
Cu 9.351835 11.782898419686632 10.067618995996371
Cu 9.351835 6.920771580313365 10.067618995996371
Cu 7.377126601199952 8.141107969355238 9.397725259449084
Cu 7.023430206299554 9.351835 11.413529831371397
Cu 11.680239793700446 9.351835 11.413529831371397
