18
Energy = -49.19673978 eV
Cu 12.910667901651275 9.400506287978086 11.59193169564078
Cu 11.554247803227957 8.799643165798305 7.676524687197579
Cu 11.772272944881216 11.577360584999871 11.570059910722007
Cu 12.121254201397699 10.451547838487969 9.472827313610242
Cu 11.653594890937946 7.953331674884486 10.076935833964717
Cu 9.851558140189347 7.172141882068103 8.454292628270085
Cu 10.542458182508105 9.436979942019727 11.808240287323025
Cu 10.526833002269006 11.034644530094617 7.6591231830453825
Cu 10.061036831681463 11.947897091103297 9.86112754725231
Cu 9.881078769665853 9.444243905810634 9.354142680481704
Cu 9.420509341747119 11.557989238803234 12.216598923991437
Cu 9.291957944966875 7.568413295566592 10.805143698016106
Cu 9.132506856182463 9.099902077586517 7.050405323738049
Cu 8.158488830648164 9.692162605486729 11.236029801259681
Cu 8.172169580801956 10.95504127857233 8.444238266511379
Cu 7.716539967186858 12.036762741080334 10.56036690111413
Cu 7.715482179337433 8.422362629064985 9.06306647784381
Cu 6.273651965247289 10.205378565122352 9.85525417454602
