11
Energy = -26.98039204 eV
Cu 10.895091453096871 9.773189929787687 8.768499756436741
Cu 10.368333849191645 8.191346585966258 7.040362201157287
Cu 10.06782279243667 7.578985206306387 9.369778370436446
Cu 8.885524278854241 9.483203951653977 10.160846773781262
Cu 8.332492558489712 8.319229550140774 5.745937454371745
Cu 8.5990359145837 9.673100658272899 7.755650970890279
Cu 7.83657533029314 7.2131253844254495 10.271479689161996
Cu 8.110434635439148 7.227157226888257 7.8904152571539266
Cu 6.710825754154924 9.073744269847799 9.22514826896359
Cu 6.246538142132799 8.418879997838848 6.936339967682543
Cu 5.8118548390463065 6.9072038284208 8.778234612847378
