15
Energy = -38.83717914 eV
Cu 7.72727118071885 8.62068236529545 11.201849369819044
Cu 9.868404523729053 10.729632924452828 8.483236683144595
Cu 9.856428376114701 9.262133087276558 12.35326618831149
Cu 12.100276206601128 11.649132878619122 8.700700365318939
Cu 11.995669425976258 9.160248353434003 8.864159280511343
Cu 9.987908889893589 8.51373110676563 7.529354894244262
Cu 11.891516770876185 8.33597495762892 11.207587181111347
Cu 9.836029020144952 11.753322248080304 12.390411752430575
Cu 11.285899541258582 10.568423142770964 10.784661553549642
Cu 9.879738485827513 8.47929126419765 9.994251076419523
Cu 10.276926811194803 12.581223233766906 10.094968646691875
Cu 7.96294493235021 9.137499363938824 8.798612849235196
Cu 8.604597486459692 10.784129065075756 10.553137465568769
Cu 11.422990372344948 10.331062555209417 6.746155255124695
Cu 7.737475299109045 10.52759104218857 12.73172502721916
