29
Energy = -82.53756303 eV
Cu 10.278031053723629 8.330160317309334 6.548465461848206
Cu 10.390219974865127 10.07130554760046 8.777099419724825
Cu 12.436980634997663 9.08423861801642 7.202142326329871
Cu 8.41411586396482 9.74363765020917 7.295649401158053
Cu 9.90330619595893 5.975014637949264 7.0489111744677295
Cu 8.520639530009001 8.753633758708366 12.670155493943174
Cu 7.950028694389655 7.363862277608919 6.853553771321782
Cu 9.374161502469372 7.860134702230831 8.883727618920025
Cu 11.420971040494619 6.918296523298778 10.694203865113458
Cu 12.399604113570312 8.895358731756971 9.682427532940075
Cu 9.94461872081889 5.506551333111864 9.388571336433188
Cu 10.839754268767274 12.633391521961128 8.51761665699851
Cu 12.63093420618658 11.047064208594364 8.551862835945311
Cu 8.09955170948609 9.903692985538374 9.843749952828587
Cu 6.4153532391995105 10.957247647972212 8.136109729931137
Cu 9.358515974221636 12.999151548489408 10.40473520812949
Cu 7.569317839804304 6.352709228135625 9.158716211358005
Cu 9.062551748578313 11.093480123270908 11.854156518594584
Cu 11.210109482133205 11.38254972815082 10.641432174966335
Cu 9.007400753382768 6.865742312932474 11.196218701042921
Cu 7.080428505057955 12.038741119654105 10.36468271810945
Cu 6.874497377001247 8.057477286188641 10.944777052833784
Cu 6.526424675653851 8.48968287487155 8.48126837116525
Cu 10.27295722353729 9.0514896658956 11.033575706292433
Cu 6.799056444549873 10.303628159703742 12.107896908884971
Cu 11.726014999779338 7.0102882548090895 8.26489319298673
Cu 10.744279864918846 10.840512864742761 6.623469661769402
Cu 8.575844548544703 11.969431939841384 8.337877393897873
Cu 5.523159106672352 10.011898757406177 10.131385618489691
