25
Energy = -69.93684917 eV
Cu 9.655689812260452 9.364033176288697 5.843748567504321
Cu 7.503717902006378 8.406236323794582 5.382425122684413
Cu 9.518163232055587 6.877127592943237 5.472766362943225
Cu 5.8941999362329165 8.592597463095759 7.238407011403741
Cu 7.581519038410816 6.720615521445073 7.061697768860654
Cu 11.63261081471858 6.459645933046599 6.753860356388062
Cu 9.713127748739188 10.28148812545192 8.107458937016894
Cu 7.602783016849188 10.388892081103126 6.7737559562902145
Cu 5.418860134466676 10.930381031974 7.83896848339064
Cu 11.778223742582234 8.92168524590835 7.041346563659229
Cu 9.562012870725448 5.2840974405647545 7.450923731024796
Cu 9.851808044530989 7.7376187051229195 7.703333502929961
Cu 7.229578379433501 4.720122421585902 8.339163315734341
Cu 7.887722150519069 8.704184856914885 8.664274579895709
Cu 11.19744684122612 8.884394328302427 9.454607394160115
Cu 7.465384970930406 11.10816045459619 9.15957979888171
Cu 6.218407932556845 6.902652127573296 9.101312929237334
Cu 11.100796329154358 6.332111375835291 9.195818993029429
Cu 5.641526774691655 9.268536702590806 9.673095558943393
Cu 8.589799893843193 6.3442863577531385 9.459639671256566
Cu 5.283659597478805 11.60949711413473 10.155238104246301
Cu 9.17581353421412 9.882949839303707 10.50753777439805
Cu 9.888919240816024 7.6150040155663685 10.99397662531636
Cu 6.932819700141601 10.401585867990896 11.447398162146017
Cu 7.466794216995669 8.053481752692676 10.971050584238158
