24
Energy = -66.2890829 eV
Cu 11.522336818204126 7.0031196967186355 8.282986967699701
Cu 10.420155563686425 10.74134011740508 5.534281255754708
Cu 10.478638434048639 8.90496661328769 7.140839485601535
Cu 9.277007950617673 6.792148849786193 7.094340919301455
Cu 11.589068773679372 9.169783680243553 9.42144922867787
Cu 9.75860137390834 5.551857302449114 9.248998931365682
Cu 11.095727051993485 7.050728283178995 10.769434301218775
Cu 8.659695323574207 8.942531549490992 5.545435205457603
Cu 11.136489617794712 11.082827793727954 7.85871196529634
Cu 9.441862861946083 7.943971829652249 9.29193119121354
Cu 11.62651404113064 11.431432111759047 10.173585074379229
Cu 8.70196593767488 10.779603247121768 7.228499400724465
Cu 9.470928565481449 8.832866973141048 11.601969659991033
Cu 6.36561002060945 10.1598394788131 6.636787969194684
Cu 9.973469724177962 11.140271140073814 11.907591325746859
Cu 8.66119566280451 6.561436909463893 11.232145393867308
Cu 9.414504227053134 10.474099988866719 9.610891114301504
Cu 7.7180833788743435 8.547121121018652 7.690487863779628
Cu 7.424622966287853 6.5231446700948625 8.9900313545679
Cu 6.993562280774127 10.528521632520683 9.016126144266805
Cu 7.689564756839626 10.56969153821829 11.457508141175664
Cu 7.232070598759705 8.418146978245895 10.507792538433888
Cu 5.585707750481608 8.500603174738096 8.725090222807488
Cu 5.404305785925902 9.993363882441994 10.754954311050325
