26
Energy = -72.23510604 eV
Cu 8.776613538799426 12.766591175889172 9.552744335691006
Cu 10.63852813515345 14.147290441135612 10.367563970293943
Cu 11.042442680171343 11.843798238326505 9.761321884780644
Cu 13.037296520588994 10.536208678961572 10.266464905983085
Cu 9.685908698767863 12.516544268319544 11.832615287519182
Cu 8.752098397112093 10.50823207197031 10.593648625174005
Cu 9.576124701463286 10.870042416626733 8.11537854548889
Cu 7.250254953365748 11.150056521230734 8.602569179623645
Cu 12.310531148531101 12.708767304022484 11.622780777053494
Cu 13.576531846130797 10.825594482805483 12.551343209282386
Cu 11.912112351982898 10.21802670011515 8.024966221227103
Cu 8.859144466536506 10.59266005186837 13.048439945680062
Cu 11.190170435853302 10.633429322605844 12.199923655416729
Cu 8.534099761272344 8.539726826485296 14.213645903652202
Cu 5.922354907330573 9.457428626824909 7.563333178474234
Cu 12.873522987017756 8.27447079674555 9.197462014688927
Cu 12.61810950600614 8.646255359771866 11.749811588859432
Cu 10.358243765390638 9.467740418920926 6.261841285200813
Cu 7.632510335915416 8.727467737074944 12.001339909524349
Cu 10.055848593976133 8.478331873448592 12.303167979406966
Cu 8.2552343699166 8.8813762853551 7.767806201760223
Cu 12.481970370092439 8.276569533449951 6.734793761760385
Cu 10.903219511762899 9.282447373853206 10.149501721198874
Cu 6.75826382973679 9.101809616272103 9.794126292281318
Cu 10.524253191136783 7.996800564736063 8.137012175394048
Cu 8.906818783920597 7.984541101115201 10.018605232515498
