24
Energy = -66.63726947 eV
Cu 11.427299025483576 12.38932889368891 7.435139570950533
Cu 12.1184684627332 10.35538817464541 6.405315370987257
Cu 9.731041357584155 10.621831632536047 6.987048907148074
Cu 7.556038278909589 10.875186815227964 8.004445690818635
Cu 13.282732452839833 9.125395770052922 8.07669425841774
Cu 10.871411046306193 8.475219050129855 7.402020565601533
Cu 8.359789959904603 8.532626287757713 7.306385525970706
Cu 9.564461224632396 12.105068298746028 8.982065741526773
Cu 11.440187166137283 10.437401878772729 8.870588457727713
Cu 9.067538234482905 9.544482746750198 9.32219947278576
Cu 6.506794637605448 9.608145475557285 9.768755311380337
Cu 9.415101392714725 13.144189965892872 11.18196449755813
Cu 11.927765806840869 7.822595042204684 9.512631053530596
Cu 9.647143454796279 7.129865426455178 9.04920819237904
Cu 7.7907082195067066 11.498319619320354 10.533353088184247
Cu 10.213037202633368 10.891048336463655 11.091913943996913
Cu 7.279331995657991 7.420165636407465 9.266783665989735
Cu 12.457883988822978 9.738288200369556 10.950824536150893
Cu 6.032422002076179 10.33219517824185 11.987331863201305
Cu 10.837997309355107 6.181988147895745 10.975175973299896
Cu 8.202282293007118 9.372382268160212 11.701378167778756
Cu 10.411702043327272 8.49449558304583 11.250882003505803
Cu 8.512561263794188 6.952806749444118 11.321922390376649
Cu 6.29380282091079 7.8990864622966095 11.563473390795703
