28
Energy = -78.96841037 eV
Cu 12.4792316590673 8.114379960916425 7.754844567066888
Cu 13.263270731172556 7.5332947205578815 9.92345474645397
Cu 10.742715011232358 7.3681276261853155 9.329160726437292
Cu 8.04489358437463 8.654920753465305 13.147225735522786
Cu 11.624423491642633 7.5161862720461095 11.660552154813518
Cu 13.990216149117776 9.718890815567027 8.976330976793372
Cu 9.157620373641214 7.390767427892076 11.292750031629087
Cu 8.312448923367675 7.596923234303245 8.926655248419172
Cu 10.230136983421206 9.030941064539762 7.5398798210974025
Cu 12.385651643755663 10.449350254168921 7.3444947033946555
Cu 8.00013311344626 8.604341272918274 6.717599308639414
Cu 11.806857409780813 9.484822966901802 9.970636262818479
Cu 9.310311122513856 9.542528603960157 9.872106206382009
Cu 10.104385060741544 7.374902119305376 13.540795198207132
Cu 10.495023306816108 10.804806678048756 5.920298585711629
Cu 7.118445463038383 8.671622295546 10.891420279885155
Cu 8.467375031308247 10.929184584077593 7.214065477859157
Cu 10.240420577320325 9.414369732185254 12.258544052958786
Cu 7.04219238158163 9.730953368124773 8.710662579760568
Cu 6.682252806020041 12.6341249268526 12.029695364171692
Cu 6.099245698922193 10.826259790753392 10.621147543241227
Cu 10.54034747801499 11.401079246650218 10.921650823487935
Cu 10.433974434363018 11.449740219923116 8.388314591036847
Cu 8.197730772411747 10.771893022317578 11.889363665413452
Cu 12.575020869681216 11.771970067713731 9.484978168451708
Cu 8.244882841042411 11.848671001822725 9.583920809788744
Cu 10.643710178805906 13.429700393729664 9.755234809629973
Cu 8.962475786935354 13.13064046306321 11.529610444464673
