28
Energy = -78.58175139 eV
Cu 11.812426664341666 7.417438249928419 9.013193662037652
Cu 9.671974638837764 6.318368825204131 8.28592584034731
Cu 8.193432848659407 7.65778956719865 9.584637259457999
Cu 11.09371757572835 12.620721776485853 12.17949607117168
Cu 13.897108802669608 11.174486328227223 9.413302270544985
Cu 9.272919004934813 12.27236460809838 10.605524018681834
Cu 13.310226369731962 11.943432567789182 11.612508562177577
Cu 12.58362696305524 9.737001047002074 10.860840117737864
Cu 8.266631767841169 10.00546329841562 6.710889474484509
Cu 6.41229836683555 8.760012320919119 10.876700238684714
Cu 9.922166218829055 10.878653961336713 8.353643332067897
Cu 7.5841396630813245 10.495436026591282 12.372792121874129
Cu 9.038789834577717 12.28020314424699 6.467461200372167
Cu 10.159453758364034 6.692481581420283 10.723798004484498
Cu 10.362820765589785 9.018802112977172 10.022209635223426
Cu 8.23057801317527 10.174836841512143 10.152774902898123
Cu 9.93956463352925 13.273460660027155 8.531652164433007
Cu 11.62127102124618 12.005863426939152 9.825949204902624
Cu 8.729065166697174 8.372907277732166 11.877694464321975
Cu 10.114038838592633 8.565033778963093 7.557038538626524
Cu 6.004981597689764 7.182249666553512 8.854938082395567
Cu 6.6824345411259385 9.454195906481992 8.459519523819827
Cu 11.211682357523653 8.280153330896846 12.286391206067517
Cu 10.013567762205867 10.4790358192989 12.076782713883045
Cu 12.180055841086789 10.426291513641196 13.12722374476992
Cu 7.85080418689391 7.640248902353191 7.190499667382962
Cu 12.10927224828942 9.818724644390382 8.46117115701669
Cu 7.725207547432058 11.805652207173939 8.413393187221397
