29
Energy = -82.66415966 eV
Cu 9.925823327648901 12.338684129096373 12.340965041720041
Cu 8.553276794140348 10.222058375867302 12.401210462966747
Cu 12.348155454495375 12.12213528526358 12.289713245500653
Cu 9.772559988253054 8.020490200127677 12.280131688688211
Cu 13.561708763104765 10.04216235888943 12.094447994124463
Cu 12.1922857289723 8.070044881676221 12.199902989756941
Cu 11.248302262279477 12.769443157481154 10.188279880559413
Cu 9.161394665277085 11.400328190159893 10.264560645047625
Cu 13.200086687034847 11.329745907259387 10.042494762960711
Cu 9.079168657972263 9.055885820784813 10.22720742916508
Cu 13.104567376483818 8.866601060496814 9.994723783293013
Cu 11.068749667380466 7.557324626996117 10.088537109336349
Cu 9.693966470542755 12.378774105598097 8.136248485634528
Cu 12.106533078990898 12.205486304884563 7.969166071750618
Cu 8.320871703873053 10.274314564943218 8.15992699130473
Cu 13.32492836910486 10.130687258734428 7.900430138587962
Cu 9.546829261977175 8.074928377263106 8.082804863815774
Cu 11.964114603634096 8.129189949152916 7.869981330195791
Cu 10.821436674962364 10.027404297765585 13.606232604786495
Cu 11.155156194564984 10.17321478729185 11.334754300930255
Cu 11.029323926322352 10.160126577211795 8.946971222121082
Cu 10.453954793087174 10.304263701918929 6.723410164187543
Cu 9.001239421537617 13.733645390573821 10.259091247818372
Cu 7.292542711911786 12.36686709314485 9.073959440125828
Cu 7.437391763554537 12.342820979147687 11.652759627747303
Cu 6.85157141577406 10.299974133518205 10.377571230044774
Cu 7.297564250212384 8.198210426566165 11.614006643329772
Cu 7.1534035189395215 8.236730701855983 9.04054626561832
Cu 8.768498549427632 6.732582613507163 10.232732870164279
