28
Energy = -79.18614018 eV
Cu 6.751645116321565 10.301476967793054 11.923955821438653
Cu 10.498569764996965 11.55453910977847 8.983380245475505
Cu 14.56791168084802 11.238792679753828 12.126031813727762
Cu 11.626579665019829 11.708533740920043 15.36199058433657
Cu 7.822654761417822 12.385041473424021 12.36189102705363
Cu 12.485223602863341 12.045739203736836 10.864781059232879
Cu 12.592534286865229 10.192127099762882 9.154961682154795
Cu 14.793235493170638 12.363021626835671 9.802614517166212
Cu 9.374258146845262 12.251590156468529 14.222251703366327
Cu 9.408772023072416 14.263436103873937 12.714981993293355
Cu 10.022063722649147 9.961283167054937 14.848586632089823
Cu 11.218455742347208 13.801673317277697 14.25379784908022
Cu 13.388467786009011 14.331335510733862 9.844412768771111
Cu 11.331166302582401 11.269316507935654 12.997171692837144
Cu 13.157481135690842 10.1132521181122 13.970778136035234
Cu 11.90537817796694 14.120758245628558 11.962933511451306
Cu 10.038557378923365 12.461435354224253 11.295546558303704
Cu 9.039260377376259 10.258445195973037 12.660737318797036
Cu 10.747067991591395 10.062690838756362 10.842717384401972
Cu 12.975612532452388 9.50868494262055 11.558389226848393
Cu 14.858727731353403 9.950129245889164 10.042266618542458
Cu 11.120697573685868 8.833139483372218 13.002691456014338
Cu 11.037839490652518 13.87168942695491 9.651897552796079
Cu 14.4332167087908 13.644815104870045 11.881689440835931
Cu 13.260031229618203 12.618177001390142 13.663875108401395
Cu 8.466611995476363 10.902230473605844 10.316499055950748
Cu 14.518751053007167 10.986890319816201 7.841555761045502
Cu 12.71320574297526 12.503919274984531 8.357911194770548
