21
Energy = -58.11227552 eV
Cu 11.553012419926768 11.007034733739186 7.948459311797248
Cu 7.380335966578999 8.998614555580009 9.57707371697067
Cu 7.56308822013075 11.438556911002863 8.944920719448637
Cu 9.089844448601355 7.671691519390712 8.348766216986107
Cu 11.113084312154776 6.833204882854633 7.2976927992085905
Cu 10.465837236009211 9.958053289444399 12.541568371788033
Cu 9.73842727648017 8.535561732253594 10.74897635302702
Cu 7.695079712476865 8.863470727019417 11.973832256560353
Cu 10.60995477096193 12.329943697093796 11.801634404755697
Cu 11.558246542716038 8.63887253082695 8.832798038972442
Cu 11.424082142929828 10.57342459905337 10.384630170307483
Cu 7.813641796734437 9.558668931194788 7.211830733112734
Cu 8.743880343158382 10.899055898150499 11.097874161112598
Cu 9.286154793468882 11.57471822739713 7.058492333012549
Cu 6.316291763070776 10.665547857909448 10.949126536934417
Cu 8.129878437068436 6.82270701604657 10.450304258444696
Cu 12.057091320231862 8.361392303317619 11.230350006027411
Cu 10.27850162719571 9.181704023601316 6.718712635934918
Cu 10.71272747099516 6.556439569924688 9.802567199560004
Cu 9.526308723599742 10.05150622271981 8.841353561986109
Cu 9.93203326972861 12.35216456543799 9.409884934752062
