26
Energy = -72.81765348 eV
Cu 10.907877494056908 11.161229851462169 10.425828979316003
Cu 12.65269456030422 9.417807811442565 10.404522418497143
Cu 11.740607560767259 10.17899730126881 8.199842997008432
Cu 8.661582294294316 12.256380570559267 10.097314936674147
Cu 8.946009803185246 10.605942929889052 11.843259047778268
Cu 12.217590677849707 10.043593270070367 5.868939574683435
Cu 10.544575550225147 8.882016985499027 11.398908170101912
Cu 11.34483033156428 7.866488105013579 9.105972116866724
Cu 12.128532760930604 7.11424711922832 11.267971451321781
Cu 10.21179813497103 12.095997376386174 8.277507920848324
Cu 6.682349998133176 9.822610764192396 12.54402928648961
Cu 7.209491603712478 12.186048291502248 12.090302663869815
Cu 9.432792902657527 9.596015551748343 9.216078565181162
Cu 9.776858680970175 6.677869784829576 10.591489017752268
Cu 6.959365502605308 10.509568597451842 10.265583741858485
Cu 9.955368557681261 10.545005330264972 6.491020418711104
Cu 7.970890119645594 10.932200387279927 7.957599846856036
Cu 8.140268669561419 8.405474409992431 11.087530583441826
Cu 9.171996032029151 7.169772110928539 8.283385769466811
Cu 10.79794974591591 8.295060965435386 6.7301678482712735
Cu 5.817751522478338 8.22965392164646 10.839923921108808
Cu 7.0687061682782675 8.659498700180356 8.722361952162414
Cu 8.334924693411141 8.801567554353408 6.623700653824376
Cu 7.107903210554252 6.681122084048001 7.202261222232015
Cu 7.287951597440239 6.503592881531152 9.785289903275709
Cu 9.189999220508877 6.639720089429104 5.921685498861712
