23
Energy = -62.92339257 eV
Cu 5.9809274148523315 9.609835910400156 8.991774071025194
Cu 9.51934763147572 10.479148218243603 6.629998915649167
Cu 7.6223459531229585 8.673420840035252 7.356227455773326
Cu 6.324034854326709 7.076406106511675 8.899396036394318
Cu 8.130124708121153 10.788232969769505 8.580197798510198
Cu 10.725476730216991 6.662224089801022 7.180533868892865
Cu 6.048631858780204 8.383709754311454 11.14748044714969
Cu 9.522289411746044 8.237209729746253 5.919873207347195
Cu 9.259261872537605 12.720241885646768 7.671466491732479
Cu 7.998392629807819 8.577418266992096 9.792182467513422
Cu 9.136734682478936 12.266394032893812 10.192438621323966
Cu 11.538337962936703 11.670985613129295 10.81714358080708
Cu 7.372912495371248 10.622984645784692 10.93883685333011
Cu 11.837775205308988 9.091874488149102 7.163163210830624
Cu 9.95793651401611 8.685990884426126 8.394148683369918
Cu 8.724285458584491 6.5581438088127735 8.541920965415216
Cu 7.781468046720983 6.41291755622208 10.848426765843929
Cu 8.310400634133995 8.52616226927754 12.170504298497839
Cu 10.756233597645123 11.106668713555283 8.613809772578447
Cu 9.773552987665374 10.029756461158263 10.828704627055213
Cu 10.06395661404597 7.549738793980319 10.6543512908807
Cu 11.92683135506524 7.177054980009787 9.135074363950938
Cu 11.903845905956354 9.398356065352257 9.881181408839181
