29
Energy = -82.67552594 eV
Cu 11.155604406631934 13.102902259639238 13.564424873956707
Cu 12.374590646149027 14.597792135499436 11.77717467518239
Cu 11.155620977468388 14.371902383570134 9.649153901454698
Cu 9.071288418577065 13.195766482451633 9.930718061227381
Cu 9.160133789607059 10.992712918739143 10.918120000613495
Cu 7.4528680741423665 9.46751699428065 10.22842147350548
Cu 8.631738490992127 12.755731098372943 12.526665043039639
Cu 7.0370589360788545 11.921404337313737 10.521397084072687
Cu 8.623239268211277 11.07874897645777 8.62507621645324
Cu 9.858488610072618 9.048038494300059 9.477592384247401
Cu 7.494894822725876 10.549553027697769 12.589157933371483
Cu 11.155596557288591 11.259378039715488 9.184869160560588
Cu 11.155641036901864 12.459571553475216 11.324673608291468
Cu 9.936620783562885 14.597779053260004 11.7771964789143
Cu 13.679456367883333 12.755715399685785 12.526657193696296
Cu 11.155600045885615 9.886209415074658 11.430696272051327
Cu 13.151047987029283 10.992705069395642 10.918113023419291
Cu 13.237954198884175 8.70402211167392 11.971067151035689
Cu 9.878898280775203 10.818704954787364 13.356572660393478
Cu 9.073300838291711 8.7040918836166 11.97105930169203
Cu 12.432325359026684 10.818763388789208 13.356604929916934
Cu 11.155583475049319 8.620175401694231 13.44021773473156
Cu 11.155589580094228 7.5522739814698445 11.074513418190856
Cu 14.816315734836744 10.549589657967381 12.589186714297757
Cu 12.452753344864155 9.048007969075037 9.477601977889812
Cu 14.85828579371684 9.467516122131515 10.228371760996435
Cu 13.687972161500637 11.078755953652134 8.625104997379673
Cu 15.274175169514427 11.921404337313737 10.521388362579893
Cu 13.239858472087942 13.195768226750223 9.930704978988109
