26
Energy = -73.78071331 eV
Cu 12.84683731352372 10.672901283195499 10.67342444643067
Cu 14.594406579755487 11.103483303549332 12.27072189901728
Cu 13.407664293397834 10.354968233513999 8.410509348801561
Cu 14.680597629635328 11.960435272542748 9.903930017240434
Cu 10.916007792329241 9.407199028894064 11.560458427724662
Cu 14.7947888934949 9.449566041554013 10.355480584451865
Cu 12.173145555445512 11.126040181476922 13.089787204201787
Cu 12.214773498758298 12.531385998153883 9.111051065554342
Cu 13.079682649938915 12.998256625046329 11.5472963518208
Cu 10.916028723911996 11.943180096669536 11.106520740546143
Cu 10.91597290635798 13.353200527803791 12.973412402381069
Cu 9.617154870971726 12.531392975348135 9.111056298450187
Cu 10.91602174671759 14.2053138653203 10.569783052487985
Cu 8.752322468928037 12.998213889731614 11.547293735373032
Cu 10.915913600206684 10.428295335152807 8.902274771529347
Cu 9.658904043034875 11.126090766135247 13.089804647187416
Cu 12.205149047547515 8.508621198752644 9.717723098451442
Cu 9.626737459017306 8.508607244364297 9.717777171707048
Cu 8.985176526836204 10.672869013672159 10.673530848643166
Cu 8.424246633346714 10.355028411814654 8.410569527102062
Cu 10.916005175881319 9.106749650058182 13.865088952586067
Cu 13.210902770407852 8.980066372531041 12.338917154560841
Cu 7.151340333736869 11.96048585720123 9.903943099479578
Cu 8.621071823234333 8.9801352723242 12.338895350828725
Cu 7.237597666962417 11.103467604862265 12.27077771657145
Cu 7.037094996621845 9.449591333883253 10.35551721472153
