24
Energy = -66.5000706 eV
Cu 9.211925527931244 11.242533425895774 12.58432705148701
Cu 7.865735575231571 9.102745238911417 12.143557225671605
Cu 9.21617384937248 7.822209623399377 10.405595665217065
Cu 6.934872962489657 11.206773204543108 11.100334092097588
Cu 10.281089151237202 8.939944577538258 12.586324467129709
Cu 7.142727299962631 8.997410234424772 9.713602245999994
Cu 11.070850657461648 7.6301139952603885 8.666255052694504
Cu 11.214730125891096 9.26193115326182 10.409805633239497
Cu 13.27121042107542 8.29355600664681 9.709998903856457
Cu 12.816487243066195 8.851758589775894 12.141692408344314
Cu 11.449978710343634 7.000965377007829 11.099281402763001
Cu 9.370286875179024 9.361604948187642 8.226594132744495
Cu 9.014258051462901 10.281050863951204 10.405099532348725
Cu 7.654441227903291 11.225622508708927 8.66923392918763
Cu 10.991748879715013 11.675046818492405 10.408082018868834
Cu 8.76559663832038 12.729428979013 10.403247470401128
Cu 12.83249654922229 13.008428731133119 11.099646048328959
Cu 11.811848754145123 10.039617277662247 8.228466220100902
Cu 13.242329506510984 10.664066469055633 10.405293421862687
Cu 10.007239681753129 11.811915380744372 8.231364029426947
Cu 12.480490229803353 12.365454906737078 8.667467276901442
Cu 10.817912774745386 13.942641482304012 9.713717209189427
Cu 11.736162212450878 11.021970866706395 12.58206901026669
Cu 10.541931222575563 13.265733468488623 12.141469424020682
