20
Energy = -55.22198188 eV
Cu 9.552882429556666 10.43882817685659 7.2078958183453254
Cu 8.256183660316404 8.358074717556605 7.50571207143248
Cu 10.66088651915614 8.15512175368986 7.354091432268101
Cu 11.069614203491685 12.191898028287346 8.284527085007097
Cu 11.956281102337636 10.073987077201409 7.766224074954298
Cu 10.087135341189711 10.3104185522991 9.575420353050335
Cu 11.924634300116656 8.47769061441046 9.596453040468877
Cu 7.717758560494575 10.211879971517217 8.987815894001457
Cu 8.753415900927656 12.388778992682715 8.804507135186984
Cu 9.560218013685548 7.81055929734608 9.470507384411633
Cu 7.1352172739775215 8.004830163644922 9.761046631007977
Cu 8.392445965836473 11.535324813591375 11.060331494125965
Cu 10.504583907329407 12.600766331874322 10.620530991884555
Cu 12.331998741028075 10.914962084494592 10.121085532445868
Cu 10.664346617976003 8.068312114188618 11.646122084190033
Cu 6.37571990922296 10.10034168885848 10.97903527069364
Cu 8.569204139715362 6.777714657832491 11.411709928014101
Cu 10.590821255805503 10.516508513143782 11.975544514998907
Cu 8.555080962596435 9.180226528596325 11.377133376210773
Cu 12.70942535358114 9.251630080268624 11.862160045642467
