24
Energy = -66.1649651 eV
Cu 8.852450488207507 7.787919175605573 11.9460840158165
Cu 8.158361952288686 10.36934802205693 7.963069367794206
Cu 12.398445893619618 9.952485490302521 9.58839580434717
Cu 9.173331424846358 12.09609085908762 11.155436844330639
Cu 8.150106048784624 12.565741177472528 8.957053995737498
Cu 10.524265637281948 11.371597330125303 13.143746291973912
Cu 11.138369794328948 7.4254460451464395 12.473995973187346
Cu 12.060735546779512 12.125334995390586 8.247982430711636
Cu 7.229972672128449 10.785586802289586 10.27212291129702
Cu 12.66268483721681 14.024036685052582 9.701841620142105
Cu 10.725165929988572 9.705207095634814 11.471866598074861
Cu 13.43238425742649 13.169937712421767 11.885681982106409
Cu 9.779490883436354 12.21331962078688 7.1751868477391385
Cu 9.872841543676087 9.029001133242714 13.809143755903238
Cu 11.001832875228377 7.879149270477422 9.97077644037818
Cu 13.024523988694737 8.403741029512927 11.349664599184614
Cu 13.867516675480568 11.883244207367962 9.868895791940417
Cu 10.328819119546381 13.491469680091631 9.21058777091806
Cu 10.132330050901967 10.871261613024474 9.188865494713847
Cu 13.301549259115165 10.742668442672553 11.956274663792495
Cu 8.346848768263795 10.161763919466331 12.331115920460928
Cu 12.233080173281014 9.345392765942638 13.526471328260369
Cu 8.732036623073672 8.994121592797548 9.939215091717388
Cu 11.590546190885734 12.083750449207278 10.82641339837406
