23
Energy = -63.7923756 eV
Cu 12.350173810493919 10.075117157945183 10.673233090721943
Cu 11.470176242413476 8.470669279973682 8.923199725011962
Cu 10.99745979807924 10.85905876591429 8.749952117091862
Cu 11.432518485719097 7.828258520254566 11.259441674267816
Cu 10.416958606078788 6.910284497183608 7.293994511322772
Cu 10.860487519378557 11.981407419824507 10.936103027252917
Cu 10.425647816291058 6.2544782581654825 9.675777739258137
Cu 9.003316184674874 7.436000855093333 11.371747623666732
Cu 9.957553059864901 9.69692029895203 10.770581552022561
Cu 10.029370399355651 9.30308843505198 7.045645885025511
Cu 9.020933607107846 8.097050188977633 9.00645926562544
Cu 8.465105889879238 10.515909053636207 8.718600573970928
Cu 8.448200695246364 5.751828026757712 8.23501412924293
Cu 9.472361421928479 12.710056402202637 9.108146434254708
Cu 7.032229789372581 6.9427527400442 9.911332008915876
Cu 8.339703665249182 11.547472623036686 10.95642199428
Cu 7.506967268577502 9.226370051674968 10.724256038641231
Cu 9.56681694887125 11.662758218836471 6.836078876570922
Cu 6.619248219670055 8.839190840221494 8.351890892533289
Cu 8.101733800916314 7.654300340234497 6.70640344227771
Cu 6.28152982890912 10.952989398813319 9.662956015603557
Cu 6.200354153554094 6.4730108491901035 7.646454569862572
Cu 7.750712398267957 10.034040021498674 6.468729466135777
