25
Energy = -69.90451223 eV
Cu 8.753999875688265 8.423979623632103 11.87905426715729
Cu 10.167738673314167 10.483972281564455 11.40149265005087
Cu 7.8497860846515675 10.358872625929179 10.67481679371153
Cu 6.329921047739522 8.50904554575521 11.220640027744833
Cu 7.177142651730518 6.336019617926441 11.255135156273822
Cu 9.555462864473961 6.268278513481989 10.898759450852097
Cu 9.105771662186967 12.331620418194875 10.05206569665858
Cu 10.759748488803561 8.300134844236151 10.41301475642154
Cu 12.313895493860306 10.129000609814417 10.215301406284308
Cu 11.456650443757143 12.372608619396983 9.954846514271367
Cu 8.420933576733292 8.143366815364164 9.449780849598051
Cu 6.016054046705402 9.71755459249499 9.200043268598911
Cu 12.493369880848302 11.284531451594383 8.110952993302405
Cu 10.016724653812107 10.223793270074816 8.932633344965295
Cu 6.256099580348748 7.185409531147709 9.065764704939351
Cu 11.815920335111578 8.706448003158144 8.206254220297557
Cu 8.024775591373567 5.400935983271264 9.240962714734994
Cu 10.213333488223554 12.30481556184591 7.7613365130792635
Cu 10.257358051138526 6.725502338510241 8.564386769942878
Cu 7.728430013943976 11.249180986683353 8.403444651384733
Cu 11.149270051527477 10.372529374421669 6.442440415941754
Cu 7.3064196712543374 9.034086802470279 7.318172777363483
Cu 8.062421412763689 6.7525328506058075 7.316940957590211
Cu 8.792876131930917 10.692530286219597 6.349419164944339
Cu 9.675167294222092 8.514290455894148 7.012141113973599
