25
Energy = -69.64529563 eV
Cu 10.910719841397412 11.41904085187015 7.624086130864115
Cu 9.180503657949245 8.501491278006249 11.117916107521484
Cu 8.62425709061914 10.403297825353542 7.257796589948614
Cu 10.619787344399723 11.80169991528266 12.256956301126362
Cu 10.59515185106174 8.987668478016332 7.171811414442114
Cu 7.598024891189973 8.277946838454099 12.896786747732909
Cu 6.408178230217112 9.481058003782138 7.236737849349699
Cu 13.375306305728277 8.906557064951745 12.011548979824111
Cu 9.807272893194458 7.5299738231719715 8.938754433328082
Cu 12.324707578409496 10.686723566181545 10.806881994285854
Cu 11.031438085919643 9.358671302570606 12.576118456162414
Cu 8.383139552661564 7.972335870673193 6.902657567900828
Cu 7.106238306411061 9.87435799315674 11.139688962069986
Cu 8.624352562701683 11.792806109636045 10.808587102529765
Cu 12.762936373874291 10.989977163077445 13.17080515728899
Cu 8.945672211180836 12.505566108652102 8.50019122789544
Cu 10.032185956776903 10.173446459475914 9.513595745028795
Cu 12.11473461354273 7.351756469558551 8.21273393660575
Cu 12.388360398457744 9.74080086677561 8.603008349345275
Cu 8.823048121892333 10.312532511366024 12.787395245320278
Cu 12.651751876363106 12.924775931570549 11.663714902902873
Cu 7.043426791308719 11.067989148342608 9.001953104084802
Cu 11.588574713451829 8.295852102317868 10.422863654007637
Cu 7.7400290797090685 8.737476503639366 9.087668478699696
Cu 10.923519912566151 12.509516055101189 9.893059802718946
