21
Energy = -57.2591348 eV
Cu 10.153870464877272 9.217797591802286 12.73212951630086
Cu 9.944387109361129 11.725345529357174 11.34465262190475
Cu 11.933766786223478 10.172548702281988 11.436803263621586
Cu 8.078147420211222 12.67854628288963 12.524292111852995
Cu 9.815901989274888 9.57692751848271 10.311613396858615
Cu 10.90282222593573 7.555906251764436 10.929133158926668
Cu 13.645202245908607 11.014731283629148 9.953143923113807
Cu 8.493387645837068 7.890394386762473 11.514707345297534
Cu 12.442614835069886 8.98372733329271 9.407260797626972
Cu 8.040506411469067 10.247362710059662 12.126276451906694
Cu 9.002227498127038 7.4803155878631316 9.184269185408741
Cu 11.380423753325337 11.268154287016452 9.28869977852256
Cu 7.6681168723410025 11.822073159260983 10.332821394868589
Cu 11.297748956895024 7.042705052654679 8.558339118189092
Cu 9.09988872450071 11.190883416100359 8.512689202816839
Cu 7.438415084338207 9.397890416586886 9.829268337677728
Cu 10.873074448245921 11.477435709665258 6.938111902361025
Cu 9.612279227292193 7.279858123785121 6.835059766385315
Cu 10.597943634980698 9.263326827556625 7.819355972973137
Cu 6.7550121284785 11.06382165444177 8.177700341023385
Cu 8.165572734920275 9.135674150738607 7.505297019947651
