26
Energy = -71.57627783 eV
Cu 8.12679533204676 8.126800423117556 13.340283176804682
Cu 11.161859400419157 11.634569338609547 9.86340427624248
Cu 9.558350725646017 10.063101738321484 13.47848196900471
Cu 12.51497049581336 14.08114130002042 7.336523997855208
Cu 10.681005670609991 12.513924816290332 7.610910820436919
Cu 12.853791084051883 9.765244517671007 9.723945840017612
Cu 8.660213680393133 9.259400107033425 11.20446703879771
Cu 10.634174886165269 8.610052843150278 9.780883068176616
Cu 11.122925022356943 10.044620907547918 11.71470954575448
Cu 13.47778840144587 10.191867338672179 12.170426560702268
Cu 12.52170394556166 8.001998502680136 11.375567997623937
Cu 10.226200991249156 7.744457790423813 12.199404671603926
Cu 9.11062243336654 10.496870752584279 9.143362704901868
Cu 11.89467370584315 8.669023734172391 13.648586590545996
Cu 11.210752547525042 10.099101619466735 7.9186929577477825
Cu 8.969679049972997 12.94803364706911 9.311462272222194
Cu 10.170539840945484 12.584690222086452 13.218301184919929
Cu 10.552659397190988 14.700569243882976 8.70339642275481
Cu 13.00135591307131 11.817577758008554 8.127369063546185
Cu 13.928691998189668 11.80873857457856 10.387237093803005
Cu 6.547532552261877 7.4003505474847815 14.800158530853302
Cu 10.423488946720862 13.779061370510712 11.068510439501848
Cu 11.857834550808645 11.032935294788292 13.923623146401933
Cu 9.072743590027352 11.618227842592743 11.35990443624797
Cu 12.52562117168208 13.704360176925938 9.725107979878548
Cu 12.265295154151197 12.44262037606838 11.981740231065231
