28
Energy = -79.54768206 eV
Cu 11.08522147474382 13.342597972368539 12.01013624174137
Cu 12.319040306150237 11.42297431884844 12.909857258570938
Cu 13.110436741911572 12.540441973293536 10.841059476982608
Cu 8.882806856923311 13.098455703376672 10.969589886740847
Cu 10.043084075722385 11.157075058260425 12.01746501178447
Cu 10.9074528026695 12.337618930349604 9.777652946884915
Cu 6.728717019994454 12.784759307319968 9.959316111032118
Cu 11.32038018807761 9.199765511475988 12.777568699737206
Cu 7.8512168034497964 10.845257407980055 10.900183455920585
Cu 12.267894612398765 10.259102604977485 10.755813883144125
Cu 12.879598931827108 11.405757187055002 8.66440213882811
Cu 8.65283627448641 11.919781024042509 8.768817225203186
Cu 9.080354135862827 8.832676266329267 11.7714016400578
Cu 9.909214873943913 9.946810445824783 9.732880835039719
Cu 6.5430491681310725 10.602729115188875 8.758316955281844
Cu 10.330348219169414 6.958424095961077 12.629943594166669
Cu 8.53196165927862 9.705897583138626 7.55908850063118
Cu 11.23934966022696 7.963448583647912 10.626744987571572
Cu 9.94840221746845 7.7267391448400575 8.544032303349036
Cu 11.99415555117914 9.124706987934207 8.529977093793313
Cu 10.689866583629161 11.010810854294249 7.6341301374430355
Cu 7.677127627058929 8.628085438748116 9.765490811884943
Cu 6.495959130048925 8.417054209450429 7.660212475798427
Cu 9.117560200909669 6.638964293325097 10.528768538235582
Cu 10.598181179460637 8.84647974202362 6.509577954578603
Cu 8.608000833540148 7.369639381967784 6.621639739922374
Cu 7.619103422625683 6.4813643659565 8.644005314200509
Cu 9.716493979293377 5.401925426154423 8.3055111815474
