28
Energy = -79.10202934 eV
Cu 7.6491369446032165 8.068554958062094 13.831715714390636
Cu 8.864324262391062 7.531343966776792 11.833710331275492
Cu 7.9061401618584295 9.916093057306634 12.320904439197827
Cu 6.497747862786521 8.019303112065979 11.631544203690789
Cu 9.924154663831565 8.972136231112733 13.489987437008862
Cu 7.925979700888137 7.647940884432706 9.583341006257392
Cu 8.415406608838147 11.775622335311965 10.685682159515398
Cu 6.916497983424715 9.822597126610967 10.03317972764746
Cu 7.141002139119993 8.987900182263436 7.658648824887986
Cu 11.207804014870137 7.145790444233433 12.338036962526294
Cu 9.96574463112896 11.20895596393027 12.525521510486055
Cu 9.421485029632997 9.597444699604077 10.292532764386586
Cu 8.307484402618691 10.951552245525434 8.393060510073088
Cu 10.009401787626915 13.440000704519093 11.241792584446808
Cu 12.77700651994838 7.6332945277200634 10.519186620497134
Cu 8.848654699813128 10.209735141698738 6.209357505039014
Cu 10.446292460238764 7.395318951923286 9.951520110357718
Cu 11.561240191316319 9.426051345039394 11.70556641921022
Cu 10.846588413898163 10.383445343124604 8.45387847712096
Cu 9.891924084331578 12.740992202648084 8.807041725147874
Cu 11.21565488458835 11.541316151095566 10.51043083874126
Cu 8.530286278303565 12.652634179292862 6.712918345638891
Cu 12.91461009463984 9.93709680096129 9.700105445062142
Cu 9.500907681184707 8.399828095524803 7.8651109418808165
Cu 11.107485485947604 9.336924963205854 6.218740170933242
Cu 12.035709568960012 8.226948947410673 8.197664100029526
Cu 10.767250561737367 11.807069558319927 6.573921482989227
Cu 12.926116801629085 10.496695859855787 7.310185415219124
