26
Energy = -73.16921457 eV
Cu 8.821720831209447 10.857200501462403 14.356310419302444
Cu 9.968406621467526 9.103926357024832 13.114728110778689
Cu 10.421280180714758 11.540351845696751 12.6894151538324
Cu 7.474584655021499 9.282626376495005 13.034436695391003
Cu 8.055052252711427 11.44636845156843 12.124867347697183
Cu 12.027060202237733 9.961364985950807 11.786031139608836
Cu 13.407909428731887 8.236073373286523 10.778388255271588
Cu 11.030889753256147 7.810101094294888 11.175114380668518
Cu 8.559160909697479 7.7943683074313075 11.442474865460676
Cu 11.216301324519138 11.822529477452196 10.288928590639912
Cu 9.7285870595078 9.876699697511524 10.782545026035743
Cu 9.455019998060518 13.237962637002145 11.215021563768675
Cu 7.24218210412878 9.73221144026656 10.573500874898166
Cu 8.49533947076005 11.689886955875798 9.624841351898889
Cu 10.565764724020493 10.028519751501705 8.467967719174244
Cu 9.533979014429985 7.794359422143679 9.189267228915766
Cu 11.930856315192132 7.960069510279025 8.85427180942626
Cu 8.182328178541718 9.620488560618979 8.272342625320663
Cu 12.8431405694192 10.20522531688797 9.46924601704942
Cu 10.091086866963595 13.401858350384144 8.868561479758311
Cu 11.830831497017963 11.894580059717024 7.763286278953871
Cu 12.619773827537035 9.529846158715019 7.117546288386992
Cu 7.135146153353946 7.665823350902952 9.358470795219459
Cu 9.275289126594611 11.726886776538286 7.314954830795815
Cu 10.360765435240122 8.297322474838232 6.872066907119405
Cu 10.782967012141336 10.53131647668567 5.93188660525967
