27
Energy = -76.37291052 eV
Cu 5.739280919300716 9.241247103165367 7.414220988605282
Cu 7.632520082752733 8.37009572465066 6.27566959472976
Cu 6.970582760018628 7.392048820691644 8.477785458551642
Cu 5.562248168819739 8.964563179384989 9.816928458861515
Cu 5.980578697957551 11.167724504566534 8.81068370844419
Cu 7.672371868251012 10.725388870649883 6.975079196236226
Cu 9.44694317064757 8.006003919145188 7.897208633442017
Cu 7.944942004446301 9.564889370859268 9.126065575798233
Cu 7.502504601592809 7.915966432346048 10.90093005141166
Cu 9.716983962735705 9.53731498525734 5.991793653587401
Cu 6.983948978619848 10.56559735588535 11.058087211341329
Cu 8.879937176650692 6.379667468795738 9.591851356567638
Cu 8.168002393154735 12.113977403949864 9.046872767849633
Cu 9.94065847128573 10.678181402378371 8.125401985238401
Cu 11.614637594431393 9.010881695590916 7.4518015147843215
Cu 11.264937231689307 6.841064011118261 9.257472794893527
Cu 8.669456531175616 9.392446746260239 12.401916016892638
Cu 9.894747814639624 7.46374852184101 11.496441228922697
Cu 10.538326277624446 12.69252353010148 9.368300657634116
Cu 10.768635310055489 9.075579090861487 9.862273537851372
Cu 9.464928879666003 10.981360996317564 10.755287673277705
Cu 13.184803964298323 8.511589676038485 9.192146397313925
Cu 12.27970686649461 10.862380304953211 9.049701159292583
Cu 12.333954610590856 7.666006508497478 11.33340344929854
Cu 11.07228173579649 9.593711660201722 12.269506046314074
Cu 11.741166330255762 11.786923933932368 11.254669162795219
Cu 13.216831330398849 9.924567074083864 11.133288895637461
