24
Energy = -67.29933435 eV
Cu 12.3889724914326 13.57882746200791 10.218299113199905
Cu 9.934334681328822 14.08362375613412 9.75402452575684
Cu 13.260882934577612 11.506290383288393 9.000869476409045
Cu 10.892776526788102 11.985550797808568 9.311457884672713
Cu 12.566981626549957 11.318186592600169 11.294210963322925
Cu 11.635145074496037 9.723785537106288 9.33182361076764
Cu 10.662097687203278 12.87061386489605 11.817711438668928
Cu 8.741125328926675 12.414251997621413 8.224453674934066
Cu 13.771294638508298 9.294486563310409 10.571799668943074
Cu 13.684754334372471 10.00528452850978 12.980165185454954
Cu 10.174824166854103 10.572312530103622 11.219746567127498
Cu 10.338455468516392 10.563094027742638 7.315152174309603
Cu 8.481375951697744 12.290648713798127 10.651690165394957
Cu 12.054068641799887 7.489577946902744 9.855446675782924
Cu 11.35674665623529 10.841962171904859 13.39317917443327
Cu 7.900387571648325 10.54490593716541 6.970932885790314
Cu 11.842812650243603 8.854540506108316 11.943821711868631
Cu 8.94180897199516 11.497945666017797 13.030980133826143
Cu 10.295995603033075 8.150629296177055 8.157387294549736
Cu 6.823715971492542 11.249190572795744 9.18020467128882
Cu 9.808553546008197 8.270642616882357 10.588134656030283
Cu 8.88927362112809 10.0081933818675 9.102778985122267
Cu 7.826151825813287 9.971039238345474 11.299273259185243
Cu 9.526430172707668 9.087525814493098 12.9644709580449
