20
Energy = -54.47911884 eV
Cu 6.321613962697039 8.387519338494787 8.803567023855235
Cu 8.154340912894517 6.895223790280606 7.91496321542988
Cu 8.303307957855163 9.290639038592621 7.701342892804925
Cu 12.85445600583905 11.018061168999724 7.602160153426351
Cu 8.834541464774816 11.684373312111124 8.327376440950019
Cu 6.96566756247414 11.073701981286378 12.042273242684791
Cu 11.042499496635813 10.381285373870675 11.431011801428125
Cu 10.414625576986074 7.864504641235053 8.21436067896426
Cu 10.598271140768002 7.974587939101338 10.799514361529965
Cu 12.096537150790281 9.423932848964325 9.356559319914412
Cu 6.329759804508842 8.890450174436312 11.295703960659873
Cu 9.665756773044752 9.835888178450203 9.595903078116292
Cu 11.155837524055265 11.747249290841033 9.281020383587391
Cu 8.753956771428337 9.456839677769802 11.87360414962274
Cu 12.545441303512652 8.71631887685096 7.099566823000938
Cu 8.22483984159428 7.788745429416853 10.16067941235989
Cu 9.012094885112074 11.791725576757615 10.862928837864793
Cu 10.60961888249942 10.197598382658319 7.350129125104206
Cu 7.216320155550716 10.473840275822573 9.706094976698232
Cu 9.75119734876166 6.00855015951349 9.60059706942593
