22
Energy = -60.39270916 eV
Cu 10.626404490831225 9.12074770985253 13.225104031976365
Cu 12.111801460861107 14.646678456736339 11.76237255822721
Cu 11.078213468585636 9.331218582619623 10.885810806964203
Cu 8.759242831116833 9.14608279780893 11.642957567017831
Cu 7.249711312630565 11.02264718130182 11.493040546528766
Cu 12.949344851343955 13.54177362397779 9.822007884495067
Cu 10.455328920011507 13.292430954336359 12.994783429032157
Cu 16.17990229921536 12.077006602935217 11.931801398006447
Cu 10.583191566046692 13.320573948445224 10.346847468960474
Cu 12.763409268649452 13.415214485554417 13.705846161087804
Cu 9.476692291998011 11.151498480172483 10.424197545128532
Cu 12.932002885326861 9.42525237930406 12.50129465739024
Cu 14.11001947148376 11.51030829862419 13.0637215806238
Cu 11.67782352805779 11.261133738080677 13.5102659843131
Cu 13.384360904930142 9.406546879884901 10.133278579400244
Cu 11.892573149996668 11.34097872469473 9.864129857046057
Cu 9.270559020709891 11.16171891794298 12.906779252604862
Cu 14.291870361852864 11.65007986080596 10.480304988915204
Cu 14.360122154926653 13.669012269343295 11.860471583860082
Cu 9.726953052066795 15.132599619960132 11.658827428974426
Cu 8.428054831016189 13.098179680621028 11.600231607754882
Cu 15.243579878341873 9.829478934848039 11.737087337393888
