24
Energy = -66.90679045 eV
Cu 11.17415098653632 9.181011011683976 13.545777337641903
Cu 12.65726063681682 9.590583619895915 11.492595685525295
Cu 12.836200517839995 7.510223980647192 10.197678789796884
Cu 9.15920517806662 12.648768053901048 6.766808249463093
Cu 9.15936361540461 10.892339984253354 13.208140148650685
Cu 8.566097729460866 10.3053894216749 6.90388143950584
Cu 8.5088953809786 7.948927897418923 10.450506254102988
Cu 12.060304928680608 9.463746909265785 9.064733525893704
Cu 10.660026274264915 8.835009467481225 7.152733763501312
Cu 8.504755692899757 7.844981096521742 7.898915347065741
Cu 11.494709699310356 11.501432502926614 12.612253621048815
Cu 8.325740444097642 11.79835464915261 8.95969748123224
Cu 10.814494096685479 11.262565349053215 7.790148435752819
Cu 6.741612546917019 8.804135068229604 6.570825006820543
Cu 10.583219856446174 7.454410243510591 9.238892292413526
Cu 10.226135620449579 13.285860057744078 8.97354874305292
Cu 9.544932642064559 9.715271127461738 9.144286368018086
Cu 10.291665679150226 9.839457852486579 11.378306981488445
Cu 10.872315066049472 7.542356279716714 11.683241393728327
Cu 9.503496471744471 12.18045566040501 11.091783162962674
Cu 7.095241852987781 9.527901333005804 8.89403029869363
Cu 11.62937702904456 11.573317596921662 10.117344196163593
Cu 8.870605157117568 8.503456976180432 12.810386108813349
Cu 7.90450933246495 10.279030742534799 11.065656707909698
