20
Energy = -54.23657163 eV
Cu 11.734270141851194 11.721308719116758 11.071110233057048
Cu 8.271859858148806 11.721308719116758 8.93501976694295
Cu 9.332055286207403 12.454712519467751 10.996968609920392
Cu 8.207174088978306 8.189246084666838 10.998289929223692
Cu 9.999604652526054 10.003010985355365 11.16379629821085
Cu 11.798955911021691 8.189246084666838 9.00784007077631
Cu 10.627328494773941 7.640233815713159 11.06915980766695
Cu 12.457627019580945 9.352637502069786 10.996032087527023
Cu 10.006525347473946 10.003010985355365 8.842333701789146
Cu 7.642527390383676 10.645779704842639 11.069944873109744
Cu 9.378801505226061 7.640233815713159 8.936970192333048
Cu 7.548502980419054 9.352637502069786 9.010097912472979
Cu 12.363602609616324 10.645779704842639 8.936185126890258
Cu 10.674074713792594 12.454712519467751 9.009161390079605
Cu 11.348002595799244 9.44203679530827 6.96922285591253
Cu 9.823435544755336 11.457297167999295 6.96746680547985
Cu 8.842847854649792 9.12438670546013 6.967943952016929
Cu 8.658127404200759 9.44203679530827 13.03690714408747
Cu 11.163282145350205 9.12438670546013 13.03818604798307
Cu 10.182694455244665 11.457297167999295 13.03866319452015
