28
Energy = -77.84720681 eV
Cu 9.24852510751572 11.031438779534692 9.821262142356783
Cu 14.241566836193805 17.55684580511348 13.404554661123893
Cu 12.626479235362666 14.030172957321058 13.92164901808741
Cu 9.492509835086317 12.518430095569634 11.696000715523125
Cu 11.513129828484525 12.263513220412227 15.199332988419208
Cu 12.220844425379926 8.987323162843326 11.862511651101174
Cu 13.692682551968582 11.55436528785863 14.186312435583593
Cu 11.745752171074622 11.936319611323642 12.647057069850332
Cu 15.122689994412893 13.614852889401426 14.143329998616704
Cu 13.574135195270195 13.374417070484037 16.043816954044445
Cu 13.838251646089722 17.056717823061813 11.071106261335915
Cu 13.511551282366069 14.73623652746035 10.29531243806825
Cu 14.305986247497705 15.349943846832247 12.576941232730132
Cu 11.592047364797919 14.09964099077686 11.57462679066733
Cu 10.797882097432685 9.154581345966024 9.890847282722783
Cu 13.0839972020198 9.882400036305954 9.709592292665713
Cu 13.90413129978319 10.708635913391586 11.807016207293499
Cu 11.580479650743001 9.966461660003418 14.024277574850448
Cu 10.576937591134374 13.085085262772918 9.5819679307215
Cu 15.477294473158748 11.86979328091667 15.731486181740049
Cu 10.043194424977335 10.116196629474237 11.97522132858919
Cu 13.865538275613584 9.151535206485333 13.62985851998643
Cu 14.06597663690374 15.656296254465298 14.99226613475583
Cu 13.973606936203604 13.06069392363708 12.041546049971483
Cu 9.569891696969151 11.424578973950279 13.950633107165343
Cu 10.239032199245264 13.74136549471677 13.629694598287031
Cu 12.736718685418252 12.24223981756566 10.171648048110889
Cu 11.327881381067723 11.059629928728505 8.508504513007646
