25
Energy = -70.2515098 eV
Cu 8.555503937259296 10.023018658485439 6.365200428840167
Cu 10.491179150783246 8.401818470658476 6.698157376175942
Cu 10.804370767834651 10.88777614910411 7.439113970294276
Cu 8.147003887315709 7.648064259998686 7.192252931969069
Cu 9.233431124225884 9.277548985522353 8.49332176576926
Cu 11.728938675455813 9.014588525135043 8.849336046751601
Cu 6.910496606673062 9.580065679917132 8.200768258599375
Cu 10.640164598323992 12.93574754675575 8.869235889456355
Cu 10.011742997600729 7.001579495834397 8.78690689946748
Cu 8.48403236693603 11.654130234111534 8.417843974822862
Cu 10.328847491462774 10.847048363381779 9.870953688903546
Cu 7.840773295275069 7.814196397485417 9.834972844259928
Cu 12.610711092521706 11.357136880890348 9.347092769086123
Cu 8.966349081371368 12.596501798516254 10.809056419587675
Cu 9.374699808675768 6.455223731131021 11.255707254604092
Cu 7.936163509711668 10.258535151287617 10.44508390259769
Cu 11.454990394260987 12.425322782377659 11.341499724805933
Cu 10.199064259119382 8.550724075929335 10.714159621715513
Cu 12.171746778694304 9.835755264834159 11.258829547460405
Cu 9.58230444042412 10.68377248057374 12.279686670959931
Cu 13.660030140298751 11.601950154821976 11.764602093901736
Cu 9.996592287022112 12.851102726022528 13.173369262650963
Cu 8.341146437052448 8.524094657065971 12.203101635088727
Cu 11.777652509818697 11.048293546440581 13.36693932222002
Cu 10.784539265810714 8.758478887646827 13.055282603939318
