20
Energy = -54.08759233 eV
Cu 12.088958419253759 9.047899438880604 10.474483714231058
Cu 8.00961436905497 8.630307604527653 11.432643567373175
Cu 6.707148774682024 11.755503925225531 8.276262555954068
Cu 7.484065043189694 7.46641949120688 9.22377599603791
Cu 9.202027090960708 8.52992974444333 7.664516145563845
Cu 10.501855212946046 12.492779056204112 8.815290808241002
Cu 12.132125274049171 11.405778816054214 10.181020528128219
Cu 9.737728955857373 10.371399445093965 10.89409561369863
Cu 12.663166170445693 8.179461193049073 12.653696119352027
Cu 9.705028905106781 7.977626126967274 9.94231060023236
Cu 8.961757894174644 11.048442503036403 7.598255885372285
Cu 10.372481067645191 12.593959747830246 11.371401674540765
Cu 11.493327256695089 7.613608106254486 8.513692524455893
Cu 7.804043306861518 9.813552676229934 9.332420656657005
Cu 11.627584806466155 10.544888376467389 12.42159804133813
Cu 8.39884683129398 12.145955101369038 9.914884433605401
Cu 8.421159854792114 13.40058302920515 7.80046910225374
Cu 10.935683328438277 10.026676040496726 8.540224605985346
Cu 11.6819190267245 6.770288349082124 10.92212030189905
Cu 10.328658361781647 8.442121178794936 12.284017075499465
