28
Energy = -79.27063134 eV
Cu 8.528914705785258 13.112519512843656 11.951438596185367
Cu 10.430071465335798 11.651647745835756 12.539665028119849
Cu 12.29112330135552 10.254986591138266 13.142344343311448
Cu 8.352068101038329 10.706310405823617 11.602263215954663
Cu 10.310868860836543 9.182741763638683 12.197235138363526
Cu 12.921150110972514 6.54933087598558 10.171512248712522
Cu 7.383866395219415 12.352447265218848 9.970131378587354
Cu 8.277692282058345 8.272625137486205 11.158168680946261
Cu 10.592434346587156 7.199784091797245 10.736112472006882
Cu 9.869222425181286 12.109504373123654 10.183179410226977
Cu 7.001071962135694 9.921407340694328 9.72159670458482
Cu 11.841813902307127 10.593113924329804 10.771841078289565
Cu 8.31159899741184 5.975699761919569 10.618279321308
Cu 12.560501625129671 8.410301977941563 11.614447099438136
Cu 8.754991989691021 11.526912729186067 8.085559856691383
Cu 6.730285027653533 7.552096931784638 9.355544081615342
Cu 9.658635443897214 9.613025157555732 9.698918360414881
Cu 6.337687812723796 11.406372915855158 7.918649867812795
Cu 11.202870454300603 10.9774895370794 8.432328460394562
Cu 5.608734445286742 9.107318322746417 7.8275886414876
Cu 9.030262924267516 7.293473033539439 8.808034064664268
Cu 12.262397220958286 8.73749214185016 9.182414108031827
Cu 11.32718157878431 6.552233950016243 8.433135583151468
Cu 7.646159297869005 10.973392413500962 5.932997535206987
Cu 8.007612577992692 9.18439534740254 7.527769506331222
Cu 12.394086749188272 9.76033342734506 6.80345869416019
Cu 10.446201778140528 8.626655707234718 7.48091739413069
Cu 10.047787023724123 10.627948193844013 6.2621065378849465
