22
Energy = -60.52817679 eV
Cu 10.356159088431172 7.393838433593926 6.247422162696815
Cu 10.776076749265146 10.095267605835641 6.571702364103296
Cu 12.053278397894607 8.66307706553427 7.975826514419299
Cu 8.58752453441322 9.458505726941189 5.9526735277376925
Cu 11.11983130135835 6.629430325573043 8.765525604435398
Cu 7.652483112801654 7.4157851424941805 6.713698949572777
Cu 8.935725293437077 6.001546484543498 8.132097915149835
Cu 9.515953756558929 8.490170376175701 8.113947703792629
Cu 10.910170866149329 10.621013129574278 8.97946894546868
Cu 11.11423733547019 8.593097573456568 10.267884703201558
Cu 8.870899750648997 11.116499899744554 7.767702413649064
Cu 9.225581356099282 12.119442854662829 9.997255671482508
Cu 10.4971832975528 10.701966917051008 11.417802510321993
Cu 9.278843218083155 7.012389690317215 10.377135570761796
Cu 8.642465808565209 9.631298589721597 10.022924515423203
Cu 7.041273462930404 9.529127160116728 7.871748554547901
Cu 7.252539707301173 7.508175801274107 9.161568526115065
Cu 7.036004830288515 11.49495794709094 9.375194952184053
Cu 7.805394813804959 10.727373221932197 11.888302270920589
Cu 9.564066093769789 8.668854854961435 12.197850879112703
Cu 7.375824501190336 8.042547281813329 11.579092683145785
Cu 6.105541331604975 9.465009435097242 10.167278173775443
