27
Energy = -75.82329626 eV
Cu 14.781779430560302 9.846343150454725 11.8217432213176
Cu 11.5621399853258 12.179252611261873 12.4888174593701
Cu 12.639373607057825 10.570781473190365 10.83296309094044
Cu 14.179527953972602 8.481363863081265 13.848777524128424
Cu 10.486659449819603 9.815288547809535 12.235318149174649
Cu 14.05745526938051 11.928205560479809 9.355028778084112
Cu 8.856065350130978 9.155859067322542 10.281649005004219
Cu 12.030938514150774 10.83285695288174 8.507723815994094
Cu 11.213994022507414 8.839996413495617 9.965769776547138
Cu 7.6598328256027886 13.524157041495258 11.939661309771255
Cu 9.976558251450593 13.571085757829456 11.340522365656597
Cu 13.00337273960799 9.887468738909636 15.629432152004695
Cu 10.461078541296581 14.33574228462971 9.02446353204439
Cu 10.95912961822084 10.85690348688925 14.51655385160022
Cu 8.380568710500482 13.168079107257828 9.586221006726952
Cu 13.095023873642578 10.530286983425734 13.357390758708103
Cu 11.717307512389006 8.560876880425043 14.083797239478404
Cu 8.027388791018396 11.263886107138168 11.190056837135776
Cu 12.109906903028044 13.018397145094251 10.273886084538077
Cu 10.024481034210973 12.2000127038573 7.916497883380633
Cu 12.31003694925178 13.173772024827569 7.88760650039154
Cu 13.97111565868789 12.2756107302412 11.819715051841257
Cu 10.227781159376468 11.20390302847244 10.198303420456586
Cu 12.673144766493314 8.379225125894935 11.920100702656768
Cu 9.261772233052532 11.97413143660055 13.122445197389274
Cu 9.938376026815526 9.665080939106845 8.075666848950949
Cu 8.053872439604033 10.93860162502126 8.742338381808894
