25
Energy = -69.64892254 eV
Cu 8.438217700012048 8.989477051558458 5.857276121900081
Cu 9.259504897816578 6.611390110995661 6.095912337000183
Cu 6.010429392681126 9.026297575306705 5.633283193240066
Cu 10.799397785983246 8.535433760056659 6.610344337878153
Cu 9.496013562423494 10.317595878509923 7.735852087026452
Cu 4.74588683494006 10.71713316588827 6.762723823880245
Cu 7.151782904043559 10.715872730044305 7.086340490143744
Cu 8.863321242224774 7.993871912803604 8.009126542038336
Cu 8.414025241552588 5.599847860277509 8.239245393933212
Cu 10.84919245870956 6.383519609416666 7.997366706737707
Cu 6.929948847911848 7.115079748772092 6.875778135239734
Cu 11.909620665719475 10.495814085552789 7.780179359634725
Cu 5.764491273280854 8.919014710291608 8.097628649403635
Cu 5.59712355042914 11.209808354264696 8.94863057563297
Cu 7.995120600939532 11.296550775953216 9.37880210639892
Cu 7.74738206386851 5.3254808326431755 10.709816154939883
Cu 11.986019255672831 6.652012411159559 10.160266783297278
Cu 11.086632148099405 8.627509161160786 9.084449710661362
Cu 10.50603830378823 10.923938248470726 9.842879735113277
Cu 8.879216284447708 9.22580275123716 10.175390962488668
Cu 7.050075720308193 7.292248402154954 9.44883900633439
Cu 9.5803476105836 6.748973048304703 10.11009234655283
Cu 6.523325970820917 9.47280659750395 10.416654568101595
Cu 10.737003583668828 8.358234522933392 11.48556760179394
Cu 7.903694198931762 7.670098793597162 11.681365369485542
