22
Energy = -60.62818626 eV
Cu 7.044742583664027 12.851452439166858 10.730106
Cu 9.488721876272088 10.011270359437637 12.80761772160538
Cu 8.301517573123048 12.137031743068846 12.715989573943695
Cu 13.158694426876943 12.137031743068846 12.715989573943695
Cu 9.496327687396112 12.920347650181114 10.730106
Cu 13.158694426876943 12.137031743068846 8.744222426056298
Cu 11.963884312603886 12.920347650181114 10.730106
Cu 10.730106 12.17204541505872 8.653803425639778
Cu 10.730106 10.731553790034175 10.730106
Cu 10.730106 12.17204541505872 12.80640857436022
Cu 11.97149012372791 10.011270359437637 12.80761772160538
Cu 8.22176315534198 10.702852369820663 10.730106
Cu 10.730106 7.917674012148881 8.7431674743177
Cu 12.00510581790672 8.568630410181036 10.730106
Cu 9.488721876272088 10.011270359437637 8.652594278394615
Cu 9.455106182093276 8.568630410181036 10.730106
Cu 11.97149012372791 10.011270359437637 8.652594278394615
Cu 8.301517573123048 12.137031743068846 8.744222426056298
Cu 10.730106 7.917674012148881 12.717044525682303
Cu 14.415469416335968 12.851452439166858 10.730106
Cu 13.238448844658013 10.702852369820663 10.730106
Cu 10.730106 6.471565718228223 10.730106
