26
Energy = -72.20646924 eV
Cu 10.105063978000109 14.530836885332592 13.014718053578394
Cu 12.692465095948037 8.893193384796627 9.048613555221504
Cu 11.349135166521371 13.40151341957085 8.538254203354569
Cu 13.706803579124205 12.42031818636764 8.999817270955871
Cu 8.82343831399311 10.108397674527488 11.168218585342988
Cu 10.052926194179246 9.192750456458379 8.925897150497557
Cu 9.76002775019569 11.893052762973035 9.774102497552636
Cu 11.247308094064461 10.081356589185951 10.735097068440734
Cu 11.382007822233337 6.996366227598044 9.458572572639763
Cu 8.617623021534675 10.610394270373803 13.554484876223961
Cu 10.369980895198253 11.734727150245568 12.362867912450694
Cu 12.547414281584171 8.292903660001329 11.495118485090462
Cu 12.340681748209745 14.82436374493317 12.236161380012465
Cu 11.751569399684003 11.036956827680038 8.514653126431043
Cu 12.04091252786491 12.414494646399701 10.741277436923996
Cu 8.473703471240908 12.951513765836044 11.791227200796053
Cu 9.975427875532755 7.9249179797596225 11.074150198488756
Cu 13.941388951957963 12.796017053067992 12.05153932328917
Cu 12.007130596099413 12.956330560418007 13.677330763821741
Cu 10.387652857354206 14.182130280798399 10.679539321939732
Cu 12.64583059230206 10.68957987859148 12.776107455093412
Cu 10.95233141080267 10.927247824790927 14.636775350494972
Cu 13.687431381505975 10.534528572322728 10.580913865619838
Cu 10.610281132060896 9.230886134861333 12.973692597639808
Cu 9.360851142027146 12.770214253338118 14.3414183253421
Cu 12.973294001731505 14.510810175684181 10.011522714218634
