28
Energy = -77.8170327 eV
Cu 9.987891947896859 12.940459829439437 13.903070349538027
Cu 11.506380214885608 11.38317555434589 10.108157986237881
Cu 11.29032972702568 9.212870674681303 9.244710086166732
Cu 12.715809413519725 9.346351450970003 11.485805020665964
Cu 10.088495239044683 11.054297903512259 7.896346428365823
Cu 16.12570711398278 14.190746151292124 16.913317976168305
Cu 12.4227171022283 10.94636837184064 7.5978675050906315
Cu 9.09060421974501 10.361490373344258 9.92969847350386
Cu 13.906416354346566 13.986735981712803 11.213631152512054
Cu 13.464271499558311 12.639810452336695 9.093604398542187
Cu 13.665094208274136 10.110058311124964 9.426405960699629
Cu 13.21231250832156 11.087201093022532 15.24813707497651
Cu 10.4042672664398 9.470081031611297 11.713295892156387
Cu 9.518990721090642 10.454247620835034 13.704428469569509
Cu 10.86194219929594 11.236684107038837 15.487181842536888
Cu 14.471024154003192 13.100958368171812 15.796874386257208
Cu 12.13668652599279 13.271440982352955 15.046953349649026
Cu 13.708177561373383 11.622171548245722 11.30681050396886
Cu 9.67153591672853 14.233595773497244 11.693883324115161
Cu 9.662824459408077 11.86215654784379 11.739576269750563
Cu 9.515231164330164 12.84495478513635 9.520952395345773
Cu 11.806016798090587 9.33777740878406 14.023091739755754
Cu 11.813510958014303 11.411164478977211 12.936483731602152
Cu 13.959722450306296 12.735126401155435 13.467575818517107
Cu 11.645614541471861 13.864443756047248 10.259931505164843
Cu 11.901723401283785 13.850206262194849 12.623928219571196
Cu 11.361323539217166 13.125473342826401 7.9222989909261505
Cu 14.104642600508166 10.199602833383368 13.231102052782576
