20
Energy = -54.09092861 eV
Cu 8.143185059108433 9.241899779191018 7.518932816827523
Cu 8.535009204740998 7.316735317228698 9.113579692137806
Cu 9.237242252114044 5.584252902700689 10.944687183356832
Cu 7.875203538679563 9.570346455399786 9.911904280328322
Cu 8.622181585678192 11.401757267649504 8.481309185567978
Cu 10.215841741892033 9.076091351936888 8.684765140992013
Cu 10.179953601618369 10.531577983660426 6.793444167595515
Cu 7.7147234044726325 11.851768091334955 10.701460317063221
Cu 10.757407457582095 7.204858780617895 10.080496880406121
Cu 10.682456230212303 7.056004699482342 12.433805517808912
Cu 8.669191885456751 7.870095294615143 11.46277130958787
Cu 9.266745668106866 13.398068297711315 9.738505397764238
Cu 12.402031815601632 8.918046889387202 9.769245974795437
Cu 10.081400242234373 11.813992095124556 11.464413948504932
Cu 8.506731810449464 10.158315881298881 12.207439278666422
Cu 11.874200524127932 10.921130034043163 8.558336034253326
Cu 10.518553555914936 12.772641452932499 7.748220767380694
Cu 10.661287426448956 9.353497607093455 11.436861841720862
Cu 11.603014506066039 12.94617219508664 9.9039693759358
Cu 12.386868330081564 10.996410463639027 10.982935726305097
