25
Energy = -69.93023482 eV
Cu 8.931581250583436 11.246982265810102 11.30574964985354
Cu 10.949309467957711 7.836062383648814 11.700957120248274
Cu 7.272660871345125 12.147568695809472 9.85189014627296
Cu 7.67054385268493 9.589579719564156 9.986546718757381
Cu 9.211022340763977 11.230715034463126 8.641980953472045
Cu 9.474577995873759 6.379740299025548 7.910892682477494
Cu 7.096430148205431 10.468448583277207 7.875587317995887
Cu 11.235323871249625 7.495084847615978 9.174744787429939
Cu 11.105791264739429 7.825858493396099 6.82308375570443
Cu 11.246202364885105 10.01522591379467 7.969703623816142
Cu 11.122658171526313 10.291077557650906 12.286162517453409
Cu 13.26066279798402 11.04793365189973 8.726615043604838
Cu 9.030118707420222 8.780789227619719 7.951757895946762
Cu 9.611404170604867 13.258756158353425 10.061486052959214
Cu 9.20206053110236 11.098385351064467 13.649306529996267
Cu 10.510178534262803 12.778432777996418 12.33019126884232
Cu 10.26599438730341 8.806965546011703 13.932485263016202
Cu 11.452974914090753 11.613913768344144 10.320896733034356
Cu 8.084879710697939 13.276501303977177 12.055716577213754
Cu 8.74083129444073 8.932301893403043 12.111769922889797
Cu 11.222725400171306 12.512228704484741 8.179254592861087
Cu 13.154686270722753 8.556993762837777 7.989015145417628
Cu 8.911278029926597 7.373574742828147 10.108910781352217
Cu 10.108346338987237 9.471520714174728 10.137882364539724
Cu 12.50241215645969 9.34001344693823 10.2920673988333
