28
Energy = -77.72555253 eV
Cu 12.421052188710616 14.856210729886767 9.873878176323423
Cu 7.954509172857357 10.104621614568085 12.809569082672574
Cu 8.98348701966393 7.8440097940072695 12.347251257061144
Cu 9.665199929813518 9.199537780560657 14.224010516474603
Cu 12.04961167130894 9.405801968246037 10.268797946025833
Cu 12.771806562602118 17.049975808741753 11.013214668364501
Cu 13.74989491961458 11.174211224995059 10.242320274733176
Cu 11.555529237342707 10.633948331807645 13.863694307893525
Cu 13.212870818517015 7.643200415200399 11.367290736925447
Cu 11.177042772137321 12.983321835919515 13.262828586209501
Cu 10.525700439732441 13.782221596904561 10.99155751801525
Cu 9.774619305077541 9.750989659302112 11.172405077275974
Cu 11.804813498605698 15.310113179844494 12.32511597460156
Cu 15.274644030122468 13.134991608877135 10.419739975748579
Cu 9.372088638204865 11.584678031901332 14.339619509652128
Cu 15.223760954793041 11.536065357056414 12.160457442301299
Cu 14.498921677999377 15.329341204612719 10.94893657558538
Cu 10.510894555875307 16.188060685432482 10.448412220195896
Cu 13.163176116176476 13.223298669134147 11.61611474786561
Cu 9.214526265978295 12.027797999710272 12.005429112364473
Cu 13.523892330711355 12.00609526714491 13.789361561283519
Cu 11.46641531928349 11.526361874130993 11.190112708934162
Cu 11.414228595797269 8.4794102635547 12.723132066841044
Cu 10.742326145796603 7.431904503438472 10.691718548798502
Cu 13.377500651039295 9.932384460592909 12.333074145022424
Cu 13.924222534227658 16.27277906686394 13.057251167800768
Cu 15.125208589033617 13.912706215001263 12.912954557046536
Cu 13.064500047144966 14.304984300665621 14.144927842378634
