21
Energy = -56.07688532 eV
Cu 9.136896 9.136896 9.136896
Cu 9.136896 7.678267092458843 11.125043771924066
Cu 9.136896 10.595524907541154 11.125043771924066
Cu 9.136896 10.595524907541154 7.148748228075938
Cu 9.136896 7.678267092458843 7.148748228075938
Cu 7.092953710840265 9.136896 10.496295776145102
Cu 11.180838289159732 9.136896 10.496295776145102
Cu 7.092953710840265 9.136896 7.7774962238549
Cu 11.180838289159732 9.136896 7.7774962238549
Cu 7.747465412653942 11.179218119709896 9.136896
Cu 7.747465412653942 7.094573880290104 9.136896
Cu 10.526326587346059 11.179218119709896 9.136896
Cu 10.526326587346059 7.094573880290104 9.136896
Cu 6.876078557168715 6.925131396635463 6.914658988444338
Cu 11.397713442831286 6.925131396635463 6.914658988444338
Cu 6.876078557168715 11.348660603364536 11.359133011555667
Cu 11.397713442831286 11.348660603364536 11.359133011555667
Cu 6.876078557168715 11.348660603364536 6.914658988444338
Cu 11.397713442831286 11.348660603364536 6.914658988444338
Cu 6.876078557168715 6.925131396635463 11.359133011555667
Cu 11.397713442831286 6.925131396635463 11.359133011555667
