29
Energy = -80.92464142 eV
Cu 15.140047431870887 9.440558069175696 11.707174646557531
Cu 15.232407750549788 10.522047534797533 9.594952852569007
Cu 13.012292604793803 8.894305988171373 12.559144476428816
Cu 13.288201300430195 10.960311003861326 11.16247920317541
Cu 12.703660871498325 6.6402605520736016 13.33685149033385
Cu 10.801665732254184 14.582707919735586 11.864336570862744
Cu 13.495010600926479 8.782097939094317 9.965277741139316
Cu 11.074772935219688 10.408084133233444 12.41956032213196
Cu 11.188727564952055 12.4145287154449 10.938695418894024
Cu 10.7719259343231 8.04806039431011 13.148381412051075
Cu 11.962307690476198 7.2307868534830595 11.14018655215922
Cu 10.301191473092029 14.188349692211645 9.556164231446166
Cu 13.142056722913013 10.866030459231503 8.553751815705816
Cu 11.034625538817332 12.175418248367437 8.377218804827901
Cu 9.194715013982195 10.944287314942486 10.953296017516209
Cu 11.301483661203338 10.188320134147492 9.93635107831891
Cu 7.544828831081128 11.485580835598011 12.661944364654076
Cu 8.799283061262733 13.323678804484686 11.377118155917643
Cu 8.796889611117209 9.467247923963109 12.889124494078871
Cu 6.523557679070412 13.610569842942917 12.162945647755128
Cu 9.738735607890092 8.422424926245402 10.91977157159351
Cu 11.299567930070102 8.034845510600595 8.979796312708087
Cu 8.721575214048945 12.4577825904056 8.968039934547196
Cu 11.168252993374004 9.926570476423944 7.425579844634785
Cu 7.360789146057403 9.510339032054736 10.702489027049758
Cu 6.855225552071359 11.973463195363497 10.441435951752409
Cu 9.107524680428828 11.15811651071985 7.008891935222006
Cu 9.14738014092734 9.502902178377983 8.812846676252253
Cu 7.109461477771341 10.697561815657284 8.41989397295117
