24
Energy = -66.99443908 eV
Cu 9.27341660871916 10.823359418119137 6.875387604850259
Cu 9.616175168919272 7.023467411148493 5.519818225004585
Cu 9.090985301817925 12.284011678452964 8.834953885191933
Cu 11.000036077748462 10.62810717202545 8.531864806966757
Cu 7.55204533062201 10.320486192869962 8.480417306852194
Cu 7.155065639738765 11.847918136855167 10.333517252049656
Cu 11.113506960478194 12.295975494019078 10.35659473191234
Cu 8.180135867861205 8.63010706371465 6.6829098027831915
Cu 10.676438998877098 8.804356705797327 6.772744265805312
Cu 9.065117633442243 12.900855084757893 11.39651919182429
Cu 8.882524536519076 6.539577630344964 7.782146851195829
Cu 9.412737251923284 8.683541612816517 8.93415585722945
Cu 7.06892951955663 7.9170311551246275 8.801718522984505
Cu 9.325820135438413 10.54075624980228 10.538963672934063
Cu 12.068562680184685 10.127730599198198 10.66821489545272
Cu 11.896049205428847 8.361203080181774 8.927923073334421
Cu 11.270872644010115 6.502855315408337 7.280679179275062
Cu 7.909826719940409 11.143660072265348 12.548991481362814
Cu 7.1442996956518074 9.389369405774387 10.759622265556606
Cu 10.529516531494533 6.442195845156627 9.58237875869365
Cu 8.47996482967058 7.270607116266613 10.713163287281288
Cu 10.470975501111383 10.946119743658281 12.528038993644039
Cu 10.671232355289055 8.309999966393368 11.147639380833443
Cu 8.828374239673941 8.944597077582197 12.5070964283818
