20
Energy = -55.1392399 eV
Cu 10.496282 10.496282 8.112959742993262
Cu 10.496282 11.637316617377758 10.300910201605769
Cu 10.496282 7.071974250115998 10.370554506998305
Cu 8.338792524351849 10.496282 9.603667304903531
Cu 9.184315828414363 8.393821146868666 8.550394750962187
Cu 9.184315828414363 12.59874285313134 8.550394750962187
Cu 8.374869966649268 8.401910061053751 10.958772096636201
Cu 8.374869966649268 12.590653938946254 10.958772096636201
Cu 10.496282 13.920589749884005 10.370554506998305
Cu 10.496282 12.466019067813502 12.528268435870013
Cu 12.617694033350732 12.590653938946254 10.958772096636201
Cu 11.808248171585785 12.59874285313134 8.550394750962187
Cu 11.980757955175278 10.496282 12.078592603093966
Cu 12.653771475648151 10.496282 9.603667304903531
Cu 10.496282 9.355247382622238 10.300910201605769
Cu 11.808248171585785 8.393821146868666 8.550394750962187
Cu 9.01180604482472 10.496282 12.078592603093966
Cu 12.617694033350732 8.401910061053751 10.958772096636201
Cu 10.496282 10.496282 14.012026761670045
Cu 10.496282 8.5265449321865 12.528268435870013
