22
Energy = -60.48614514 eV
Cu 10.35260338875725 8.64166415294811 11.94289249440228
Cu 8.620707584713244 7.086630897494453 11.384749236869206
Cu 7.796370384768575 9.447463495656942 12.095064853788088
Cu 10.057400760422015 11.017615729998242 11.554908622836992
Cu 10.417276881463037 7.373385932866678 9.740871835387535
Cu 7.017720549774516 7.770016509010453 9.765167515641638
Cu 8.48083012365726 5.983678792542392 9.173387241563994
Cu 6.295061744142335 10.02610572317935 10.060821971250586
Cu 11.392787908833952 9.648938806000318 9.90275018305527
Cu 10.08878778718221 6.3603800231687355 7.434678287206031
Cu 8.917076643356696 9.456759850384625 10.099382559306033
Cu 8.81431964477988 8.403488160892715 8.030485864935521
Cu 7.938688140368793 11.685823505088317 10.578033043990283
Cu 11.286841070418475 8.544092718912509 7.724980804111395
Cu 9.941158251826604 11.501834833976597 9.08914769072695
Cu 7.489877739298065 6.872244814619879 6.960971421931019
Cu 11.988256868610959 10.886034174477388 7.892810112865507
Cu 6.157040862039474 8.910529459969045 7.858194228278125
Cu 9.711549411459426 8.121656168641367 5.805181630472208
Cu 7.741818848109628 10.753243567297304 8.218008035576537
Cu 9.81865003529883 10.38842723053631 6.9060879050785635
Cu 7.670942280691457 9.405177182502964 6.075633262129084
