24
Energy = -66.64219849 eV
Cu 12.130133601218644 8.005513735754105 12.503264868361653
Cu 11.712361178481574 9.414754725368809 10.464956227196923
Cu 11.742635650690625 10.145597023609195 8.061076255305272
Cu 10.418245371731999 9.678663576064443 12.774104258147975
Cu 12.058238080231773 6.851853317014257 10.366280866735774
Cu 11.125092251400522 7.868865616094008 8.38013543008979
Cu 11.551225500389707 11.520695408247581 11.73118982305768
Cu 10.05569540013786 7.7748469834008604 11.304185782539683
Cu 9.588643176755044 9.664029281861465 9.161740132638625
Cu 10.063810650119533 9.180986217259038 6.53056733167054
Cu 10.80835762785094 11.847689680226422 9.45974839073234
Cu 9.823713924853012 6.1978179101646536 9.441744712724557
Cu 9.852513340780755 11.53060849996022 7.14228291429843
Cu 8.129135835837074 9.127473188704295 12.022354463119447
Cu 9.230490713445771 11.134321169091834 11.161500682762624
Cu 8.680176135702013 7.69157027248036 7.8275333844763795
Cu 7.964869672158536 7.62510663653873 10.140523419457496
Cu 8.539799061224347 10.591101894601398 5.2630964653098555
Cu 8.395339472821217 12.077672504503644 8.990657860195459
Cu 7.283703894274749 10.163989126786303 9.983331515063872
Cu 7.7984285474461545 10.077093164298676 7.467726231750124
Cu 5.902437320954058 8.526312050959922 11.02814604891152
Cu 7.593774355373756 12.36697706232265 6.711733135174268
Cu 6.3732586533799145 8.413215543753138 8.564897621831722
