21
Energy = -56.59223063 eV
Cu 11.718948382339319 8.707991600537852 12.326970664302134
Cu 12.100453170726542 10.316241588692723 10.443082414554643
Cu 10.263246685506486 8.492414423534578 10.479493502040514
Cu 13.224097172557483 12.470798649111208 10.00709801059816
Cu 10.704606034864133 6.800926635601832 8.780042537301505
Cu 10.940667517422414 12.458616584848519 10.721655094836477
Cu 11.628096299077823 11.65915776313045 8.369731563833305
Cu 6.723579380650538 7.565327178381628 8.119957757447388
Cu 9.653749723312373 10.603505932852752 7.166839824412791
Cu 9.805964995089647 10.767240715710482 9.564000285229277
Cu 10.048822733153749 10.470726833734076 11.993259436258894
Cu 8.427749655221168 8.524428399274862 11.961405408952244
Cu 11.26591883166951 9.143209189534408 8.250414031184066
Cu 7.84628747046291 10.681362541291708 10.935693713899553
Cu 8.085458411492995 12.02489624232034 8.611601666908829
Cu 7.889182988567101 9.590362873335724 8.576683663943166
Cu 8.435673877396665 7.233430803243973 9.70495634465204
Cu 12.497641267983646 7.917431230372186 10.056546630464576
Cu 6.031463129088116 10.853212919003528 9.401553722704806
Cu 6.54410857352667 8.624326648565733 10.370675724759712
Cu 9.235654812893594 8.079456158493276 7.347654962872349
