29
Energy = -81.10009872 eV
Cu 11.67578336631899 13.63883735841387 11.247286897993554
Cu 15.085081689619347 11.649698395106181 9.793254227259048
Cu 12.448868357259732 12.263112698587756 13.298221176370868
Cu 13.060013859006238 11.643105777431943 11.051368113544424
Cu 15.167708868848127 9.299093020763545 9.324966745034484
Cu 13.19198363938341 10.536097728900192 8.85338812724739
Cu 10.562784001281031 11.642640609410833 11.879835317934829
Cu 9.372472162206865 13.096580876669167 10.32436668493897
Cu 11.33171803101405 12.091456053443872 9.317237952227412
Cu 10.624975178221586 10.863271516857283 14.215620695740672
Cu 13.060860823119414 8.163149357065791 9.492115079554718
Cu 9.301551837960712 11.962133330167156 7.757091097869919
Cu 10.901627676447088 10.040917203809792 7.912574170542892
Cu 9.264974168311559 10.648207797264822 9.766098026658756
Cu 9.148344695781446 9.901584823502112 6.289642215303553
Cu 7.3581912024835265 12.185558248424869 9.407520630643232
Cu 12.222395834137831 9.85816763587594 12.638632439947608
Cu 8.277647396495569 10.348573700113027 13.915281035356434
Cu 8.027143589951736 11.302073771398655 11.697338972902369
Cu 11.400234882159959 9.74176586206067 10.328860944814759
Cu 8.445243617159557 8.605076312480014 8.21975161967181
Cu 9.811931644551219 9.379859648663475 12.388128053125758
Cu 11.37268102085791 7.652711506906172 11.3375395679722
Cu 10.734475410159598 7.788465652575949 8.861654082589325
Cu 7.2282407106883095 10.592735411738378 7.581154436183053
Cu 9.057980054743561 8.142720593358003 10.509798992654796
Cu 7.362039853170765 8.911088232441214 12.072363064091867
Cu 6.926154475139233 9.840537026745293 9.880480211871008
Cu 6.861118755286575 7.49500665158902 9.92265622171883
