21
Energy = -56.78080715 eV
Cu 12.51083666619864 9.532191278953182 7.654961442738228
Cu 10.067374745949008 9.504662686523089 6.591410249073091
Cu 10.982731298254256 7.752359993235825 7.921148736202993
Cu 11.171344790086904 11.509539940917897 7.2399912180887265
Cu 9.521859562881147 6.545153283363828 9.338170053978246
Cu 11.693717144112961 7.716958846771901 10.179875474944241
Cu 8.787690650757167 7.261385922741783 7.015009870536113
Cu 8.779587167049442 11.286082120666798 7.773638386434316
Cu 11.041721638313692 10.07319029722028 9.462530069557236
Cu 8.82369442537051 8.996916008370732 8.589059267995948
Cu 11.156448010162844 11.006354442640882 13.694723748844032
Cu 9.488740622986574 8.359202835724508 10.909688684101045
Cu 7.276828682375727 7.5592091487878825 9.557661734715442
Cu 10.35535000857766 12.509340640408622 9.214441343519947
Cu 8.813028162262203 10.915165062289121 10.201397963972116
Cu 6.784929106003801 10.196751417266116 9.056617931739757
Cu 10.83659570280719 11.671244934869508 11.412225182646099
Cu 11.446702109805393 9.400211607937855 11.908019420304818
Cu 7.292858445781408 9.27449137470195 11.246286384227647
Cu 9.181696837925353 10.225625524684586 12.550482647369124
Cu 7.216704015675824 11.573537132539064 11.825411399441826
