20
Energy = -53.46195372 eV
Cu 8.247884351199914 11.23512531211025 12.546603692083286
Cu 10.302959873856048 11.813507081552922 11.326161690690299
Cu 11.925666066047418 12.034343586036039 9.596399883740926
Cu 8.287861273152435 12.776927237592652 10.55514415656524
Cu 11.912618968916389 9.987995978987321 11.001350406467985
Cu 9.621202448909239 11.582169282878892 8.894624817106019
Cu 11.41426636769207 11.802037434767765 7.226763217650333
Cu 10.662931116982344 11.58201702074875 5.009130808573211
Cu 8.002182498347421 10.370786470269895 10.338687449257717
Cu 10.219969291646747 9.80636876044856 6.50994134271725
Cu 8.641878872727826 9.443773705092136 8.238612994043537
Cu 12.04526003717221 7.754475794122973 9.769822599954345
Cu 10.252213727130162 9.898774732114967 12.783843796536486
Cu 7.755315787543405 7.8434730862646855 9.824345278354867
Cu 11.351098925477025 9.795950778209964 8.625360696343321
Cu 11.30834672117705 7.834709116038004 12.098884290535217
Cu 9.896238669436071 8.662213626483041 10.310386570922011
Cu 10.194045995352575 7.661199140690974 8.068017441198691
Cu 8.20633441697021 8.740736076486535 12.118855356322584
Cu 9.647028503266382 7.817501181073487 13.816692155159986
