23
Energy = -62.74203999 eV
Cu 7.792717993394592 10.864280470502155 5.7253741273844305
Cu 11.713393412630406 12.1379971767301 7.655471908241598
Cu 7.2238952958536355 12.764577540867473 7.196115028657316
Cu 7.054297220635912 10.47572334635163 7.992000425322927
Cu 9.34646093182009 11.659251079520491 7.3794057511948505
Cu 10.396900694622724 11.992174600299514 9.620528709614852
Cu 7.993235154956854 12.212254918989608 9.436722572446197
Cu 8.858541633358753 9.146328304479109 7.10115003420243
Cu 10.98592405590741 9.910958630468995 8.02563246628658
Cu 8.756939870975676 6.544736622684294 10.48993610419677
Cu 12.557343101545833 10.822682751649726 9.656829027718608
Cu 11.838566875674669 7.575820469451192 13.286190467018448
Cu 7.672849875455533 8.341570717853863 9.127716211290304
Cu 10.001067771431384 7.884891418243645 8.864025180917091
Cu 12.555018653035448 9.206222414761786 11.625540293127617
Cu 9.01174615609193 10.947587387037471 11.313021530894765
Cu 11.356323175465139 11.303903978240227 11.712538678350539
Cu 12.327695141899708 8.4139944422974 9.335775632185726
Cu 6.898178087703889 10.243017309555825 10.39217546271937
Cu 8.302579651922088 8.63333517359303 11.49661597694269
Cu 10.30159582688095 9.32428818294549 12.684062545608557
Cu 10.962554537990604 7.414036027740803 11.065779573045804
Cu 9.48990622742611 6.963453467129491 12.891066664656906
