21
Energy = -56.90244397 eV
Cu 9.427128337899656 11.192288655189149 11.819141626439531
Cu 9.592656361021465 11.63297673580812 9.499149070466089
Cu 10.060230211134778 11.723708850788073 7.078793984779659
Cu 7.42022267092301 10.43021557737083 10.391913452006031
Cu 11.555290203421606 10.60668104504584 10.737125537380882
Cu 8.350057699406225 9.241606906200497 12.694806487065298
Cu 8.523134787190813 10.430094007011004 5.46333049267616
Cu 10.748148366623536 9.183713696253427 12.477447199077677
Cu 9.30996040967303 9.128035879752428 10.285470530226867
Cu 11.101956955862665 9.957488269567053 8.51988488317112
Cu 9.505356587506334 7.222224582770211 11.909547622404123
Cu 7.177824173045108 7.796271411860083 11.21618729194143
Cu 6.904000827622918 8.893216826719959 6.584741159174652
Cu 11.306631930179758 7.985575207143232 10.170143037057583
Cu 8.527189334405666 10.100107648714195 7.931117492783863
Cu 10.633377148749364 9.54333852388708 6.221785314849003
Cu 7.113137985911525 8.39947067046185 8.94826909358822
Cu 8.791287506215815 6.669842008909349 9.69209872352265
Cu 8.9074892278705 8.025515014188851 5.668053517914965
Cu 9.958935820277324 7.867357816507175 7.968266028473659
Cu 7.848815910292633 6.716641434355682 7.424509966418323
