22
Energy = -60.15766367 eV
Cu 9.368309447793035 9.274917877159117 12.053396239364476
Cu 7.051581653199263 11.911702345963091 10.718363838816789
Cu 11.09381510398015 9.97822562321648 10.135353302519711
Cu 6.923527630877031 9.50836612737778 11.40405627136047
Cu 10.17796337052563 11.751445726102805 8.69315319622099
Cu 7.887001023093032 7.311172095552016 11.484990935818088
Cu 7.763845345344106 11.806914852293101 8.261495494003423
Cu 9.759990937167412 5.7280423304812045 10.984393866959339
Cu 6.086834869777128 10.339580930370712 9.183120778366472
Cu 8.661838568069292 10.30398008640072 9.984013266814708
Cu 9.698699281690589 7.934656512594894 10.064544638315459
Cu 9.244656804467134 11.099147966902969 6.543311015434924
Cu 11.815826628789841 8.030991584783587 8.816459683033933
Cu 9.578816026992484 9.226165739782966 8.003503353136665
Cu 7.312252537889309 8.268865076854317 9.227033367136816
Cu 8.016056148309135 5.965628535610496 9.36471972208241
Cu 10.276174491929549 6.128735337502441 8.504944102085846
Cu 11.731242123068334 10.181957322968012 7.676489447447661
Cu 7.259879633957488 9.574612669186381 7.152973355451162
Cu 10.75816739304399 7.591725594603146 6.684543004465576
Cu 8.323391254773028 7.193522887481347 7.265483350993393
Cu 9.009748608781985 8.866003845103272 5.587103835102936
