25
Energy = -69.91745047 eV
Cu 9.15880694443943 13.058808334844588 8.446314570294046
Cu 10.252202522409533 11.368219565388415 6.747303571459886
Cu 10.462156108863537 13.109113959356655 10.637440752437149
Cu 11.784224528025852 12.896987383567 8.345637783370696
Cu 8.312718284823822 11.761125324722531 10.428377667406243
Cu 8.217779493931232 10.601426466153885 8.108476414532019
Cu 6.808301909755537 9.675293185990359 10.096932355232873
Cu 7.925908525020388 8.048364268020284 8.484254403523956
Cu 7.954172210970601 7.6104894947308495 11.068434197365786
Cu 8.249933875313305 9.909078471188536 12.247771833947962
Cu 9.118020225156936 9.357636228565022 10.022485265745232
Cu 10.191137698774225 8.994951032006863 7.780424610430107
Cu 10.423692630058964 10.769337195337407 11.483810371430229
Cu 9.18332956217025 12.341165518433945 12.712428230335133
Cu 10.405393811166453 11.169487936902344 9.078511197592405
Cu 12.48360473778167 11.581379965762862 10.365738289300271
Cu 12.307693954920243 10.341309569023238 7.869165200692604
Cu 11.824000246555817 12.165754632999356 12.713723558482661
Cu 11.700574148551116 9.216126551475416 9.9730728752286
Cu 12.19286437107872 7.666057080991335 8.279823160897386
Cu 12.348262214906205 9.607803251005423 12.319936040772058
Cu 12.21778332624644 7.1992069664145335 11.052171294293666
Cu 10.311166286122974 10.19789253260546 13.755746209822965
Cu 10.235960284208785 8.292310712123738 12.000152665065716
Cu 10.155433671729067 7.215810903049988 9.652983745829234
