29
Energy = -82.27522134 eV
Cu 13.709889862884811 9.903669873471777 11.8666148241024
Cu 12.331712799000838 9.871577626182221 13.826266552229583
Cu 12.686762171259597 8.918730720110508 9.852697074657094
Cu 12.451723676723624 7.881139978059409 12.140118858994981
Cu 10.850718675199758 8.431936191086766 8.056705765985502
Cu 12.52549045860448 11.980201862485162 12.43420133164651
Cu 11.275773384147268 7.755719294084258 14.236668532482712
Cu 12.612466447436887 10.395370054592998 7.791986609880898
Cu 12.924787896683398 11.349017592174139 10.088635190803593
Cu 11.103888300070954 7.169479126630851 10.245916051562466
Cu 10.814493159138397 11.753167141060407 14.06998458491766
Cu 10.869518423935327 9.843297679539795 11.724730684211956
Cu 9.855610903108149 7.564877728478103 12.298052743233304
Cu 10.697041214036755 10.383182435950129 9.268000395910155
Cu 9.723371158211933 9.577639658392497 13.975721512615852
Cu 10.586363315221313 12.141565009973055 10.780864477035184
Cu 11.811435836156694 12.685527700053923 8.439949867696933
Cu 12.399137287254874 13.738905003850967 10.631740505223203
Cu 9.15034803617204 8.51469883969983 10.054839951818838
Cu 10.510537467265316 13.698096674084582 12.469259654919835
Cu 10.47313848493964 11.238003294249024 6.939262648779383
Cu 8.926859458840937 11.562072970604511 12.631045774072692
Cu 8.16897595800756 9.267422202582903 12.175428537736419
Cu 8.680065783995044 9.942654580618138 8.012796238931925
Cu 8.417832561497379 10.841149556736012 10.344540695156866
Cu 10.270129221934244 14.285920472463081 9.532419733285556
Cu 10.18396518945486 13.737402213881623 7.076043284377221
Cu 8.453040544917307 13.285057207678646 10.853012242962992
Cu 9.005428033942867 12.360779984805381 8.591663907246158
