27
Energy = -76.12667972 eV
Cu 10.607302885996642 9.888234916009083 6.430080027194959
Cu 10.869191190873758 7.447370885325854 6.787147756271106
Cu 8.528582233576952 8.448987126151396 6.54628137423514
Cu 12.245688686605574 9.101132307961864 8.172406372392834
Cu 6.425750281365364 9.783448034681808 6.8108162711091875
Cu 8.489354255772026 10.720929936173212 7.586019717206491
Cu 8.950843768285443 6.621259386399085 8.24446854695782
Cu 9.89777782647576 8.83818084352391 8.54850758381886
Cu 11.307164639122668 6.816828572788756 9.109517766747722
Cu 10.720404528337701 11.26755881015797 8.453846406625974
Cu 6.774450286967039 7.726709615252756 8.078773036801225
Cu 6.578178351582537 9.840892438331553 9.27745937301465
Cu 12.922069984567354 8.125309807863381 10.31688549862372
Cu 6.413686283126179 11.924144023519386 8.048171884853348
Cu 7.999833040667536 8.029301580335984 10.121794879057305
Cu 9.440640261612648 6.060692406391584 10.576502858149828
Cu 11.737309349636664 10.207618801482758 10.382166253254923
Cu 8.491692352730393 12.572632210919966 9.268496521253237
Cu 10.549706123634431 12.321157046460774 10.678251705116597
Cu 11.709561617874279 6.434794059398295 11.534752450010824
Cu 9.082944057449623 10.404438832729946 10.138932707123478
Cu 7.332625052862453 9.912498481186297 11.631962849291043
Cu 6.431196083008553 11.951777146140282 10.479901325941452
Cu 10.271226862873549 8.301261305117663 11.012172612627966
Cu 12.063006588345253 8.840528642534611 12.48418085908159
Cu 10.13747856015487 10.44131323682599 12.318936231983452
Cu 8.388146112738784 12.15539205915837 11.830744398604107
