29
Energy = -81.58301844 eV
Cu 12.058477551537191 9.862600023188028 6.8812858318643455
Cu 9.696703380592757 12.232552255947859 14.300898694543688
Cu 13.06982713005347 8.118984112670617 10.428771703050844
Cu 11.924021237649596 12.755235814064447 10.802530092398683
Cu 11.132738617084806 8.938198908354211 11.841409394503463
Cu 8.085426603704986 6.926841252182157 9.845014857255563
Cu 7.475163519431133 10.68609358338145 11.257867095275943
Cu 13.741355885505113 9.830062479156481 8.61728602921025
Cu 7.971313417559595 11.37469437126438 9.062827497840082
Cu 10.583097792015 7.300710076173512 10.057110672947307
Cu 9.315556734180783 10.276880059280778 12.976690718250456
Cu 14.201767761242602 12.011790250369357 9.80502370432878
Cu 9.838288649262962 12.916907560919688 9.396350831298964
Cu 6.780767175339028 9.05657642814724 9.59537408603335
Cu 7.535131167684646 12.069470306749071 13.16949153705357
Cu 12.050514396226381 11.714779282936936 8.652883609674387
Cu 12.581620181082931 7.624792430404721 8.086948696248111
Cu 11.402496261107675 9.328951539634446 9.102738074756227
Cu 11.466984426312527 11.295599611707186 12.768679795381804
Cu 7.519958183564157 13.050958545235714 10.765697254298766
Cu 7.097462022898143 9.47942429580813 13.24264956257447
Cu 9.597677071055628 12.713116613960558 11.916229582866517
Cu 8.691662671184575 8.554986730694644 11.421280944675072
Cu 7.73006562439718 9.919264684642233 7.254330384540199
Cu 10.162707155847123 10.805093674825752 10.533085750240431
Cu 9.034341657315357 8.978136588364375 9.012262561813058
Cu 15.061473802532811 9.71139086886313 10.557547003149509
Cu 12.825751639669177 10.476842603572774 10.96619273178428
Cu 9.969308807710446 10.895753470790961 7.762277352514134
