27
Energy = -76.11761263 eV
Cu 12.009626780803728 11.218024510750965 11.51572289019786
Cu 13.342030018842069 9.323120286934056 10.567280670640203
Cu 8.379280712987644 12.452831181858398 10.267304592968102
Cu 10.959818992662662 10.968996385083964 7.422151770313198
Cu 9.296205287681932 12.91976782125482 8.00306010436002
Cu 13.62394426810408 10.347646247195751 13.027309722085558
Cu 10.228474918801547 10.48911225688429 13.387469209803328
Cu 13.719499127561043 12.989497338413063 12.413303955455863
Cu 12.73732785547554 13.266242179617077 10.215224791231273
Cu 12.542884644750117 12.661814864476264 16.10300426641092
Cu 10.939068055859863 10.852787090961925 15.672454896525528
Cu 11.81740925142701 12.298720727612263 13.848183180759005
Cu 10.662150938443439 11.892051418396795 9.64938038592071
Cu 13.041227063246371 14.349940220074558 14.339023642360928
Cu 11.131408425464814 9.493857898214266 9.481403668501992
Cu 11.691009217273672 14.29317302685164 12.221396606140331
Cu 14.418824598025578 12.274809252123706 14.554600248471605
Cu 8.904745414761148 10.527566656941692 8.71614937926214
Cu 9.453866469778621 10.323016267454717 11.127236292715825
Cu 12.93289898365094 11.157502469620203 8.874756396961498
Cu 9.976634197689785 12.578985886186926 12.091305558987587
Cu 10.368424855176507 14.192274691671116 10.119344371025505
Cu 14.431031486533561 11.453767155842666 10.767529065973177
Cu 11.727357783350085 13.26871637234132 7.998079736968738
Cu 11.345403116822729 8.877996222146281 11.899255253744311
Cu 13.281599390348582 10.407371260382032 15.449129096815852
Cu 11.862139900131263 8.926517777192522 14.273666460522172
