23
Energy = -63.77523623 eV
Cu 12.805352418343247 12.980817438614013 10.332483324044862
Cu 13.03267441320855 12.279736023244341 12.831222972869337
Cu 14.971525979455514 12.558897272045849 11.229594617574245
Cu 11.363190072307823 11.417628807512 9.072216736924931
Cu 10.730951191391886 12.783899413535257 11.59207924426054
Cu 10.724146483285011 13.724119584566361 9.314391439905414
Cu 13.805041720856895 10.789720601001555 9.625983120663083
Cu 9.467406040072664 12.288768720046376 7.7201002057759425
Cu 14.633790298305685 10.403382325907158 12.055148482754957
Cu 12.238917344295416 10.674805891117636 11.335882456435971
Cu 13.282303858412398 8.524234176737659 11.204347532984436
Cu 8.744216926721691 12.437085385942707 10.0068761631268
Cu 7.245293489111879 11.41791674444506 8.400141789785016
Cu 12.842765717179637 9.72739645354059 13.476258451347581
Cu 9.251205136646876 10.057841478476991 8.699404375382066
Cu 9.88303896339222 10.51585464862661 10.99335374151815
Cu 11.39182401225888 9.009766132807068 9.680111509766853
Cu 10.994271053966106 8.624885146965557 12.15772108195284
Cu 8.555149795264171 11.903907940799025 12.438740178543851
Cu 10.69624616525283 10.955826827426556 13.300463895860064
Cu 7.515358375978981 10.2686409169289 10.557779373797056
Cu 9.133216717351 8.303959841253404 10.512743118997278
Cu 8.673706569949877 9.452110981711352 12.73373040251364
