25
Energy = -69.55743025 eV
Cu 12.031140126289037 8.38027631421895 9.108508419136298
Cu 13.372713264965968 10.385880119494779 9.42765651339077
Cu 13.204632687510406 11.743018989621342 11.40465450075285
Cu 10.7076179494927 6.361238550916124 8.92687829511008
Cu 11.765154827737472 9.733133016697405 11.152985510531085
Cu 10.169453426778471 8.342528191709784 7.481989972073332
Cu 10.350613308551159 7.7211811770987016 10.90381019388654
Cu 11.537138126298233 10.441870975433947 7.783768238146349
Cu 11.380570392697832 11.823586222080397 9.826222704421712
Cu 9.81231103083675 9.699633581696759 9.52970926658769
Cu 9.59914712968743 10.400763040241058 6.312623000981245
Cu 10.877031193774252 11.652662461450339 12.287299567925334
Cu 9.514007338447257 11.854618678117607 8.231447703479978
Cu 7.893000550384993 9.488671858041888 7.942703809921483
Cu 9.304827960213522 9.724992627100406 11.945755020959979
Cu 8.490056577222509 7.394917471791306 9.03996779888517
Cu 7.469364983881973 11.560153030528701 6.835414847048646
Cu 7.827544665520167 7.791194733259953 11.333448864375141
Cu 9.05758059386255 5.686169458162963 10.67065264737273
Cu 9.069997390112697 11.824312830727141 10.689533293558696
Cu 7.252278387320242 12.070138816419673 9.157154400544988
Cu 7.347575027579457 10.02154397820393 10.40765379621906
Cu 5.697923276399671 10.345699780521507 8.474846571416649
Cu 6.177253213723533 8.177120797461422 9.399147886842584
Cu 6.7388654556258105 5.949611333356562 10.066333383190477
