22
Energy = -60.80356848 eV
Cu 9.770004000497865 12.129330774461469 11.420337229144508
Cu 11.314513749215328 10.867365281735959 7.6917078692580505
Cu 10.390717392429881 7.174909903780316 9.034849101787438
Cu 12.15959016547403 8.996421564218288 9.188729481275185
Cu 7.16333110779488 8.718611773576562 9.269045089699272
Cu 8.620307295708786 7.915848472458829 7.522227076622166
Cu 11.68386826191369 11.294108357238551 10.061437245116647
Cu 9.066039307537402 10.290839460663644 6.832975657667673
Cu 6.745806779894363 9.26387357730675 6.87211015675319
Cu 7.4612599280720255 10.954079777155002 8.529246019749436
Cu 7.663467682977286 12.601522226919304 10.318571525459284
Cu 6.808165077496872 7.669667218788133 11.358903695265917
Cu 11.515999225335598 7.629527175695447 11.160951408610009
Cu 8.034569504462782 6.464223488368453 9.496056737572808
Cu 12.958987333752955 9.652569741349843 11.421752964414466
Cu 10.933115659672755 8.579874578197376 7.053746417035565
Cu 10.510458873028641 9.792293164937139 11.651633769382263
Cu 9.759625490265664 9.588849358213034 9.092516497918355
Cu 11.927262628436374 11.530255538662436 12.500147361427555
Cu 9.092602013950932 8.01232099009647 10.951426670022466
Cu 8.16632640933932 10.295296577522183 10.889279120037958
Cu 9.572452314527906 12.028530662810798 8.944623080409277
