20
Energy = -55.06706326 eV
Cu 9.635497515891338 11.354628201602337 6.375224792253111
Cu 11.464048868240813 10.100417511739924 7.443134791553628
Cu 10.786788460952303 7.938145419078091 8.638406334517395
Cu 9.115566636319436 9.653817040765821 8.054895592277338
Cu 7.754291816476048 11.595904123990621 8.044348097823521
Cu 7.087907861646937 9.50503564574644 9.441732054466028
Cu 12.961059972589853 9.007205326268089 9.265758424200566
Cu 10.190288541789451 12.062734609877952 8.550437287112777
Cu 8.288315958442778 7.380417656646542 8.648818088245198
Cu 10.945370082683608 10.12335019507583 9.757693228168458
Cu 8.688656031123863 11.158244885558132 10.251793994405974
Cu 10.812634849470953 12.19672154435551 10.949578878586413
Cu 9.038009952801422 8.518478234776952 10.52922686153136
Cu 9.890269735002365 6.288377063272337 10.174565511463117
Cu 12.514378813297956 10.300564899778504 11.520023104088375
Cu 11.430806501509997 8.061824742429586 11.015319697883372
Cu 8.918206711418085 11.89719941035751 12.584405899872046
Cu 7.583519414682361 9.84890882569983 11.925287655241519
Cu 10.128784128828288 9.893182957931252 12.143305375608916
Cu 11.309708759960735 11.658952318177898 13.23015494382949
