22
Energy = -59.9868971 eV
Cu 11.852575123855447 10.023616289654182 9.901994891606437
Cu 10.022954427783068 8.308421328164062 9.053747465972751
Cu 12.34187006042919 8.005437812444532 8.580123246316141
Cu 9.47822358292456 6.535080788205859 10.644285202095247
Cu 7.499510174980933 12.12503993472493 10.189413623480483
Cu 10.443571974046097 7.3940108729888 12.937301641185936
Cu 7.673905386050352 8.049110737541161 9.594847202666532
Cu 6.944246511380829 9.930901912438967 11.080949358922766
Cu 10.834551279274068 9.768105111477189 12.130971191627966
Cu 5.3658969926280005 8.340265468370506 10.237515233358579
Cu 8.478828156539098 9.11929082545208 7.440483142874746
Cu 12.761347987942738 10.196953560843516 7.600759456265332
Cu 9.256641437138036 10.493053616963861 10.210451533618754
Cu 10.85934960841296 8.608156321492292 6.752684262532398
Cu 8.830735871753129 8.56401386167626 11.66680289067947
Cu 9.76732267106975 12.689114308772936 9.233264192983125
Cu 11.550835790991826 7.801787884482668 10.87812583132503
Cu 11.05260307512749 12.007928870772135 11.158227089275748
Cu 10.432062107083922 10.722081345852656 7.851674745371284
Cu 6.4353698043675305 9.947375613438359 8.735548958649034
Cu 12.165287614494584 12.16796296338375 8.935554258848887
Cu 8.134461920549011 11.417644158699579 8.002361531617337
