26
Energy = -73.02184649 eV
Cu 13.905168123406876 13.139577596680505 10.586200165870057
Cu 9.633909050635918 11.672081557442558 8.188146682345781
Cu 12.332994877235066 9.237905498711633 10.112639033635295
Cu 10.559069680587843 9.906678625170867 11.697386599002629
Cu 13.443647105230713 12.950519259092198 12.972971943228059
Cu 11.143476611067873 11.999742818854052 12.967271307615764
Cu 8.932060491059467 11.518466734260713 10.57601089164229
Cu 13.060695981543756 10.712350155568423 14.059239186386892
Cu 11.672752907496053 10.245028184481244 7.88249179138728
Cu 12.36739136712921 14.532125245882206 9.293816161199725
Cu 10.704278347258732 9.76054780616012 14.128488144773598
Cu 13.171421874640274 10.988784970328359 11.58199843285584
Cu 12.154991439394255 12.727148650935312 15.081118347683022
Cu 13.571064306392342 11.218272478635447 9.113960438647924
Cu 11.753684166142953 10.576141338900683 16.160754084614457
Cu 12.567991411588663 8.81361801757482 12.567828883900741
Cu 10.037993522493935 13.612134221331473 9.649409495191627
Cu 9.923506557358905 9.550032472540464 9.403125556639678
Cu 14.152385599661242 13.371377310573454 8.133754736840213
Cu 11.315894275656461 11.577639824017046 10.039762611495163
Cu 9.869362742433031 11.807994662804486 15.157350073455836
Cu 12.592545927496358 8.552800237988151 15.0382444464964
Cu 9.354445105499337 13.395676423254105 12.045892939049253
Cu 11.711242470622853 13.779130580034549 11.465327716918704
Cu 8.885093165086852 11.158853923150524 13.032415321712538
Cu 11.844076114852344 12.674553898677122 7.878512405460278
