21
Energy = -57.87331234 eV
Cu 6.933947780681508 9.18048519860344 9.4170984113101
Cu 8.177223378306685 9.145704369022173 11.534871391415148
Cu 8.085412412894403 9.249340148352532 7.317236928406975
Cu 10.634860148332587 9.147642096926127 11.427880304366948
Cu 10.529952831301374 9.269320367444857 7.200984060365559
Cu 11.778554453982505 9.200668652733793 9.303940490207603
Cu 7.207162508265285 7.1178643571302125 8.134422225211098
Cu 7.30565580421485 7.0818145156331305 10.574985345225096
Cu 9.301440759279995 7.192325052786281 6.87321783722105
Cu 9.412799557756523 7.063349084334116 11.720680170932388
Cu 11.423595829192932 7.157568519635822 8.01742187575515
Cu 11.507700384283861 7.079709479786721 10.46061713508906
Cu 7.218910996678675 11.346628578676086 8.27178891028033
Cu 7.33976434375043 11.27063230219659 10.648322788396243
Cu 9.280466108711988 11.383811926485652 7.084461953922762
Cu 9.405582788527141 11.246945735050453 11.780615693110965
Cu 11.355943982887917 11.352602645965753 8.1891692814602
Cu 11.45714560452866 11.303418359787589 10.563023161296439
Cu 9.351074568819817 12.50140435369369 9.468692276495757
Cu 9.355785649738777 10.203225078402124 9.39593904013136
Cu 9.361790821812198 7.774388092949225 9.310346272508472
