21
Energy = -57.55694592 eV
Cu 11.404253630596662 10.217529444002379 12.925790786136549
Cu 7.532354191776054 8.848810867484394 8.849997094708886
Cu 10.79668973102979 12.592205860869017 12.359445747545703
Cu 11.959703732497937 9.340422199990414 7.003197018397081
Cu 10.546002068540265 11.240089767171474 7.761085623096251
Cu 9.877640371888306 8.406466714318535 12.366739825376282
Cu 8.173258605261525 10.744865276999155 7.3380336104768835
Cu 8.56596259062888 10.869038781974234 9.712175491476646
Cu 7.813976913750625 9.072080006918886 11.21781491279573
Cu 9.454478103736188 7.65882059398804 10.03022869747466
Cu 12.809067916617916 9.00074431516996 11.182233314150118
Cu 12.493453621213927 10.453800057512424 9.069243907573695
Cu 8.779447918711298 12.997547819709762 10.976298139731615
Cu 9.789366270881596 9.002493111552766 8.052963624363812
Cu 8.88181069047375 12.906203005567912 8.505228991683847
Cu 10.658856441008783 9.802760132165398 10.534877709290623
Cu 12.655938025439681 11.418724344422015 11.278894359006053
Cu 10.819094673616787 12.260618259159516 9.921458071458023
Cu 8.173196567685862 6.78524184391346 11.870889036091135
Cu 9.121302464318068 10.879676974499093 12.156775294833041
Cu 11.763786805160255 8.10155861478099 9.137520998933859
