23
Energy = -63.0906305 eV
Cu 12.083232632806626 10.756245774706578 10.991915389520695
Cu 12.73283874363447 10.397210966601936 8.57019980287092
Cu 10.46787953875872 10.398736968027627 9.243354144033637
Cu 7.336952152746116 11.905198610122502 11.33072861309605
Cu 8.857715347706579 12.419603754304013 9.48704329342211
Cu 12.103108980969585 8.560802322941115 10.061363079736692
Cu 9.739946575938871 11.20482810594508 11.482226316412929
Cu 10.909489140476262 10.598729795467074 6.852238820617598
Cu 11.519770469388042 6.840732799534394 11.64172679607723
Cu 8.634897342448854 10.854742496467319 7.610812194920761
Cu 6.636348181701299 11.514338229284903 8.826864229517364
Cu 11.332600560343975 8.410349577530583 7.761705284401147
Cu 7.102171667044046 9.028820509136816 8.076905640939938
Cu 6.775905476195171 13.689221763701369 9.835402819447618
Cu 9.948807926878908 8.707932076465235 11.221429501413704
Cu 11.193698471535699 6.4416426686101165 9.26097491453126
Cu 8.168739962058078 10.028262840437483 9.968598234786759
Cu 7.970591802009003 9.74605238195255 12.356394728654813
Cu 9.173152947804326 8.727525577149459 6.624551667088955
Cu 9.961997947467085 6.44511758238919 7.188125683118823
Cu 9.153797514225031 7.906333643205472 8.926611880931809
Cu 9.335379751306865 6.294815349274898 10.799173708265966
Cu 7.545803922702144 7.879861807378751 10.759126542639395
