39
Energy = -114.29600648 eV
Cu 13.92967880674795 12.274150929713812 11.439134176914038
Cu 12.752514698919198 11.81306612780912 13.50262920761974
Cu 13.748433126677968 9.973482767294675 12.370201400928954
Cu 11.79052372611742 13.356156750377538 11.793787680097669
Cu 14.826493408124865 8.378054790289761 10.828029199970805
Cu 9.44906643830887 14.209143417251262 12.21206925915838
Cu 10.416638476678267 12.122964186279463 13.328050319047575
Cu 13.742984629861981 10.38950080579566 9.923898676419668
Cu 11.343254274440666 9.70420139273102 13.313560028509807
Cu 12.501142748040477 8.108350595483161 11.553397056393102
Cu 12.356329510897083 12.49898499502113 9.571507222083312
Cu 11.573483258220431 10.608594144281332 11.086374469162568
Cu 10.506951108106483 14.16158726851812 9.812426658806169
Cu 13.62975047421322 6.432212369461184 10.122223766242776
Cu 9.253555975083989 10.587328707191425 14.690673146342803
Cu 13.750033035812338 8.366238192689131 8.572169685329346
Cu 11.438119037944729 8.697037386847384 9.329582053076564
Cu 8.032976697900732 12.261843362742022 13.099704344762511
Cu 8.465371803910728 15.438891540444867 10.362163147754831
Cu 9.065101696419553 10.161203340167159 12.381363950084296
Cu 12.306990962935279 6.437679133361561 8.093474189367853
Cu 9.613660347135287 12.207374646643881 10.937738889037142
Cu 7.168047220898817 13.591518990998473 11.21916029005636
Cu 11.877208979760024 8.484522535027757 6.869385144870217
Cu 10.080293279985023 8.170564654502948 11.557634945050474
Cu 12.21657084440213 10.593271453243746 8.036486056979134
Cu 9.415642726841893 9.999509062243018 9.899718556203283
Cu 10.218562878236554 11.978499410115463 8.498776858586032
Cu 8.252250464755566 13.362444635645577 9.062638254037331
Cu 11.150513379537825 6.4031146583053715 10.221029559277014
Cu 7.304958774759099 11.161105316107848 10.950098682185311
Cu 9.98611278412308 7.279162168053762 7.946655978367981
Cu 9.879611549051017 9.750079255251936 7.4586621166363605
Cu 7.609978207179789 8.701156905872942 10.953713927628675
Cu 7.887622739067042 11.085244501668143 8.249107309322614
Cu 6.031011639785754 12.384548252702778 9.350023570917132
Cu 8.774714079209723 6.8118079094465855 9.987811431568543
Cu 7.946075204502176 8.55800328107303 8.462880342808333
Cu 6.089066184904172 9.878695338842302 9.333353627891363
