37
Energy = -107.63187637 eV
Cu 11.391671832766525 7.63223586164182 12.619221911278293
Cu 13.820645871203965 7.133476626556285 8.537954904352167
Cu 9.501056786758838 8.203481875731413 13.939987140059149
Cu 9.185491622032508 7.233330450396662 11.621036410757391
Cu 11.547389320785895 9.582730676055172 14.071121010480466
Cu 12.465276441846369 7.294457715450077 10.521934304733257
Cu 6.7294473235081345 10.284440740666653 10.684931128523699
Cu 8.522648316026643 9.488594950275493 12.148738996884378
Cu 9.229627000373664 10.653432465753468 14.179085461601536
Cu 14.418755322013556 8.776496636615285 10.187152783170273
Cu 12.73681861930843 9.561229197561433 11.760461708017301
Cu 12.338746174431416 9.015495773416204 8.822955515938963
Cu 6.7838256202939204 12.60313761848056 10.294215374749125
Cu 11.224090946452575 11.880684046296723 14.788756575980639
Cu 8.369399021281772 8.832912729284391 9.750546019854553
Cu 10.588582084491563 8.926533237044971 10.658738236262854
Cu 9.513541035129744 13.062322874414788 13.48130522078835
Cu 7.915267705176131 11.18431486920359 8.529933941102481
Cu 7.626442764766276 11.748156581225599 12.55453305363156
Cu 10.832238910014544 11.244283614338492 12.335527172226476
Cu 9.064186549271374 11.404478150517784 10.570158185847147
Cu 14.781243686940153 10.907470362595696 11.475755561456118
Cu 13.880604939284545 10.911388667661736 9.203122532432403
Cu 8.380934787493864 13.894438543516406 11.544424070899721
Cu 10.283622638440963 15.143098074139388 12.279522043512618
Cu 8.587503343339526 13.696843018293729 9.17496502854436
Cu 12.153204060315472 11.062380629521478 7.455353159553261
Cu 11.474249090642466 11.074268821400118 9.949003766559935
Cu 11.86074945321854 13.497979403401496 13.061315167870665
Cu 10.206500706957083 12.30336516219102 8.249079256333456
Cu 13.192888700203275 11.37767466272254 13.372554561532116
Cu 14.847661884730764 13.019746345972123 9.71620266836027
Cu 14.234914550650196 12.422593311962807 7.369778192260828
Cu 10.708053905066201 13.398676313999957 10.64843437165433
Cu 13.035843839298712 12.539559866437783 11.219296147947317
Cu 12.482865960398996 13.11300127450642 8.883938041118322
Cu 10.058046599118978 9.86532626478406 8.312997787756101
