35
Energy = -102.84284767 eV
Cu 7.256729975095362 9.454222565020098 9.814725718357966
Cu 6.4542103194358384 11.052841193093268 11.392986545615345
Cu 7.158489124143124 8.84263343589041 12.203783428633846
Cu 7.982999514164642 7.818944344973584 8.086390532968966
Cu 8.306612904375319 8.801096990916523 5.807312797110801
Cu 8.316903253169512 10.23586482610811 7.741755954339669
Cu 7.490919804435978 11.923287787531365 9.309416973651567
Cu 8.314291239640959 7.348321668055141 10.636898333778475
Cu 9.936779094427894 6.5292647550048635 8.85961904080078
Cu 8.356906840948414 12.498144365596053 11.624182578185833
Cu 7.78194464668982 10.888334120941327 13.4356830613558
Cu 9.466891863419704 12.374841707213012 7.633123469893433
Cu 9.724772976626529 8.912991745487778 9.434001242870291
Cu 9.387951946094415 9.918305532722188 11.798630221215891
Cu 9.225635662811854 13.693925487553077 9.69601420132692
Cu 10.268737532865897 8.32067469406851 7.1296766284232245
Cu 9.81324132349426 11.309780313629227 9.826070131316673
Cu 11.616921426894669 9.723998232835024 10.692164197474158
Cu 10.071368100359669 10.526078825108153 6.094772249034061
Cu 11.996936658415741 7.906303979946809 8.886178005555562
Cu 10.757277804812478 7.1917533872039865 11.056718357215725
Cu 9.768135612664034 12.274333672397553 13.552976070369228
Cu 9.95105596408064 9.887394827389242 14.153935083251064
Cu 11.551691226356397 10.263841091252818 8.121513758860871
Cu 10.838801040354342 12.965296916485668 11.433378769744664
Cu 11.725484188422948 12.21696472308168 6.667832417701409
Cu 11.496392496157748 12.983892508206958 9.002813919055857
Cu 11.648469222356388 8.60653223876413 12.893290540393561
Cu 13.1242466127758 7.751871610445566 11.045233533895964
Cu 11.700334553026137 11.096825785026843 12.789299767153064
Cu 13.704995145550274 9.671011917202714 9.499735217068102
Cu 13.678262755398192 9.905255614112438 12.011872618568342
Cu 12.916900507548004 11.843320172451099 10.681232224102468
Cu 13.486731389996931 11.765684762437308 8.296770310792327
Cu 9.287654741407541 7.768727028160807 12.940431079460694
