30
Energy = -84.45416452 eV
Cu 12.610584235787902 9.282996071637843 5.101394517835287
Cu 10.443203522601669 10.276876991240144 5.494370518873071
Cu 8.769387350468989 8.599539452870081 5.741427543853002
Cu 12.346873887629862 11.70010384638821 5.396658697612068
Cu 11.099226702558774 8.138987275590383 6.60830070805477
Cu 10.706322375562344 12.105891415627369 7.14039369592345
Cu 12.176943666135344 10.138059139156168 7.349304241164319
Cu 7.160204874542739 8.665386271518985 7.573928784933931
Cu 9.23823927868182 7.220294529782419 7.75415718460042
Cu 9.38097420525661 10.005143911277385 7.763713415389261
Cu 7.174635517693568 6.472231495963991 9.008308981285793
Cu 7.327349102615604 10.685676998870356 9.237160567776511
Cu 9.222334534172402 12.400998299743438 9.068311757790301
Cu 11.47620607508272 11.26187394578746 9.311035061478577
Cu 10.995713243772292 8.638662047028713 9.182959221580328
Cu 5.970126014104133 8.595591648086877 9.787786632774349
Cu 8.40519107194709 8.48814455477122 9.593960921843475
Cu 9.717293920046483 6.6090845992920535 10.100545031579772
Cu 9.456941925919665 10.427174309134744 10.367285602369444
Cu 5.2551162578753665 6.381428053038404 10.499709379261192
Cu 8.006168512606813 12.049833812410624 11.34797921461863
Cu 7.363512576009521 7.165489232540345 11.402516340343743
Cu 11.563311218489869 9.94630926568387 11.39159591345269
Cu 10.510957052101908 12.322496318051625 11.283154968642089
Cu 7.32881701186504 9.692522788280577 11.675157978092987
Cu 11.684860284529455 7.516313022361794 11.337661585387748
Cu 9.483771864368576 8.29879556491783 11.870447126662102
Cu 5.286278079546832 8.290409615964577 12.06275010332158
Cu 9.479204278304223 10.557950621003812 12.814622507496557
Cu 11.13169871560391 8.837182257859597 13.504849151883741
