31
Energy = -87.35502032 eV
Cu 12.230031365011953 10.609098392464588 6.466617107795728
Cu 10.744341578545923 8.249509614949325 11.67238160762079
Cu 13.958651736255742 10.84800510859995 10.111650506902286
Cu 10.456712160020512 14.133409232260908 13.233082479895065
Cu 10.478841627218099 10.842820992180885 8.072541609678234
Cu 7.322756873849484 11.004784207241787 11.610788839646931
Cu 11.780551853460729 9.467194949469013 13.45176847407662
Cu 10.346538473711252 16.399201573120905 12.450534740645129
Cu 7.955929652788196 13.021489399092614 10.077207248727479
Cu 9.42110275143675 6.65913358855988 10.535810590248413
Cu 8.251882712329007 8.764221983121493 11.049989112753778
Cu 12.515072059529691 12.029227482606077 8.46681887115754
Cu 9.381980020273243 14.704487958819415 11.05173661062912
Cu 12.79658389291498 13.403352320917588 13.15561521113953
Cu 8.93679764032398 7.640118153937685 13.054658290379917
Cu 10.040971790750485 6.594379038185587 8.187995909059007
Cu 9.410759660246255 10.072745628051056 12.714035193374638
Cu 12.953120661937952 8.912191032076722 11.14002511820331
Cu 11.063125332607113 8.520681641647656 7.098772025709698
Cu 11.043960484283323 11.768575189453292 13.410413284750996
Cu 11.33194945104206 10.697584874390808 10.753397748810281
Cu 13.276675521398003 11.068283361711348 12.442181353471476
Cu 9.311060802349942 12.397624497071856 11.917364004487723
Cu 11.83087005340634 7.326988625833678 9.619339156116672
Cu 9.956231729991401 8.759202746588524 9.259723747569192
Cu 10.513212911238439 12.955228335881712 9.69363717720459
Cu 11.772308409862083 14.828909651703738 11.318104206469753
Cu 12.52415312229052 9.5203643900019 8.700316546620119
Cu 12.889118720226872 11.365039411125482 14.802701947480898
Cu 12.759575445422563 12.798956071239513 10.768824966232001
Cu 8.967265857315715 10.859324899733425 9.934100665181388
