39
Energy = -114.52861765 eV
Cu 5.994861341812597 6.772760799706427 8.77512769289103
Cu 6.227258220329812 8.886702019125481 9.948090927882319
Cu 6.3557072816238955 8.86408294590461 7.510081079911106
Cu 8.222328030550154 7.487910288658022 8.181925233212946
Cu 7.7134276258412235 11.02245201771029 13.471487583886576
Cu 7.6389899482357775 6.973378730045282 10.605729739232002
Cu 6.640857445248957 11.036180425526185 11.087432370004713
Cu 7.566959351208228 8.991291451229655 12.124655268373823
Cu 7.126557111363495 10.863675957384702 8.696232383457426
Cu 8.723531645306574 9.153760612984554 9.97542954343203
Cu 8.823365106279615 12.275010480041484 7.455739389239637
Cu 8.638886891257751 9.775377679700206 7.176071488440618
Cu 9.067968572269516 11.182844945572922 11.387687200450923
Cu 10.30047009114408 6.459828245136186 7.454485315108337
Cu 7.556855303686061 13.035131658875429 12.204477286862385
Cu 10.014277976080031 6.952868961213128 9.829150199656427
Cu 9.722194162595061 9.731965660133906 13.272069823153032
Cu 9.545264267810346 7.535441627894813 12.126382093458362
Cu 8.049663113857859 12.784067398638014 9.786111260013524
Cu 10.96893392248648 9.296725298569669 10.946353439967293
Cu 10.077438259182376 12.222686203637373 13.268636211285868
Cu 11.593167417456039 8.249669249809026 13.350418451363902
Cu 10.07505933551308 11.013203645775345 9.15152662943573
Cu 12.088588317162587 5.945815105921223 9.083487693122896
Cu 12.800195253106466 8.20719842979407 9.563814866005382
Cu 9.652305549759605 13.834569908852632 11.399122008736423
Cu 10.262895472035515 13.563601850940469 9.061727240616566
Cu 11.885177596007674 6.827089544088424 11.401139539110607
Cu 11.008456651140909 13.290410757868198 6.773159158632904
Cu 10.807499795074751 10.870624124467536 6.772009407754901
Cu 10.594358649824123 8.774066683435604 8.227781410609037
Cu 11.983757739690828 10.648639048161908 12.707805819757473
Cu 13.39390923302745 8.748249449250228 11.836904950849535
Cu 11.356431135392071 12.233737021533408 10.94651657566768
Cu 12.455740116364606 7.606090029909412 7.244397682335667
Cu 13.01556557466253 10.589682260010271 10.28779493559574
Cu 12.280621059172377 12.247645021152596 8.620036495046335
Cu 12.985922960944162 11.87374011864781 6.3376048917549666
Cu 12.793971632587445 9.971004437582978 7.893104160740182
