37
Energy = -107.16129605 eV
Cu 11.121714859965156 12.011255236178435 15.757957425976965
Cu 13.3731468444537 12.552232862784257 14.795912935108147
Cu 10.662821913799043 13.067774105467256 12.216282607629603
Cu 12.904632304662666 10.214047516499626 15.390253150620646
Cu 9.279492085671903 11.647199592292313 13.777410067595955
Cu 10.52813515255864 9.707713725037381 15.028209350958749
Cu 8.249576394916662 12.933092629675011 11.892045948069503
Cu 12.002413720022961 14.756421945017356 10.965696102628636
Cu 13.096720868208951 13.055426309585274 12.388821012780113
Cu 11.680658738450617 11.352913757271464 13.592222219000353
Cu 9.673882846703977 14.490994132768824 10.485240051271239
Cu 14.022867043931809 10.745696368469977 13.191383588402756
Cu 7.885973839073657 10.480192621904962 12.06806038650878
Cu 12.380286563015298 8.901211551228586 13.352826316917865
Cu 12.106807201223193 12.571378570475085 10.06306874027787
Cu 8.231531632395624 9.493248123827282 14.281276115251975
Cu 7.3809242267420565 14.0799489833928 9.95859791038077
Cu 9.778212045057407 11.224840001072293 10.603222633362808
Cu 11.177592587561582 14.160396628668037 8.562409260466742
Cu 10.055099432957995 9.484889505714749 12.63378833517115
Cu 9.12677639898952 12.896672186612584 8.740038575860467
Cu 7.371371826790232 11.636282021093077 9.995298087923427
Cu 11.979430673343947 10.527741152932403 11.346825870435834
Cu 14.281887950877973 11.561714293607361 10.92883017494129
Cu 13.866960258657754 9.069349426416636 11.206023380854777
Cu 9.069801123744789 8.814129625994745 10.446979056872173
Cu 11.555013505455083 8.111965643171406 11.203184843305175
Cu 13.176122320027392 10.507321353086352 9.14667750049092
Cu 11.166973388252872 11.672726138676627 7.977275103892096
Cu 8.819809912577616 10.499871275339398 8.426274902525671
Cu 10.96783786092279 9.402532994060095 9.00453266185604
Cu 12.951733129534212 8.010305436191162 9.093444852075434
Cu 10.65578135189898 6.8803651170617774 9.417057412829696
Cu 9.087123457912583 8.096633503767052 8.040290789277888
Cu 12.638874532671963 9.653432610811688 7.0384724519647275
Cu 10.266170359055234 9.745339340290492 6.6206925595526105
Cu 11.381367852404756 7.599102900312316 7.215130972198867
