33
Energy = -94.73321474 eV
Cu 6.8502487952293425 14.65176579873711 11.187152913595973
Cu 12.934446611733287 9.461235625045354 9.677903058181116
Cu 11.373339344560705 15.018765269980605 11.949258116500458
Cu 13.35505067634865 12.419142243694465 13.383098309810078
Cu 15.319082201286223 9.406988274872559 9.308795639600179
Cu 9.402283777260712 14.755991468304845 13.559636529759537
Cu 8.368539234064903 13.932407270112051 9.092633404748407
Cu 9.144696695272394 14.072692205711702 11.310920082168817
Cu 13.665039751369624 14.726150995696509 12.962168074215048
Cu 9.687626869513853 12.347342755919941 14.144710810793935
Cu 13.481935811226444 13.724635586474518 15.550397318872138
Cu 14.409516396240068 11.583451757304395 9.837349868311689
Cu 9.550838108767682 11.945609280050695 9.82970294459244
Cu 7.623090636839204 13.123163165516194 12.989292241149888
Cu 12.812381385254712 10.941651549863842 11.615172347941979
Cu 10.676008407851574 10.032000007651032 10.781667285576876
Cu 11.949179606380083 11.743809997434578 9.427994179519699
Cu 12.270410064704258 8.60176511847654 12.026597950382824
Cu 11.894219848130403 11.690505242892536 15.15360881720134
Cu 14.617210524022322 9.284282784131024 11.623693157288308
Cu 11.026732683465827 12.560245043275563 12.00222879397093
Cu 14.363193466715565 11.449163505847286 15.414745719564987
Cu 8.915885448503174 11.177253177887154 12.112103136392628
Cu 10.919378774728523 13.964414255334065 9.681142577198312
Cu 16.413810266108765 10.85455000197135 10.985061902459817
Cu 13.03552367677853 13.460587145882098 10.874950839849102
Cu 15.24558332906115 12.93550800043909 11.729569687998332
Cu 7.330741138128283 12.34966388846839 10.67767020158656
Cu 10.978661746019093 10.385657798822638 13.257777036373977
Cu 11.547986852371288 13.991089053340636 14.170768036776417
Cu 15.451713298973454 10.990430874371015 13.217811903611096
Cu 13.353441641416671 9.876882225768348 13.83913804285777
Cu 15.460559584409426 13.333710331496375 14.150030040677096
