37
Energy = -107.56641884 eV
Cu 9.72442018897638 12.553769054457936 13.120851129978712
Cu 8.892540112134075 11.433827192901017 8.77607438421256
Cu 8.48435400530405 13.782009570396719 9.289682088536088
Cu 10.867209404033138 11.572027746950464 11.078011547821637
Cu 9.333410707242065 13.163036873093697 6.997249067805186
Cu 7.0210466010485995 12.694934161033089 7.397224606350262
Cu 7.51660050415514 7.917816163844973 9.001523668017482
Cu 10.835031027941367 13.007849225338033 8.88513194045704
Cu 11.108343899323716 7.095977700469357 11.001752763632664
Cu 12.231011688095942 10.997041318492451 9.06307110394201
Cu 11.55479506875528 8.846713666922989 7.8959557915534315
Cu 8.390622589688968 11.01076957438218 6.272485948456408
Cu 11.692548056728581 9.36629572365011 12.03290935726304
Cu 12.936033149135481 8.815049073905111 9.950547688768662
Cu 12.222312165474415 6.714541749424085 8.842041614102376
Cu 6.805477775264281 10.116434613456248 7.999747987939788
Cu 13.524402833309352 6.683470329507194 10.903185163804084
Cu 8.433060040600168 12.17586666678359 11.148772517061623
Cu 11.018766975887317 10.730746794366047 13.939742168632439
Cu 12.374148575847633 8.736159987387673 14.352516513392183
Cu 13.45702169663391 10.771295853515678 13.605865098284012
Cu 10.287797424960695 9.482970273792521 9.934114822237893
Cu 12.407683646039795 6.799819454445561 13.024009505569351
Cu 9.829857034855946 7.1440917550846095 8.909916566265464
Cu 10.7008881424256 11.055110727779162 7.195099899883995
Cu 13.425512584503657 10.935874851894223 11.198430034728831
Cu 10.18368903046897 7.977379687194756 13.22996092107229
Cu 6.545888536600529 12.007577210495352 9.63660327520888
Cu 7.746001668594988 9.926983158560112 10.342711025796154
Cu 12.155306985288455 12.692224510617109 12.826485125088457
Cu 8.804300472501549 7.879851305742499 11.153326208258736
Cu 9.095615562714862 9.172397044714158 7.694801330014597
Cu 10.313730082095276 13.941549676648387 11.098405623345066
Cu 13.977575966177945 8.6819826943581 12.357845648790871
Cu 9.235202336862624 10.094600830638008 12.289317206325078
Cu 12.665816181647285 13.12576668936273 10.453057871348381
Cu 4.933252073544569 11.627461883256201 7.832847580916887
