32
Energy = -91.883003 eV
Cu 14.110915976311732 14.01605216679865 9.35057580926711
Cu 11.713104381243928 14.197442174085438 9.569285907394004
Cu 10.338259583774835 13.466695672408118 13.998998638751933
Cu 10.229055449055787 10.775221176863866 10.970397833410605
Cu 12.799861437831046 14.510119156401327 7.368217373284754
Cu 10.891290425122687 11.357346220818492 15.533756345943598
Cu 11.0911639078038 12.716935162758286 7.592876522974016
Cu 9.948247106798972 10.53287765323677 8.601850622638622
Cu 12.0474977013077 10.356248050380202 7.444632314464509
Cu 8.668586205049515 12.463134548400754 12.12075131076257
Cu 9.583610303619091 8.595411612161149 10.26013786167988
Cu 9.59504743561695 12.761901036716676 9.696463785795999
Cu 10.972415958268217 13.100365223722608 11.690523327564366
Cu 9.037620606583955 9.016601119170973 12.589259231247194
Cu 11.887915785361837 9.250459127892176 9.672721164629493
Cu 12.466854887122386 11.11475758813478 11.803217326112946
Cu 14.635396366248958 11.493307367455989 12.673619917231504
Cu 14.511881850644597 11.728265702623844 10.236636747707905
Cu 12.039137456848843 11.772060408289743 9.549756442122542
Cu 8.767009311486499 9.831521982433255 14.912932675594945
Cu 12.875865862489547 9.982074503663283 13.87498157640634
Cu 13.952096923458143 9.41335498079091 11.194798418461595
Cu 13.351801789498648 13.423874073090031 11.563446708249042
Cu 8.487573416226788 12.169693501654566 14.576673388268082
Cu 11.482673669871783 8.834792104966665 12.080225161825194
Cu 13.621323140632116 12.229720093865089 7.805212388647376
Cu 10.43197394337607 11.038561938994448 13.329228307225494
Cu 12.537088358981194 12.441593938637684 13.84447920582476
Cu 14.011972855289747 9.911169656499935 8.776491322489854
Cu 7.29069744673609 10.664849993669817 13.073582056567126
Cu 10.848439474903161 8.847409404167221 14.423663050008177
Cu 7.915027458254002 10.451517090271391 10.73759406218983
