32
Energy = -91.97879738 eV
Cu 9.721314376490367 10.787154936610042 5.412879955850172
Cu 9.638487604622902 12.709075449705608 6.8964751499727095
Cu 7.514943387956379 11.387324078624241 6.348002128734684
Cu 11.58929426682724 11.124041733208667 7.343925120699538
Cu 8.159250015926514 8.688184271747044 6.569846349061683
Cu 10.871031046538429 8.97058495201309 6.414128703410099
Cu 10.31347535905367 12.214271346756096 9.190861032382651
Cu 7.899481958356824 12.413681547339383 8.643572690696079
Cu 9.196713526901078 10.437926687668112 7.728554906343239
Cu 12.652250111359086 8.817699349308484 8.141688556553774
Cu 6.785103096006374 10.049791325098957 8.264861837393282
Cu 12.55255497552983 11.333979407803014 9.70048537198224
Cu 10.840094976519376 9.627460033614552 9.26476801183255
Cu 7.593625301085051 7.883095552558385 8.975783434640862
Cu 9.871147714443328 7.660589108859336 8.05618629391719
Cu 8.362403218180573 10.493834449329311 10.047981603617846
Cu 8.853256573710599 12.6549547466004 11.084464244360266
Cu 11.45743960304734 12.84158510856981 11.27938490857514
Cu 9.265234077727632 6.007523041900637 9.639187609090733
Cu 9.357474603487637 8.294365709851155 10.654201960424903
Cu 7.010466267042908 8.932323288850881 11.230016355674916
Cu 12.920458655601717 9.149242850461269 10.639589668811341
Cu 11.490565644303352 7.260247132842332 9.968874162200976
Cu 7.717851476909316 6.623973422698106 11.40027216865103
Cu 10.405645587767797 10.622016239472284 11.389689108868684
Cu 8.280528953524218 10.616648008687132 12.581729607878271
Cu 12.449864159912318 10.779931834101017 12.482645085275186
Cu 10.12320893238972 12.246167074688373 13.185928601258828
Cu 10.125378553701974 6.336647832100353 11.914699274869085
Cu 8.801798392503573 8.230877362467245 13.00655140700144
Cu 11.3711552645513 8.380150243588648 12.282979846004547
Cu 10.377256036407308 9.952600487490104 13.813649570845856
