36
Energy = -101.15200446 eV
Cu 11.779689017527945 12.061391900805564 6.700092618959298
Cu 11.847545076902188 10.650795777754057 11.374863095745162
Cu 11.651635298378391 8.199145617788906 7.427619801065021
Cu 11.829608561365502 13.659300537038725 8.694471718798038
Cu 13.272776256889008 11.870093594222222 12.901096337000425
Cu 9.956861075533062 9.190084607042149 13.523208217280434
Cu 11.85206251847058 11.280986204413331 9.042238246938014
Cu 9.761324167477474 12.44357602356378 8.211787838992764
Cu 13.034647260896824 12.720723548276151 10.619890781411787
Cu 7.431786770803774 9.688488749869926 10.233434897032877
Cu 8.11116348429158 10.665674124097722 8.00561389993523
Cu 12.60099621974884 9.030868654466115 9.613437498394962
Cu 12.302592950759001 9.829173298358798 13.638590602631137
Cu 11.674761837810241 7.578897526123912 14.0744176656392
Cu 9.288299644586518 11.728887947404287 5.949623910723377
Cu 13.166613404396562 6.9100504566008505 8.68891192468501
Cu 7.516788741045205 9.239785396313243 12.6727208008703
Cu 6.899552004634475 7.468394165366877 11.080763799016086
Cu 10.297391361386214 10.11785554891877 7.270625964827666
Cu 8.700971642491591 12.932353221087618 12.269330659294667
Cu 9.291802523917328 13.272071482015583 14.562159453896868
Cu 9.293771532745247 10.669818875399711 11.621743005092656
Cu 8.751302601462081 6.143531347778153 10.141958076383016
Cu 11.743331883640057 9.877141304550483 5.455830286230888
Cu 13.197847451674052 10.081023597491614 7.3990900822250145
Cu 10.888857100077118 7.209743479138304 9.62831458123867
Cu 9.187090159591229 8.128537222932266 11.283739154302175
Cu 10.816352587770576 11.831668632759424 13.26990430289403
Cu 8.500025841271148 11.13355309452113 13.952589233262938
Cu 11.56485695634195 8.265846481244896 11.777921745820123
Cu 8.039511722915393 12.087312348112722 10.068269153307662
Cu 6.039077322734284 11.218638333292084 8.98846713322165
Cu 10.456558223926153 12.680185302193003 10.579158893665563
Cu 13.854443821036984 12.286369226433731 8.271305556067725
Cu 8.013197662157816 9.065425200824043 15.00004567055896
Cu 10.13542235038337 9.591945854804598 9.592126167327425
