33
Energy = -93.82627018 eV
Cu 9.513140845686832 13.030069293233202 13.391018032577282
Cu 12.923396703106093 8.912229068104713 9.190775260758825
Cu 11.904204773647805 13.80810079648772 13.390203237892
Cu 11.340657678864165 12.02340824923802 14.901328196616971
Cu 13.41056780984516 11.530895807991952 13.414972314466779
Cu 13.454582639839733 10.983685607814644 15.792109603870957
Cu 9.56363786854206 10.512812645528667 14.080979189513508
Cu 10.994916084340012 9.947342120079268 7.981734147027064
Cu 11.908271267955028 12.138625457762123 7.541274382134797
Cu 10.841441582809704 8.692449756449147 12.565296816261137
Cu 10.608396010768859 13.6916224958887 11.214762366817144
Cu 12.426833450221082 7.554709366686426 11.129427208899031
Cu 11.460852344508975 10.623029183029267 5.723598855337772
Cu 10.96961604084806 11.329604539127272 12.357383217186637
Cu 12.809489813323447 9.96787906361022 11.446620257858509
Cu 13.31025027743019 10.142315137428152 7.157481673355503
Cu 8.908409341360509 9.811859808665464 11.78432190436464
Cu 13.534791214373723 13.28215882588344 15.088026033286585
Cu 7.562517531874188 11.452452862696926 12.945506400198939
Cu 12.823783515430325 12.590018579396583 11.277895469426335
Cu 8.78319022295249 12.158129030328173 10.994670551271755
Cu 12.261018208566277 13.732155896481892 9.298330448580158
Cu 14.331600405976936 13.722506731003257 12.781401870006105
Cu 10.978229058095863 11.635888087070963 9.837956972577338
Cu 12.565916484056663 15.07964481666848 11.464580368176335
Cu 14.891111463190285 11.455974559240516 11.45157699308799
Cu 13.472106090297638 11.30780501821365 9.297405353873483
Cu 6.96269468039977 10.526384231328477 10.63120757748083
Cu 10.658859726166941 8.949273131547205 10.179531641866715
Cu 8.25413035931484 8.352776696003248 10.056816232080648
Cu 11.987161770189637 9.785926389792918 14.284718590623585
Cu 8.93862889870567 10.482692060429402 9.18038380348028
Cu 10.290323173399806 15.430302022878784 12.811432365134168
