33
Energy = -95.5665792 eV
Cu 12.879383314983125 9.364781722704988 10.330199302463068
Cu 11.15467144263646 11.241602564681546 11.38394163846096
Cu 11.459267802486476 10.919446202331239 9.007561391830473
Cu 12.243892919300748 8.733828744635792 7.994081655973545
Cu 12.340753702035142 9.61257835766232 12.69580642906251
Cu 10.87581416594337 10.478198929948077 6.680210299272842
Cu 10.286959513837198 12.646285137500623 7.72631281418905
Cu 11.98445083872159 7.403773950548698 11.78807016784401
Cu 8.768680101958095 11.770964478551509 6.123567029821974
Cu 11.01822142983762 8.213151575572848 5.833376468259474
Cu 11.500137940540254 6.840351292402218 9.516357803406159
Cu 10.525693874155774 10.877021064684511 13.71889562911278
Cu 10.55796689736218 8.957835547120972 10.297358490927662
Cu 9.565792070237864 12.511626518419332 9.98007683380151
Cu 9.00516614395342 10.527686984475043 8.412716972525088
Cu 11.077337093048097 6.265734933915301 7.260303615100116
Cu 8.783558462529506 9.344118176599782 5.9672413477392405
Cu 9.09340796047255 12.35246768689744 12.366347328719344
Cu 8.856286145073542 6.87350174632772 6.383136955068851
Cu 9.885071402351596 8.32166201224766 8.00596085602733
Cu 7.6678266383039935 12.535032454308277 8.278753590953619
Cu 10.1020203092849 8.64402119065677 12.824789661487653
Cu 8.753128483586263 10.389273264471127 10.989514859028356
Cu 7.162151983431592 12.199636352821535 10.69076500736267
Cu 8.992887556910267 6.295816353424966 8.840243041816649
Cu 6.82760944470268 10.579688709158214 6.868076243130965
Cu 9.648107161922951 6.769587545466564 11.201877602011434
Cu 8.214791309431277 10.180575784156984 13.363193369507883
Cu 7.366257233369902 8.33021507348595 7.716480471677814
Cu 6.671136656467431 10.271004561162696 9.2233728861891
Cu 7.845660530402769 7.957332269544922 12.375974915691875
Cu 8.03871362518563 8.269202227511453 10.005448675897238
Cu 6.511221186150093 9.840155790613665 11.571615412971914
