33
Energy = -94.46203677 eV
Cu 9.471330631885252 8.208263235152216 14.958375055904032
Cu 13.24981855718226 13.368900712530548 14.105906446238908
Cu 12.741008404218029 11.27635761102417 8.813327962345555
Cu 11.362434360860876 12.04534953539238 14.815461489364584
Cu 10.98024598107645 13.54618541400194 12.912509554483009
Cu 9.549942761191218 12.652389556307773 11.113648216070972
Cu 11.454570633531487 9.47534419723062 14.326667150602969
Cu 9.838928408478875 8.64374498803218 12.560766088093251
Cu 10.579812911830915 12.539130661506457 8.963844099685087
Cu 11.082816684631812 14.491069582349592 10.526189563273904
Cu 8.085482946695965 9.819520325016617 13.798149916006473
Cu 15.10662430936414 14.663091577105222 10.898974253040745
Cu 10.890742540731027 7.5876041249205795 10.613545034047752
Cu 10.132926234791954 8.558095681314178 8.508293453882564
Cu 13.006009953546371 14.591475323225952 12.0571101354913
Cu 12.586339450907461 8.936051463024787 9.467048598395998
Cu 8.651593238073328 8.621077306222933 10.374067371382308
Cu 12.242334326004556 9.110173567833092 11.971930880517107
Cu 13.893562515618404 10.544147865818886 10.88358084002239
Cu 10.71227981016246 10.204786116039834 10.304140638527622
Cu 13.13113043603784 15.757691447413437 9.939541095578639
Cu 8.883725970537222 12.180993364030892 13.600894392025873
Cu 13.095118868746761 11.058388082921516 13.24798107829661
Cu 14.575095465163699 12.626544047351766 9.71424202864145
Cu 12.171493144569427 12.305566518171934 11.006040828242392
Cu 8.770706731350657 10.832932890290293 9.14112646152482
Cu 14.535967191044845 12.636481676171517 12.149636098460318
Cu 14.815309628676765 14.746535959585325 8.475199131945505
Cu 12.635144672256079 13.744889644094227 8.729766201084573
Cu 8.37815832289948 10.649719448469263 11.593299376160216
Cu 10.814772116305122 10.58441987275214 7.558753313240106
Cu 9.601266904695462 10.597694117977651 15.458866428711618
Cu 10.707501028278203 11.04086646580809 12.624018447017477
