31
Energy = -88.88284103 eV
Cu 6.8776043250073675 10.937021304815296 6.390608258765928
Cu 6.542847329981334 9.6733214754571 8.449619016501671
Cu 8.096189461656314 8.931743183532435 6.626565578503692
Cu 6.7049331386333915 12.130233096652915 8.582203798904809
Cu 9.63922993794968 10.921006491232905 5.910389713889986
Cu 8.108608958857364 12.946180683276996 6.675302781036826
Cu 8.671686947814864 8.64571299049273 9.020317519811881
Cu 7.768457891614592 10.686055491933871 10.334876062188153
Cu 8.819611617330882 10.986404485270622 8.087307323631872
Cu 7.706157610671674 8.41957156957638 11.351593515869169
Cu 10.500214700937658 6.899736743747955 8.690566872775454
Cu 8.345538977000972 6.407033751052475 9.888074967291173
Cu 10.396723130939852 8.90731058224008 7.251679081316427
Cu 8.797743802780689 13.318741050391157 9.033350624929856
Cu 10.441410546485622 12.954757591699938 7.237325597929655
Cu 10.474609650386324 5.501643867882102 10.767207538738418
Cu 8.77011076722598 6.272084880764459 12.241556232502415
Cu 10.336774851702168 10.3276093936461 9.971646696870804
Cu 9.162941492232477 8.205271712734797 13.507133337474473
Cu 9.270594414146377 10.188998156526885 12.218389022434621
Cu 11.521463929584732 10.932525106245322 7.802435470079758
Cu 9.29693880076797 12.405048608796514 11.183248609584519
Cu 10.102033442571614 7.991819529539714 10.911722137931378
Cu 11.136368253422582 12.671523266411159 9.586527522534695
Cu 12.042979972115806 8.785167809504397 9.05449581348975
Cu 12.383200310849585 6.892328080346174 10.485719245695854
Cu 11.266745340621252 7.089578043703091 12.75186509207965
Cu 11.195876900148305 9.5233030819976 13.54993788583298
Cu 12.817648204198681 10.941651021110097 9.94368722821875
Cu 11.453471409987383 11.38523446675485 11.923801945314473
Cu 12.357724416176488 9.099127799861103 11.494936999847125
