34
Energy = -97.55864035 eV
Cu 14.90955314342788 6.827447943585448 11.73968085449158
Cu 8.51167480580292 15.058862152588627 11.626012984716153
Cu 8.944613270075632 10.459001701207923 12.556947997559515
Cu 13.191757943584207 14.187350887501708 15.107129783379943
Cu 11.98944053653426 13.168648530336606 12.347424493939865
Cu 12.947433887557615 7.764581663307967 10.623766541556595
Cu 10.929553981558437 11.078245564009247 13.600266928439966
Cu 14.64143930009451 13.078635323159135 13.429522603331714
Cu 9.418831075735802 12.909025413228097 12.525204594758682
Cu 13.211524623718313 15.162576880281305 12.911809697397642
Cu 10.17913032130342 16.031124698004604 10.012446673535674
Cu 8.772955237049148 12.098927147844876 14.627364140132912
Cu 12.826039503482036 9.47493014713737 13.963265161727104
Cu 14.276451683911905 13.50044430252702 11.108604066291857
Cu 14.886643988864236 8.199872490238882 13.679865518363664
Cu 14.490665993157887 11.446048364686437 9.723671530531476
Cu 10.213357595029096 13.687197971049105 10.412647896368531
Cu 11.315738689890976 9.121841238546608 12.054361838792738
Cu 13.286389223883283 11.202949877887882 12.025320012291408
Cu 12.772676476735713 7.313354736496311 12.943018205852196
Cu 12.534953288536922 10.024890184147848 10.025272569567473
Cu 12.961469782688548 11.8380330515756 14.580373070209061
Cu 10.729326438140065 15.314001520995559 12.34691300583746
Cu 11.51132325068187 14.517044131227768 8.494793613274695
Cu 12.313275382439633 12.511426320866144 9.801785360623144
Cu 12.457095860378821 15.042262422143876 10.573189647390304
Cu 10.718393966587234 11.324879103445056 11.124363229834957
Cu 14.968218455155311 10.616910119502377 13.776088099688957
Cu 11.306060472109449 15.65331677725717 14.635500968529046
Cu 15.761293192516668 11.615968366119672 11.741814051395696
Cu 10.91271559242777 13.28463757318993 14.684473936112372
Cu 14.694892841517637 9.287647738825513 11.407680195859896
Cu 13.927806405452543 13.87752585387992 8.72745779151473
Cu 9.036498368312637 14.711936444606977 14.102243775759618
