37
Energy = -107.87211031 eV
Cu 9.570645177932564 11.453929751144457 13.513486080944325
Cu 11.245907442986622 12.365063505934856 11.664509143050335
Cu 11.571411739508893 13.896688132812526 9.680040180044603
Cu 7.887019307543672 12.580283343083412 12.044480089784978
Cu 9.317169490081195 13.294743008429316 10.142090667015953
Cu 13.320701107867976 12.398644903684024 10.226600165376157
Cu 10.131515418161134 9.046165376011809 14.541488871445614
Cu 13.350482230855985 10.601743900299443 11.781952090137759
Cu 8.606475114602198 9.330099880391046 12.775478071322281
Cu 11.144718623581044 9.949395910813156 12.526982703667704
Cu 9.678936707088308 11.22509865295939 8.723364260676561
Cu 12.139476579977368 12.00313731422479 8.139524607569872
Cu 10.132469700017621 13.385918855796385 7.745338126607522
Cu 13.749815111271207 10.214430687216524 9.182725523782148
Cu 7.318407875691913 11.970830169326227 9.659381945647029
Cu 9.2905121676336 10.961397206909826 11.08913906873421
Cu 6.866027405231341 10.34649894239069 11.428580773076671
Cu 11.571572765002202 10.444085685432174 10.069271406834384
Cu 8.007109147975987 12.232267318332799 7.2942255317152345
Cu 12.507584049141919 8.388443871353418 11.151508528088293
Cu 7.4745056904596865 7.948429682195489 11.093629382782197
Cu 12.461313740726109 8.162374882137929 8.74651378598067
Cu 10.680230423625769 7.5367894571093945 12.621438322340689
Cu 8.410367298105673 7.084357537901455 13.422622409255087
Cu 7.966180816239753 9.532605408407278 9.346846368518401
Cu 12.418479131991287 9.874155024415039 7.059109665039545
Cu 10.293300999368425 8.983233711205875 7.861531805370855
Cu 10.38172255923179 11.164222324792973 6.4752884139204685
Cu 6.2488518577126015 10.556032384898714 7.965284591812884
Cu 9.957781782882426 8.63834931689018 10.525470111275856
Cu 9.101398024831882 6.229585376857662 11.26164999272169
Cu 8.274868953345704 9.857404345074949 6.809152132077042
Cu 10.869003471917585 6.647480491440789 7.625243313949185
Cu 6.840410816975417 8.10644363852954 7.812554708535609
Cu 8.839203778428663 7.4764567215085975 6.539424152136569
Cu 8.808827881738225 7.115354942239313 8.96368372483552
Cu 11.152659583615005 6.584922311196789 10.07745325727506
