33
Energy = -93.40409955 eV
Cu 12.907377960639902 15.240945808276988 14.317092308632832
Cu 13.415960065628562 14.38240961280035 12.037899990161616
Cu 14.007586208523259 9.523246677457815 11.166775730860344
Cu 12.42334898683802 7.818272834216802 10.34664821628645
Cu 10.789504878711261 9.658090485604161 13.809874840558056
Cu 8.613632407768069 12.702877036967203 10.622466296445667
Cu 11.023609968807886 13.688690894742303 14.598508431172649
Cu 7.490980663673181 12.094007689523707 12.74549947067247
Cu 10.105937280784731 12.418072093528453 16.43699299450918
Cu 12.346433342555601 9.960885545769974 9.176928548603799
Cu 9.306691098649708 10.667935647584413 11.955445655583818
Cu 13.235052931340295 10.508633752594184 13.344457634510944
Cu 11.161441458045182 15.159068832346323 12.625880307172265
Cu 10.781614647358762 11.518861814297832 10.119884669853931
Cu 9.495407192523455 15.00775039716242 10.689341875413385
Cu 14.696752670764598 11.13099648263674 9.518385731956744
Cu 9.303037611143223 13.660661802828567 12.736893503706705
Cu 8.885663387052077 11.104015782748293 8.794044780934763
Cu 11.593185086363388 9.757069583122025 11.558611542595926
Cu 11.266674122388673 12.0517947664624 12.668402324245921
Cu 12.775387639651727 8.13424953371405 12.88382769771235
Cu 9.405486135871548 11.699107927966965 14.253433901432478
Cu 10.073476650355232 13.38916250359523 8.770861630704717
Cu 13.244704153336125 11.977165712046018 11.287813013221072
Cu 14.782894650793102 12.83119876394938 7.809298795750843
Cu 11.52959416967329 13.75198356609303 10.688465311113232
Cu 14.345607646379912 8.718186277918416 8.870564905485491
Cu 10.08281411418289 9.194317811855559 9.781141143364856
Cu 11.831011462805547 11.376125631011401 15.185928322469298
Cu 13.28400536197802 12.88853741182425 13.887755104475099
Cu 12.685386528462839 9.04299716395726 15.197406276381058
Cu 13.751099300421389 10.712326691685215 7.384978616184652
Cu 12.628972860432523 12.474934144769758 8.83930620719432
