34
Energy = -98.31869066 eV
Cu 12.568681581412415 14.003149616841613 8.115571912961116
Cu 11.23414636215718 13.880101698100995 10.198010873052677
Cu 7.721570335530223 9.178604976621855 7.964437958874377
Cu 9.50375997880659 12.111330715185973 10.326328692956963
Cu 13.181825668198302 12.398035894175345 9.789845525784251
Cu 13.679003953482532 10.658711407469067 11.601068650895614
Cu 10.27300965777685 11.405676224414675 12.98470129913332
Cu 13.004053307844005 11.7498942419088 7.337905605818429
Cu 8.244273001819927 7.845519500314289 10.456094029791162
Cu 10.90669256469822 12.27805873879098 8.388955620541656
Cu 11.848070432512825 8.62849208520331 8.501376372557518
Cu 10.912713154120645 10.338678654664035 6.931056393694966
Cu 7.263908520504133 6.851779790299932 8.515401206763018
Cu 13.225389137093858 9.45165457725668 6.736873355987504
Cu 7.921123896556189 11.812319432906843 12.132608358927127
Cu 9.290961826035437 9.88282026494413 11.42903382212576
Cu 11.667279322143562 9.143310080903452 12.50407574290511
Cu 9.866940335616535 13.608854419189017 12.24940648271483
Cu 9.41346598488891 8.004330015436375 12.820419532986392
Cu 10.67014720577501 7.987661691937736 10.588191974574102
Cu 12.157003738628337 12.604372414976362 12.050845052412685
Cu 9.791753429051644 9.86795711666368 9.031421413664884
Cu 9.607390478438795 7.523474967665264 8.369049696943165
Cu 13.067506846605234 8.47894980491003 10.635908361015556
Cu 11.57061184868793 10.582543582210937 10.484593777671865
Cu 13.745422165150678 10.15666591361288 9.045416571593387
Cu 6.9458131939050025 9.392005490896638 11.90968657635437
Cu 8.68096219601867 11.488734048981044 7.803295341602551
Cu 10.90201739025212 12.038681467061949 15.131871919032099
Cu 6.086612310867252 8.676332682972086 9.703230682539544
Cu 8.36787633279218 10.041508025906321 13.791523659413564
Cu 10.604383058049658 9.628241285680792 14.61880385093391
Cu 12.604991104605805 10.938823009610134 13.822281720046467
Cu 7.4714477294044634 10.719125242456812 9.86862476157909
