37
Energy = -107.4776963 eV
Cu 13.975167576147156 10.461399129315577 11.449466330070077
Cu 13.160637966310773 12.697924932923868 12.19322970931709
Cu 13.10286717184681 8.787607058164946 13.07790386410142
Cu 14.242853920048617 12.239002256980571 9.867858125585999
Cu 13.610453120837594 11.06053282618801 13.945312324870104
Cu 11.636109613973899 10.711077727145753 12.596069808444238
Cu 12.578442042793307 12.719446028751626 8.18518432429937
Cu 13.13319275378153 10.158493551374562 8.705720313872936
Cu 12.42849814869631 13.94234334147933 10.244906496127482
Cu 12.115524377144704 9.04079159544303 10.822575976478996
Cu 9.637475524492539 10.460889419341035 11.270907323475605
Cu 11.605368944431401 9.832098993104687 14.796909969741954
Cu 12.080978870926291 7.847524176792618 8.783426582925904
Cu 11.881449436017444 11.524955786188062 10.28405356986129
Cu 10.689254329289147 8.403010285059429 12.759359316678633
Cu 12.894818155571652 11.114473095546138 6.443061081986184
Cu 11.484546712286914 12.430104999073713 14.192927553101699
Cu 11.438036423937687 9.248331552868978 6.897208686707189
Cu 10.474164437818034 9.754258444995477 9.067771508621956
Cu 9.338666690554538 9.969712886525636 13.953339430631058
Cu 10.634642782166884 11.546012836464794 7.396986144657991
Cu 10.249003289030796 13.110463411242812 9.368717783454882
Cu 8.97511028987617 9.74610515393852 6.988582848703873
Cu 8.579669785877524 11.466113183745966 8.783226734572224
Cu 10.095817628294025 7.695215792624735 10.484318363274566
Cu 7.504292726935099 7.731213069651815 7.190730004118625
Cu 9.768052613302658 7.614800667942919 8.037169095435752
Cu 8.40288506056624 12.521750179498605 11.021559533629594
Cu 9.12883554865696 12.393465728925941 13.461894138461638
Cu 7.44975688703394 10.826905186319314 12.72617114723742
Cu 8.289545944937071 8.550603443019648 12.017552782085259
Cu 7.693439793425077 11.288893366287951 15.067932597379182
Cu 6.895417307954743 9.536574244868671 5.754823448747605
Cu 7.8904438737155775 8.141148157509562 9.570158347563586
Cu 6.807876123496161 9.857640220902557 8.13829368426817
Cu 7.243619431156137 10.289481299909681 10.4478585688177
Cu 10.707496927081861 13.104048200295649 11.831244711105308
