37
Energy = -108.49759234 eV
Cu 7.195123871222395 9.605788202478541 9.17520243378304
Cu 7.518289593923313 9.52114250438701 11.634239157855916
Cu 8.116059728704595 8.023491847016919 7.489385512136698
Cu 8.71931732928434 7.91848667629543 9.917196343403006
Cu 7.127817805129418 11.027391502171893 13.637030634066335
Cu 7.736363850836261 10.477991025460849 6.937605677778307
Cu 8.416844224055742 8.889437613783002 13.934574626839556
Cu 7.896701879530389 12.30564884059478 11.480999998850587
Cu 7.682657907203574 11.947541734389702 8.990741474180549
Cu 10.84695380573667 6.744835714945762 10.60527080888749
Cu 10.385546829029325 7.2261519327115185 8.266546007957714
Cu 9.806252110593348 8.503789879606105 11.978772432248132
Cu 9.30011551454661 10.617229582877673 10.384259769528141
Cu 9.304154162764698 10.825563772712687 15.178350464939523
Cu 9.64153464239491 9.679842126787985 8.205694470217418
Cu 10.016535947591844 10.117426959812892 5.918202070909465
Cu 9.339494115629082 10.821681728740039 12.797678441209138
Cu 8.778836380152487 12.867037861728477 13.906046870437317
Cu 11.484878323107166 10.894427864254926 11.640908452785963
Cu 11.030646462010615 9.403748937223025 13.908552280262736
Cu 9.571178139153552 12.100758306407437 7.397844118225651
Cu 9.622815001359143 13.188479852564237 9.704575857361693
Cu 10.272665853711459 13.062393799310486 12.013858801383499
Cu 12.186703576205351 8.065162975079375 12.195375290417612
Cu 11.364929993414222 11.38217037427876 9.204687679486154
Cu 11.295022663167018 9.037025850226525 9.948000950583333
Cu 11.297404458172506 11.833775842544641 13.913920097747727
Cu 11.799900019649394 8.957582146783501 7.297715116443359
Cu 12.84824996772911 7.507899247465611 9.100484646639465
Cu 13.26463833705698 10.173486155908648 12.980279910122478
Cu 11.418878743429474 13.561563116436117 8.055836320643818
Cu 12.110845816315324 13.32950322583247 10.47385467732353
Cu 11.948172523525756 11.359525283898703 6.891741110660974
Cu 13.875201484014207 9.017421965902434 10.816605526235872
Cu 13.455470474803624 10.019091821816437 8.684113709435042
Cu 13.70377670866451 11.42017039879349 10.762825777735735
Cu 13.51860658429659 12.46107791922904 8.568919929434948
