38
Energy = -110.98307918 eV
Cu 15.313461298981943 12.971631947583655 10.137199728248751
Cu 13.396111124313776 13.651956249697946 8.708589283503034
Cu 11.32944307861129 14.20535751895095 9.878951916636407
Cu 9.42582797034659 13.884475224420457 8.484447550979
Cu 13.747985598076532 11.355576675396032 9.319980165300452
Cu 11.433956219756725 12.091186896285246 8.484344702390757
Cu 8.877488348723531 11.629112226635456 7.967317116521009
Cu 13.20218622058188 13.431684691304879 11.179348632587956
Cu 10.832962362758243 13.52453818425881 12.173139386940994
Cu 14.338231580855055 11.350283960903734 11.793684589893038
Cu 9.033578281334751 14.546472833453734 10.83274641321282
Cu 10.620858104678554 10.246483056187454 7.0766446193484756
Cu 12.044908933100835 9.653403158744137 8.911546051032333
Cu 11.943654220869707 11.269171920000428 11.002795082918299
Cu 9.775254840275606 12.223776082151762 10.337784673169697
Cu 7.498251293354767 12.784434443111406 9.80430524682406
Cu 13.51138689637839 9.280118294598585 10.795475817496433
Cu 12.542925856842112 12.210755664876835 13.253747311940279
Cu 8.4129767701024 9.256627048458476 7.396503974053539
Cu 8.40106951061896 12.686864401507219 12.317289584179008
Cu 12.044744543842539 7.357558064132076 9.922496776180019
Cu 10.30493512175886 11.169651312544943 12.785943147211537
Cu 11.026397341479285 9.00791019557499 11.376202384345671
Cu 12.527232861100448 9.79200984666538 13.16804336997069
Cu 6.835864587632056 10.604182526700766 8.784991075569298
Cu 9.636979385166407 9.862206451265443 9.531177994417055
Cu 12.894209609704081 7.481648894914226 12.240042514853835
Cu 10.47393335309348 7.973505213646598 8.048782304270787
Cu 7.753538306998716 10.673942234132916 11.072923568331486
Cu 9.590911648976078 7.233046133330585 10.210008712477979
Cu 8.105678981271954 10.452155911575614 13.47668307615934
Cu 8.646311353379772 8.585782076248341 11.993907205227329
Cu 6.2081152422490495 8.389885376976004 7.796072698946953
Cu 10.140235305246021 9.0191663198839 13.85856315805944
Cu 7.485795975066916 8.506543773365554 9.846931908906186
Cu 10.507992771868503 6.951083497771652 12.510232966021425
Cu 12.000181167054768 7.6829815698081 14.431931577561723
Cu 8.2426163299325 6.940849464422212 8.131518905269115
