38
Energy = -109.59823335 eV
Cu 16.177915914493298 16.341330853580562 19.60305971492203
Cu 17.22581077496489 16.297465476169577 17.30199902683269
Cu 14.24492639971474 15.195048024759432 20.230390730811962
Cu 13.386599949140905 20.47185411859362 15.329955781556809
Cu 14.492149146643845 16.49287569739657 13.916258175564689
Cu 16.417429885478796 20.858917634145733 17.91188917296569
Cu 15.79495014260334 15.092254303274105 15.64852891346338
Cu 16.258376572072084 13.819855673716821 19.68891024603592
Cu 17.013422528824254 15.865619752666833 13.737482450148411
Cu 18.41049436224331 14.940115734259516 15.589639729939375
Cu 20.44658067332461 16.256479095187444 19.316073144720654
Cu 15.735445873761924 20.067719586069245 15.73308496374908
Cu 18.316287320468348 19.93887216078486 19.046119230703205
Cu 14.23560540385687 19.553612153087613 17.62480506464513
Cu 14.912283510732125 14.802846419863116 17.931208843479062
Cu 18.303836947115105 15.101617385795159 19.679325509453452
Cu 16.159521913223127 18.710693504456984 18.97243408624226
Cu 14.53396243870593 21.91200475178023 16.852330903642507
Cu 13.496203472935438 15.71345705343408 16.05835178239579
Cu 14.04948544950296 17.678384697116954 19.690090419711368
Cu 14.66583837506118 19.08590498235182 13.739118990467775
Cu 18.312545179670163 17.511003368559745 19.236277334254755
Cu 14.845999480349981 17.18844746493657 17.500517987119064
Cu 20.33244104362592 18.611616012781408 18.653644124374267
Cu 19.596693293078523 16.891877128647486 17.113942793255532
Cu 18.505586691886172 17.518196863679012 12.67613255222737
Cu 18.464538130887266 17.335201312086028 15.079916242882263
Cu 18.44828716811076 12.721071793043528 18.973348219157586
Cu 17.651303838147697 18.80817505903616 16.928474924701916
Cu 19.68605685105961 14.509096464094092 17.660550725390774
Cu 13.526443331754367 18.096467953157397 15.642013439065808
Cu 17.0581097828803 13.785705763320067 17.33097629852178
Cu 18.950531520828367 12.61638288590085 16.370775990518002
Cu 17.287920880426384 19.22220666307822 14.028684132471946
Cu 20.426947629878907 13.87274862602005 19.902971917614366
Cu 16.013285805008955 17.64206600607536 15.38932108509397
Cu 20.658087517988896 12.315915316543434 18.04958626790915
Cu 16.107295256709058 17.687693496124684 12.470905619042517
