34
Energy = -98.18419298 eV
Cu 13.251098926671213 8.902104035100352 10.262776188777714
Cu 8.35867368182703 12.97634351057021 9.805514763283536
Cu 10.253342976397269 12.770882730267626 14.303681479365173
Cu 9.53542973456407 15.047924637179909 10.350740634684731
Cu 9.685367568181627 11.31371941420182 8.563924189799181
Cu 10.58162124839932 10.503326976702555 10.819087248772865
Cu 8.941150794704058 11.118581406139063 12.799108288302962
Cu 11.109571458499724 7.909448549378364 10.929591723180803
Cu 9.038816871244078 8.800707285982238 11.793566695525845
Cu 12.136788148867394 10.340437418551337 8.435918155951672
Cu 12.715301528754408 11.506338712776671 14.528654043051304
Cu 8.70576485473785 9.050862592342579 14.17553745972757
Cu 8.132885416068277 10.63313588901773 10.387927123733645
Cu 12.47706799739478 12.821906566198924 8.556799300426162
Cu 10.808241106517176 8.06523512114555 13.368319351561711
Cu 14.634830368476287 9.41095447157438 12.555766717961339
Cu 10.801927692606403 12.921687521684552 10.319637337189713
Cu 10.157556221860492 13.720006946378756 8.151780552155474
Cu 9.491759944596257 8.875983373980581 9.312823138675151
Cu 11.224186023512637 14.698202765125314 12.108531962324555
Cu 12.9503763173337 11.317476540193047 10.441469958463216
Cu 13.159280056080524 13.628907975805951 11.050489201035822
Cu 12.909842071358664 9.003270903889605 14.478234207251175
Cu 11.59358413546167 12.224986446900326 12.486676416304029
Cu 11.601136047386285 7.9761489719201615 8.563122310520622
Cu 7.056999839502152 12.29120738619667 11.73321013289625
Cu 13.042392230045433 7.572876630311815 12.390151307344736
Cu 12.329224528496045 9.89254695533126 12.37968289323162
Cu 14.06923172645531 11.815920474980008 12.528413446485683
Cu 10.701351400503265 10.327152177074856 14.271933465618313
Cu 11.825814569585976 15.024009367455013 9.59592659385337
Cu 11.152581270848005 11.822958998730698 6.737922648695145
Cu 9.132689696696728 13.464080991299964 12.20776502976633
Cu 10.353052300979405 9.471666392019538 7.060563092650369
