34
Energy = -99.05494806 eV
Cu 8.663995116010634 13.682609483957181 12.33903353218049
Cu 10.727464955415599 12.246777352785722 12.212025086376979
Cu 7.9247333554490105 13.178663560451433 10.041314146684709
Cu 13.40398771706233 10.709972167673644 15.081173636433805
Cu 12.767396310996478 12.390575776388257 10.560009810902699
Cu 9.479814309821185 13.292705534497218 8.180569611911759
Cu 10.938612270543913 7.8365147189929445 11.847273083172372
Cu 9.537502802925834 9.292371805119346 10.406846135343082
Cu 8.78896411422695 11.752498716017673 13.789100614553242
Cu 14.367516540734036 13.573940659282057 11.867403143894107
Cu 12.402417426458157 14.782824046046553 10.959295706134442
Cu 10.275968224799012 13.600287514745302 14.294133761893365
Cu 8.504392599576988 11.285598270631972 11.41069264772111
Cu 12.133005765629521 9.145625134593455 13.563896193495731
Cu 10.519697687026923 11.729826028075177 9.735562764937185
Cu 12.682226865846967 10.55248815743649 8.891409499772546
Cu 8.382743206008174 11.002309633555521 8.93880216558664
Cu 10.532115792248524 15.26733546230032 12.509023250879153
Cu 14.264329812605657 10.42574715866978 10.806373145138165
Cu 10.084006411837287 14.262760148587848 10.357117836190872
Cu 13.091570098231362 11.551899617757396 12.85894936286341
Cu 15.565801924333634 11.579934065544439 12.520651642688044
Cu 12.362109904967616 12.943450992249437 15.455171183864335
Cu 13.33446158168881 8.218334520026074 11.484166603957597
Cu 12.492470095891123 14.096279862576555 13.31853129457175
Cu 11.276699256479207 11.844928194621055 7.348613086747408
Cu 11.773419163991804 8.319448148267634 9.58102061333315
Cu 10.424279734867275 9.74056241865805 8.164276225349875
Cu 9.8223507503592 9.771491833673851 12.85232087032626
Cu 14.523287016466714 9.506611990909237 13.158347489655107
Cu 11.76236327012691 10.134877856173198 11.2551890905102
Cu 11.04021776785112 11.163841518340105 14.510823075460264
Cu 11.874233660787949 13.690215862601828 8.788365419822034
Cu 14.481107068367798 12.940574572763888 14.279723414767071
