34
Energy = -99.53871308 eV
Cu 11.916735703525546 8.018474467753073 10.616819809429114
Cu 13.651959080781783 9.593161530469574 11.411785844481773
Cu 13.548318813952058 8.888178053043875 9.043970663079945
Cu 11.736763843582144 10.487733977069098 9.763791054138938
Cu 13.651984953819275 12.25169099426005 10.433311487620367
Cu 10.336088068122434 7.287821099157921 12.266408153741041
Cu 9.56364518506631 7.719272302471833 9.879682101186793
Cu 13.511921765598006 11.205774315181504 8.20111343580832
Cu 11.84961719140448 8.965077747313934 13.004538412499798
Cu 15.239514728216387 11.349707439928476 12.059326574021124
Cu 11.736734630648481 11.357211943669398 12.081207651919101
Cu 13.548283289242468 12.956700005235373 12.801185384088319
Cu 13.511823845943557 10.639051496834524 13.643930941561475
Cu 11.235239228287789 8.601621606946503 8.284829772502501
Cu 15.239550853108984 10.49515823832815 9.785775616735977
Cu 11.176078764451947 10.967392508399033 7.408366958622986
Cu 9.35679903594447 10.094459262228018 8.753782389859971
Cu 9.904772858624012 12.151562656115553 10.556044934078182
Cu 9.904653777806107 9.693487153051494 11.288864892475617
Cu 7.5022397703817605 12.75280136540251 11.925018985098088
Cu 11.849762231640073 12.879854966645942 8.840489526341438
Cu 9.439424773347913 12.561542504359766 8.214155873855283
Cu 11.9168514620578 13.826517417221766 11.22819059060366
Cu 10.336266067461011 14.55717671305227 9.578538364393411
Cu 8.110143666567017 13.85773251781128 9.900882919399558
Cu 9.356724514861417 11.750555402488855 13.09111297602129
Cu 7.603227656113521 11.49736693475063 9.770779518435372
Cu 7.6030850126860585 10.347673782536747 12.074112249461962
Cu 7.502252288188605 9.092247554638597 9.919830242626045
Cu 9.439296096360291 9.283506826145803 13.63075107060762
Cu 8.10999847506033 7.987315418268945 11.94402221738105
Cu 11.23516104263912 13.243372400715408 13.560112479723752
Cu 11.17595574279552 10.877612081589623 14.43659838746292
Cu 9.563683453862696 14.125745828316548 11.965226520737364
