35
Energy = -100.59029834 eV
Cu 8.893420834039365 9.848609950146264 12.708574483666494
Cu 7.547742275693893 11.20718542895229 11.119552514443022
Cu 13.751511239701635 11.913201832071271 9.484768145590731
Cu 12.934429263473076 13.49514359283957 12.502790553461605
Cu 13.544045621905159 11.249739450592978 11.843102920699835
Cu 13.08082141469736 8.779475532239164 12.12251528239246
Cu 9.791473967081927 10.648177157071757 10.425778118382368
Cu 15.149432925984533 15.508069013092776 10.72421218080469
Cu 11.190358863646786 10.699540358813145 12.43606411059108
Cu 15.185982384561354 13.099948195710285 11.114464562578734
Cu 6.994849528495947 13.311970994161623 12.162700954763082
Cu 12.766762715067616 7.756805942149636 10.016448623274892
Cu 12.135177295304917 10.073073193000951 10.050152809452323
Cu 13.430714925781968 14.106710671536206 14.7035297118878
Cu 8.508458568541599 12.118133303966268 13.530739987740592
Cu 17.045833416042765 13.107285017625522 12.59931714918689
Cu 10.252140613956467 10.847194236408518 14.653871123160627
Cu 10.743813492800802 8.53587106986729 11.440332127418399
Cu 12.674459856582317 11.649539123302649 14.28270182906653
Cu 9.002890821137695 14.56309919450515 13.006016451735961
Cu 14.961785825161188 12.395690851648535 13.68561229282434
Cu 9.231600370926973 12.941851303066137 11.186796507137338
Cu 11.56855739457358 12.396323767942132 10.609449454363233
Cu 6.495019130048976 10.934973581143986 13.215305686283497
Cu 14.521624484121007 9.591812888387913 10.312138890767987
Cu 13.09378723733936 14.287645434170454 10.141251359356623
Cu 15.184751258723896 14.723787810458797 13.046165955667098
Cu 11.00625537695683 14.659664494939161 11.453136251272579
Cu 10.753132724730971 12.953253372091941 13.416139955204951
Cu 11.398592210818881 15.256046428049446 13.770071291172595
Cu 15.09373481925999 13.908921020066668 8.860951319040854
Cu 14.42409985717494 9.979656976779648 13.768288888242507
Cu 13.168941511229999 15.86329208474792 12.147123121925132
Cu 15.929947497239054 10.921651347850606 11.972980015419692
Cu 12.037800639233602 9.257300902258114 14.23416322309829
