36
Energy = -105.38165403 eV
Cu 9.996467054540233 12.072444922899125 9.385000332499402
Cu 6.311543107507541 10.949576672309236 8.101403696385725
Cu 14.183999816735492 7.49792016552225 9.972649702709935
Cu 9.353083347570813 9.092170271918377 14.002133710412336
Cu 8.957987996079979 11.704372325307853 14.1268929288625
Cu 7.103559377056488 9.324339355644186 9.93423600219886
Cu 11.781599577091566 10.987378441472222 10.6470407594241
Cu 11.888003219036154 7.555670696045549 9.244688129277238
Cu 12.569922834824329 6.972877049743089 11.767798048889894
Cu 8.521272772965663 8.19020994982934 11.787405134402736
Cu 9.278359137223976 10.149663605876857 10.492229985094053
Cu 12.944047064616605 13.683724436947804 9.665103772806475
Cu 10.890541910634388 13.897450736686002 8.290529431737038
Cu 13.445181794042533 9.26417286571202 11.457053767729539
Cu 11.015339512562285 12.8776818838371 13.253498931488222
Cu 8.227308976569551 12.596614417855792 7.772234330260793
Cu 10.865533155224018 9.689576606043083 8.619352688899912
Cu 11.20231608976044 10.843405634454506 14.7944559108404
Cu 14.043555595840763 11.568776905904125 10.486167552829578
Cu 10.937069478076612 8.569053232284933 11.17973056042484
Cu 8.719774036674117 14.03915680417648 9.76259868368487
Cu 12.85107181198351 11.11640275620518 12.931565300760115
Cu 11.928882423584131 8.845072012281936 13.454204649688744
Cu 12.283188610488741 9.927078284948958 6.767490284101658
Cu 10.362387645418623 7.045886454644945 12.96592325397596
Cu 13.352617865454599 9.604646477001635 9.02896327991969
Cu 7.49489011677724 11.801891131734338 10.010902930791621
Cu 12.447713724332004 11.790518781276386 8.326341033680482
Cu 13.043169588989459 13.313476215659197 11.995900041656753
Cu 9.027709418122978 12.58043285601782 11.770693005760243
Cu 7.766928922519246 10.480870348361668 12.338852753177187
Cu 10.383967603187507 11.565167745695472 7.025780203135064
Cu 10.897704094259337 13.93671347518259 10.92673712145125
Cu 9.27929647996358 7.987979433157927 9.376320501965115
Cu 10.404643666205098 10.626120413969781 12.564063595222558
Cu 8.551115320216118 10.163259779528598 8.085811129990812
