34
Energy = -99.58083735 eV
Cu 10.213185884909558 10.867608539703387 12.363723059865727
Cu 11.142885509060857 10.471528891449154 7.393554674369508
Cu 10.161200278873705 12.418400874060541 8.38107185654764
Cu 8.85487190864446 9.929796750471416 10.480864419372567
Cu 8.921044586596649 11.028070350545555 14.396715193028488
Cu 12.968188812835601 9.45642304647185 8.426286900202465
Cu 10.539297709869933 8.439709058011381 11.608938733486749
Cu 12.52600000544145 7.885876387939383 12.989965104913574
Cu 9.76931003171654 12.648920510528825 10.87021889137441
Cu 14.561183237284872 9.07681406792251 12.21336297011446
Cu 12.080494203069723 12.643008464282824 11.962150053305795
Cu 14.060165865291173 10.604718571148585 10.212850826999656
Cu 12.752687685515795 8.432931982835205 10.571114993526097
Cu 13.200883646989253 9.865150681385467 14.481077738951791
Cu 11.902448507261708 14.146272234417626 13.791396890065633
Cu 13.97638279121624 13.056144494269835 10.407070207052225
Cu 12.506107699455104 10.23066435302967 12.269616388111434
Cu 10.627806061462168 8.716286781218724 9.134815490177553
Cu 13.559597121831729 12.28639134300748 14.39389826214171
Cu 11.449472706111441 10.843617159094475 10.087759565944335
Cu 9.65430743922064 13.132983842103107 13.348725656542559
Cu 10.776541271868814 9.231891538955962 14.05798461879537
Cu 12.823962166054653 11.995938830258376 8.450620103346193
Cu 14.266475557107569 13.861031611569285 12.762169570969986
Cu 10.425058244010161 14.786288463954618 11.732854340420262
Cu 7.929351217201879 11.589790512293403 12.097735553459255
Cu 7.929966282253852 12.076695734418966 9.521134999422296
Cu 12.760105931143036 15.061111778402996 11.441199928675307
Cu 11.692059543168572 13.82158842231995 9.662722140493829
Cu 11.301783243379333 11.657899062524466 14.4824003034355
Cu 14.657531953698705 11.529526749370863 12.34844898797984
Cu 8.536608398560395 9.18188834552408 12.814404825955744
Cu 9.241204037258253 14.42205389797175 9.470374635907605
Cu 8.896714207949884 10.296754869519024 8.140782424450869
