31
Energy = -89.20154245 eV
Cu 6.771206396445747 9.66435397225899 11.550997119219668
Cu 8.059883267033479 9.548854238986983 13.56720789405795
Cu 7.065552059631107 8.161890695608893 9.59217251391463
Cu 7.177494629925358 9.455056728987168 7.406430850441847
Cu 8.160512461667365 7.6794048587525445 11.932810696642758
Cu 7.77734310567199 11.88322707747913 7.740978915235803
Cu 8.595718487543838 7.261992720597171 7.768784434269085
Cu 8.102795201695887 11.775724961232443 11.88870671694308
Cu 7.973837191033764 10.461822514881964 9.648558147552265
Cu 9.503167077749838 9.899177799211282 11.67239960269501
Cu 8.772382027770995 10.940801615604684 5.780355311163365
Cu 9.868338233900527 11.15700762413678 13.686491682743542
Cu 10.33243144113514 8.377137685624204 13.270511535656007
Cu 8.518260798765013 6.151939869790305 9.99158627805174
Cu 9.498842916473706 8.386330671366427 9.804746172307194
Cu 9.507887053125847 9.64431277447442 7.694522185763422
Cu 9.07200605583158 12.68702283076759 9.693661090988735
Cu 8.855261763542757 8.532175581214346 5.661016877094801
Cu 10.32700134303417 6.640566946958856 11.537644019035936
Cu 10.691610475054574 12.166114113579923 11.583035665534744
Cu 11.873694561202058 10.256359527276503 12.623474914545328
Cu 11.153696277542972 10.05001190043678 6.070229308229086
Cu 10.523030927963708 10.699602938388109 9.586181079837184
Cu 10.200235503095021 12.136846074937383 7.413568883336902
Cu 10.89496604556194 6.651636115909161 9.050137757911799
Cu 11.6880502244465 8.534950608070668 10.98189265897514
Cu 11.56175867905494 12.897900335793073 9.371191010891017
Cu 10.84451813946324 7.6546362268811885 6.778064785754242
Cu 12.73113449109636 10.752598758761517 10.35567136587072
Cu 11.897694595655047 8.907824175614337 8.531735724565145
Cu 12.37898715121352 11.162832660520708 7.874325336255164
