36
Energy = -105.32531601 eV
Cu 9.441754541653378 10.736852184365976 5.04867909544619
Cu 11.224989794839733 10.482629528267704 6.640359275913038
Cu 10.715516692987036 8.521415797078673 5.188170830650057
Cu 8.778290459261019 8.925665759981221 6.4869625129132675
Cu 7.251386784364611 7.096615642736452 6.902179430195052
Cu 8.031802621959802 11.199417809134752 7.1459861989473845
Cu 9.958840897272012 12.590874912318 6.583121933883848
Cu 9.717222923860806 6.630073144093115 6.59462104898154
Cu 12.51238837139351 9.99902947319633 8.70440365839252
Cu 9.66120947805753 10.03523034424076 8.564560636262081
Cu 6.976346701571044 9.17829226483636 8.150746781341203
Cu 11.49272134945251 12.21351632897333 8.470316630741365
Cu 7.372273953130417 11.089277731679768 9.568288336222675
Cu 8.366946598124732 5.265743806505099 8.06532714496218
Cu 11.18459663475902 8.195657555225024 7.590819515970315
Cu 9.186175385850097 12.556102408643625 8.936221537700069
Cu 8.88713365797614 7.643492468374215 8.822031205446864
Cu 6.637548083928227 6.882786059383112 9.271350588586246
Cu 10.909548147550469 10.735558888002222 10.460416910877507
Cu 10.575446765589714 6.035099877303347 9.124377422993849
Cu 8.446119007807546 5.457114954314279 10.395989008915366
Cu 13.043919406072325 11.920478958069378 10.319609303494175
Cu 11.176363133932684 8.316138257762645 9.987099395165156
Cu 7.3607889030734155 7.244517415881465 11.587275657361138
Cu 8.83100231251219 9.306946960197 10.733607870397167
Cu 6.209245750434346 9.049003746066377 10.437421885683733
Cu 13.005085617282823 9.628317093510663 11.123314913938747
Cu 9.788300299384698 7.089720157070181 11.490423260030402
Cu 8.274335010736849 12.732124983667664 11.174154742410218
Cu 10.715266571360079 13.037100992372189 10.871628468529678
Cu 11.95902023513579 11.428774706502864 12.51573390190569
Cu 10.888085213271014 9.115934067231061 12.360891009622735
Cu 6.009536607117649 8.739646335417579 12.869093870237604
Cu 8.520536329174174 8.825776827966825 13.086055940503392
Cu 9.523890149751905 11.171144606901318 12.496615802094487
Cu 7.150336035307924 10.70789837866777 12.016114699219793
