35
Energy = -99.76116568 eV
Cu 11.076991261098273 14.399930085842113 9.684274204326522
Cu 13.739741783392773 8.1219894789252 8.262008034551659
Cu 9.682492430465595 6.375884707401416 9.24969722116968
Cu 9.2532774040324 12.876351365850068 10.47729182190422
Cu 10.886210009198566 10.384482573816905 10.336766058263528
Cu 10.813082492760838 8.430041917447587 8.833563874146895
Cu 7.28383355809618 13.520371789026061 8.550336732249335
Cu 10.951384877590275 6.974771537159042 11.319294705773782
Cu 8.46996361599722 8.903489006415716 8.325214891198476
Cu 14.718950823207607 10.583522620265871 8.090958844586856
Cu 7.370862167060817 11.858029221799745 12.129650079426684
Cu 14.378098467548044 9.614022124789532 12.203198676461957
Cu 8.779563593322719 15.07778334167032 9.566343141502635
Cu 15.066621055581178 9.193948005254907 9.956802156214701
Cu 10.332523326521425 8.925237816304827 12.686352447597672
Cu 7.781650760229104 11.265699101803678 7.995427314003997
Cu 10.09723673568645 10.708472923195037 7.98570635699476
Cu 5.183679805305721 12.84668495853016 11.878517483669937
Cu 8.9878273086081 8.260209357406465 10.59845002124292
Cu 6.280163419858901 11.809672846118616 9.946525451401557
Cu 8.67530276325494 7.122309235490717 12.674647339843489
Cu 7.959000190311311 9.511379629271476 12.462447008655749
Cu 12.44136602048552 10.092283829344657 8.251712139489932
Cu 7.045238523980311 13.967652907409917 10.921372183046033
Cu 12.174668811220728 6.544017391754526 9.228059099702913
Cu 13.482435704568976 11.080274492478965 10.303805182652154
Cu 12.626965588675702 8.134394338449148 12.961525425406478
Cu 9.720155549890544 11.266769804070881 12.297966395498987
Cu 8.352540852807582 10.54891243253361 10.225813085587161
Cu 12.739199413932603 8.614692428485853 10.550887333084216
Cu 9.618999027807012 13.123004427978369 8.03600079512434
Cu 11.610164671186364 12.59186321786837 11.285659831102999
Cu 10.79650177386476 6.793971837597979 13.747097827497678
Cu 11.781550094131125 12.289505134765932 8.858104810133133
Cu 12.160287807736504 10.50690580289329 12.437053715904412
