33
Energy = -95.63110217 eV
Cu 7.6282410068991044 9.749089561881123 7.036577049945022
Cu 6.362739667402735 9.061371142533664 9.077748961162182
Cu 8.947060210733223 10.451829231202844 5.0684034503005195
Cu 7.20752603291742 6.971302144972397 10.141662421054447
Cu 8.582267418489021 7.948215108196985 8.391609395138865
Cu 5.974412923735733 8.455521727621333 11.614086912818381
Cu 9.987109456940964 9.00487722163563 6.668557715761514
Cu 9.65330254284604 7.217030138262413 10.531512814080351
Cu 11.03490485486545 7.670620856108193 8.51066487808734
Cu 9.392716364436678 11.476951254986531 7.232986791427941
Cu 7.7913456505557805 11.102345771586643 9.063731794635073
Cu 6.242570773267023 10.728796017829342 10.97441354003631
Cu 8.213064102017617 9.187387170281477 10.680735591736532
Cu 10.136886950095521 9.886079508229884 9.133028773053939
Cu 8.018146505525515 7.4165405048244315 12.435467624671919
Cu 11.239827715739283 10.983455352791335 5.753283650298971
Cu 12.24243429345443 9.567804497954505 7.4336457033594305
Cu 13.396299632663226 8.198769305510252 9.065421425698787
Cu 7.658034125407736 9.856165172322182 12.975547523208144
Cu 11.689225467187686 8.510089157672436 10.779568205308703
Cu 9.967851633734037 8.845368280805832 12.486096850203053
Cu 11.699704944304269 11.94580652245548 8.001631777990166
Cu 9.852074359056651 12.384979936853878 9.488588564058862
Cu 8.461760873211729 11.573826440220996 11.410467311793644
Cu 12.843915324846083 10.494727598316537 9.622535723386823
Cu 10.883158091622008 10.893081825073757 11.233394072126503
Cu 13.987820143759121 9.057939880593965 11.301459809489918
Cu 9.852916733427609 11.132460113891248 13.419536864913596
Cu 12.24182427504662 9.809534619765763 12.910432481692757
Cu 12.176633993021921 12.78957027022153 10.334145253050647
Cu 10.182858896158328 13.19466285678553 11.80157703627477
Cu 13.76171984254842 11.411595448931573 11.67461069508548
Cu 12.032169471566652 12.293110021381782 13.005841473982768
