34
Energy = -99.51682678 eV
Cu 13.238925439590767 8.958482016803817 8.575562641542339
Cu 12.131739644718397 12.203565509051561 9.840160644679493
Cu 12.829740342066186 9.993607665394522 10.727818336910381
Cu 12.750944984784017 11.184095285207444 7.607764525165554
Cu 12.350769948637621 7.540204107860033 10.366083484005268
Cu 9.672552688062627 10.288372235443108 13.371842182209317
Cu 10.92024010756763 12.810270654434937 7.829519598006874
Cu 11.322015111041713 7.515879179979355 8.050569808878434
Cu 11.356503206495354 8.83633238574569 12.314925400019616
Cu 12.073521981132668 9.102893108225132 6.43066653348906
Cu 11.038024181802365 10.180182208119795 8.973739702512471
Cu 9.597426831514918 12.322267018567599 9.761542318623539
Cu 10.021635775154529 8.246276367337924 10.120659772916639
Cu 10.472205034094483 10.864565225326391 6.512047861128652
Cu 10.55110373168623 5.873687101278298 9.603205181938012
Cu 10.727143565022532 11.051446301913487 11.43100288009925
Cu 10.660705839149557 6.54614189208968 11.910481543667217
Cu 8.403490236910871 6.4868985731828674 10.707569239631809
Cu 8.929303621891451 8.086099610207247 12.545223056439921
Cu 8.576566817645007 12.212005371051063 7.463713507338943
Cu 8.440089918162814 9.94390318424936 10.799023960116275
Cu 9.688011541580641 8.440855722900684 6.457235266085761
Cu 8.6883219900465 9.835528474217291 8.338545751587267
Cu 8.32674570701465 11.973329637838676 11.918539546519174
Cu 7.260321994818122 11.823369735225494 9.521676173482081
Cu 6.6213754197687384 7.06235870050694 9.159622176287842
Cu 7.358211075343383 9.859422290526528 13.088578628754204
Cu 8.225275392862548 10.289213807968952 5.863483706807539
Cu 8.860455115456892 7.015666953986276 8.250283500179581
Cu 6.7007343083938595 8.189161485933306 11.368553251049882
Cu 6.501194397144768 10.860358958079031 7.404662687016793
Cu 6.083247632150748 10.72806122890204 11.293242366138365
Cu 7.158388419269873 8.413365312790768 7.125500723941238
Cu 6.272865096792077 9.417447112185585 9.28401733303179
