33
Energy = -93.13269516 eV
Cu 6.843617677559294 9.657693858183995 13.406967860965143
Cu 13.046573791619355 11.63070929559045 12.468940777889514
Cu 11.845105416735171 10.303533199991305 7.610236262629741
Cu 11.085234802363935 12.070479897777089 14.024913938057894
Cu 10.357686840328423 6.952656860342588 9.566130333208909
Cu 8.957203761682713 10.856350226446208 14.099994340160569
Cu 9.09749103419651 12.844405022503867 12.636060181810901
Cu 9.042917054760203 8.725547035763226 12.898620779455703
Cu 13.043200145520085 9.389993862991725 11.548042688168845
Cu 13.500370103913502 11.870562267512408 8.331407639221142
Cu 9.592086682329606 9.29903731446761 10.162314334918074
Cu 14.994177705649467 10.195056422008415 12.623955783820728
Cu 10.68230599362629 10.507688160911158 12.204523083632171
Cu 10.225581274849871 10.133299830032595 5.895859742562205
Cu 11.077290198822059 7.99014281179874 11.651406389569454
Cu 5.868861902841878 10.618927016731034 11.316406544548427
Cu 15.16358496819198 13.362455908090112 9.12789482029148
Cu 9.573625991913593 12.11072852978199 10.121863844182872
Cu 7.256319910980193 8.664375568029936 11.084238704547035
Cu 12.018341867915433 8.70018048842919 9.459073070054057
Cu 7.061790466973482 7.2481067295443795 13.025876749510553
Cu 11.135851425167477 12.587492602974823 8.055749266842813
Cu 11.228436886992837 12.988289439330702 11.768490044017108
Cu 8.880495041857916 6.86483785403152 11.403825095108015
Cu 8.220296092142785 10.829834586297396 11.761699641167567
Cu 10.156124904522258 8.556988363103311 7.765632531986727
Cu 11.900749388942318 11.080432787432404 10.05196582167746
Cu 11.014998118626904 14.26224321675715 9.759234650517806
Cu 13.172692232254358 13.282266909959464 10.430845999075903
Cu 7.561074265609596 10.571297463283326 9.47362219580628
Cu 14.481177237843273 11.229602351088547 10.505255820669392
Cu 9.436136339220782 10.869821206073558 8.030135843923055
Cu 12.988566191797638 14.254928630489934 8.238780937752793
