30
Energy = -85.71686678 eV
Cu 7.394780430143151 6.540992316118957 8.939394168726455
Cu 9.702185830919502 6.385742924205174 8.008348978855864
Cu 7.608794025973533 7.7291006823643364 6.845298292333702
Cu 5.800172036358261 8.344592882012499 8.443105355872172
Cu 9.322363500602995 6.711004319596748 10.50721894516406
Cu 7.107189525468779 8.442847384589355 10.432406153864349
Cu 11.147041296552203 8.323780331451278 7.221378076153571
Cu 9.022382815011252 8.504866476827653 8.7128396850664
Cu 7.038965247394872 10.104729380925868 7.350969967230392
Cu 11.370671720710284 7.525596302213762 9.460362214112635
Cu 11.23896029828335 7.651167239609327 11.923927450826941
Cu 9.208105117202972 9.492932547079336 6.3914901198911505
Cu 9.308362020493881 9.011591846016001 11.204756028166615
Cu 5.949214818863697 10.515090291538488 9.73184786668655
Cu 13.417221773775571 8.13033471032099 10.590435785618673
Cu 8.339355688376621 10.661727414388304 9.475953853729633
Cu 11.511836006335226 9.779209732630923 10.658050355863615
Cu 7.41999357192572 12.52849161261049 10.63704342012696
Cu 10.604232945204403 9.923580547464846 13.010520674554233
Cu 12.956525138728997 9.384724495650387 12.624515411399825
Cu 7.491846115192088 10.43974763678419 11.854208933857764
Cu 6.85577968325305 12.351240084263306 8.320754387212412
Cu 10.534817724624254 10.478125157955699 8.320990176807006
Cu 8.806530590968574 11.768270112680613 7.063772043613923
Cu 12.785016931816335 9.507874494307996 8.60179022572137
Cu 13.767992489590366 10.615777305437561 10.582529256831037
Cu 9.752761026816865 11.558003809704065 11.344086993478989
Cu 9.578500794038824 12.734168234945864 9.18323034479469
Cu 12.103965399268072 11.675818287757005 12.111225969963334
Cu 11.887808419888167 11.984498709913016 9.672121843731533
