30
Energy = -85.40064352 eV
Cu 12.312111588978182 7.093337774024665 8.883637231327288
Cu 12.198576035611211 11.35854795506181 8.466575233213824
Cu 12.668936402620922 9.314572672303209 9.800905938001778
Cu 11.346354412659217 9.202292304374211 7.588683762903618
Cu 10.167859841711023 6.915769414518665 7.646071344659846
Cu 10.43170523135851 5.894649846292774 9.882687029199978
Cu 10.815845137575886 12.894252221929063 9.819868224022722
Cu 13.103661636140433 13.552582241729999 9.456594172757988
Cu 13.072355460879313 11.561455954348952 10.770162650584822
Cu 12.581197220244876 9.693991914757468 12.253091724681322
Cu 10.369557126123553 8.345224187710986 9.611507731709148
Cu 9.784929036485178 10.935644041794493 8.431251239573813
Cu 8.744422821723385 8.908810084304845 7.738672442296255
Cu 11.789530905567853 7.5303819837389785 11.376986964133291
Cu 8.522542085613159 12.063144722805601 10.156690098933051
Cu 14.469204666338586 13.416019594999097 11.486967118148813
Cu 8.275842875270714 7.143247702239111 9.326546961533532
Cu 7.236066484621026 10.53306479093916 8.731756017164326
Cu 9.27922215495091 7.189457491589335 11.56416836776478
Cu 10.678122298808965 10.619756472328401 10.690412124164258
Cu 8.438090835925042 9.379434200809635 10.567600534039153
Cu 6.193669043830118 12.679363029926312 9.690682365305257
Cu 7.266659176547946 13.082627191548228 11.908275396314343
Cu 10.218368688804201 9.159770492680808 12.540595564862151
Cu 13.483992164977995 11.925879698147822 13.122290772430853
Cu 6.594764430885845 10.837556746838587 11.105363255827294
Cu 8.711358711596555 11.103698826365704 12.448967739052732
Cu 12.084211764465255 13.575573554687526 11.845583980157459
Cu 9.680900918343642 13.313113959851028 12.024120786228448
Cu 11.107694063497961 11.553920800884333 12.962249609089538
