33
Energy = -94.2892068 eV
Cu 10.219517214282492 15.554767363810846 7.605403941334374
Cu 13.104028023281634 13.08197216003448 9.144466251805595
Cu 8.809744460230867 12.3164668226474 9.433332329134432
Cu 11.76105508147282 15.15742238923754 9.405598408139332
Cu 10.221048270590604 10.688103724131667 10.964929146212372
Cu 11.644773351663632 11.04275564106337 8.932479285443591
Cu 14.438520727398314 10.392356947130976 12.144788218771362
Cu 8.879138200706906 13.222100215354867 11.728138248651021
Cu 10.789371985395617 13.224923653031798 7.979617166559361
Cu 13.42606677549798 10.151711895301926 14.461184714764732
Cu 11.647339438325838 10.28321465960275 12.939185843866229
Cu 12.58972815266991 11.695547400866232 11.170914331325156
Cu 9.262883721903608 9.13846503578789 13.245466202728306
Cu 10.882065832871483 13.10204247442764 10.354392558150527
Cu 14.184143658688713 10.847862465302514 9.528017007698617
Cu 16.30834117668056 10.81373360977774 10.726159447935594
Cu 13.597858429731435 12.477472046070874 13.262064163342327
Cu 13.303241607684956 8.307168777776571 12.691508902361319
Cu 12.94294067202914 14.196553165736933 11.438432682361487
Cu 10.427968723695283 10.061674399974107 15.192063832477732
Cu 7.918640993143623 10.863236775383104 11.53889239690476
Cu 8.566764952455237 10.018247147939318 9.157995862043832
Cu 11.76492986504231 11.983380089472197 14.793375340879463
Cu 10.579182169828758 8.696667753727624 9.479006840556016
Cu 8.667995925212098 8.535378571039374 11.041159264581246
Cu 10.605296429122479 15.160085560247706 11.640911415456129
Cu 12.61469459096381 9.316650963558843 10.586213244500918
Cu 11.205101054932346 13.14138087552459 12.810550069238982
Cu 11.410086857755402 8.162884945294419 14.160089612187848
Cu 9.490709358923002 11.53114341138421 13.425521742439866
Cu 10.943065754188956 7.994650391164732 11.785799263617443
Cu 9.248706895767151 14.734542328799991 9.630644152652154
Cu 14.848824179336871 12.706731663497568 11.024480175567934
