36
Energy = -101.98546835 eV
Cu 7.4358383081827 10.574070686504085 14.837541514012067
Cu 10.138886004848429 12.804985148907026 12.150908031243038
Cu 7.129023859485445 9.618763269239304 10.212569480613036
Cu 8.117484416822032 7.43529613892264 9.862040808312479
Cu 8.310518057726581 11.668489392814697 10.805741828723134
Cu 7.630964505293349 10.560870707426924 6.117381506630106
Cu 11.980669758220934 9.85795679334496 9.66414125115259
Cu 9.64175763514203 9.42567655698214 6.6159062071758115
Cu 9.55938715196915 9.441282829261336 9.56887362658406
Cu 9.567199827124979 11.04164927489417 13.852413930320596
Cu 12.374536960851561 12.25021892707711 11.287200868907274
Cu 11.176258185612236 9.034012905507922 13.666109831171203
Cu 13.609381231003256 9.564804671829977 14.080270077448095
Cu 14.273211878879776 11.515439314919366 12.641436125226994
Cu 14.158514725855902 10.951919405001737 10.221804893861103
Cu 9.623205666208202 7.428435933424829 8.043222617771848
Cu 7.315644339883896 7.922266103869996 12.049243228367589
Cu 8.769259858342286 11.293811922396205 8.125121910428525
Cu 7.82905819406923 12.50704078540072 13.085771313416972
Cu 13.527195335943924 10.350587432583076 7.943042410419631
Cu 9.765688211890547 8.05461865463015 11.673507729848305
Cu 8.766548433839912 8.760935390622546 13.820860794498316
Cu 10.44223054268015 11.915221602657041 9.770113080522547
Cu 10.549300496628137 13.365774025062535 7.8631876574554305
Cu 15.158063309699413 9.450303664002437 11.852390029795544
Cu 7.251381136085623 10.27041811414522 12.512914465607384
Cu 10.571612678696798 7.319943994499744 5.882656889581323
Cu 11.204285170695178 14.129745423710858 10.2427092829136
Cu 11.199383307470514 11.047065379798562 7.588063810667341
Cu 11.760121991508822 8.65303635830584 7.561875230078947
Cu 11.96133880452598 11.361437307984842 13.526814907146978
Cu 10.518914506387995 10.372427370332856 11.679862977500242
Cu 12.80472243067899 9.55852374892401 11.87941290344723
Cu 7.658714786081063 8.9986723030486 7.9540863505382475
Cu 12.329060207936795 14.916388000159937 8.308697806879394
Cu 12.753417467605209 12.574573416178104 8.875103199226688
