34
Energy = -97.72778633 eV
Cu 13.104465211334384 10.694551411948602 10.062770702764197
Cu 11.9587431505588 9.806799168565385 11.986247763268146
Cu 12.443251117240813 13.120999087281486 9.57130772711472
Cu 12.014219129087678 11.404136475518355 7.996471244914533
Cu 11.683836497994523 13.583139221321916 7.080951172956889
Cu 13.020701326832661 9.1173500635768 8.164810397115401
Cu 10.806609206786987 11.746946546771134 10.825201729746132
Cu 10.966591178368974 9.6167468054045 9.508639159539612
Cu 10.624166806351292 11.278220152570505 13.340688687443677
Cu 12.336396955260962 7.8588004747112254 6.137513757615711
Cu 10.869633101229532 9.602360187510227 6.935761091774916
Cu 9.875300154091628 13.371522880769707 12.384986328661201
Cu 9.966981177141461 11.864529737476284 6.719491091763075
Cu 10.149365970275197 13.082688211839756 8.821306837820522
Cu 11.594642684774419 9.25390507815742 14.345042871353971
Cu 12.447133572638945 7.991686258326147 10.405358296446003
Cu 11.259233118564245 7.421395478862584 8.236873490394728
Cu 8.50518258254871 12.745155136626149 10.516002374708245
Cu 9.84263283324843 7.649435952790419 6.15814329942489
Cu 8.922776162205343 10.915522338487056 8.81450592194625
Cu 10.859654712233882 7.769234111366582 12.565873164024588
Cu 8.46126137629875 9.896795354889134 6.520830452975772
Cu 8.292279423206073 11.514489616600805 12.610835443553146
Cu 9.222088600908938 9.310737171282094 13.725871509628208
Cu 9.94559214598934 7.438821769325874 10.349112540110857
Cu 9.31408958027792 9.691562847254255 11.305260088928069
Cu 8.992162816642791 8.420659560660734 8.32394217189574
Cu 7.079003135079522 10.849287872923846 10.503998971896188
Cu 6.78146855802963 9.682366937877983 8.37539129136684
Cu 8.463694264434071 7.404616804103396 12.320231165682657
Cu 7.02297554910342 9.407525251689234 12.476808847447547
Cu 7.518541785771987 8.227432801708407 10.218744524850393
Cu 5.336291176793979 9.220055183782742 10.496536624354382
Cu 6.059072549348302 7.28340595180528 11.875260368410288
