33
Energy = -96.18629743 eV
Cu 12.498311318130758 13.20427498262209 13.162849959073993
Cu 13.320213757892281 14.026339674494183 10.722574463112652
Cu 13.27970259578446 11.529106432439802 11.312346696370712
Cu 14.85033974075787 13.007550466384405 12.398122743791154
Cu 12.521613711469866 8.229534123783015 9.874650120574536
Cu 14.192495270720489 10.052798462541125 9.644217158369866
Cu 11.276710832567929 8.198141989778659 12.034980452132766
Cu 13.722035207206133 11.143412793595816 13.67808619014708
Cu 11.2765636809766 10.692100221459585 12.541750873687617
Cu 12.45912620507976 9.158520651023201 14.090884736342776
Cu 10.09404868284068 9.158374670050161 14.090802270888572
Cu 11.276500452238848 11.516586758408254 14.710568215718043
Cu 14.994647479942477 12.394940700117534 9.891097181984474
Cu 13.55214900497835 9.12403310503655 11.919548002065026
Cu 12.47614905401765 9.920878804437306 7.9882855503078405
Cu 15.454983993347865 10.681874321164603 11.764011883452138
Cu 11.276582431778841 10.346116714886495 10.089635193134942
Cu 10.031965490812226 8.229442346555063 9.874529498845018
Cu 8.831035962469928 11.143181325387825 13.678065286066886
Cu 10.05456558220159 13.204171647805856 13.162813634867378
Cu 11.276482030235753 12.728401416980583 10.970751361775669
Cu 9.273408828052489 11.528986216204808 11.312325580101726
Cu 9.887148145773907 12.21014296553501 8.917987468637852
Cu 11.276402628340943 14.955608336538853 11.812267518254982
Cu 12.665888827626148 12.21019676373311 8.917974191030195
Cu 11.276468914344784 14.325204701078874 9.238236382514668
Cu 10.077219964161678 9.920926253043 7.988140360445464
Cu 9.232692625723569 14.026187178756004 10.722564820221281
Cu 7.558371511512745 12.394624231386407 9.891090282553002
Cu 7.7025515680200565 13.007193118619819 12.398059253035768
Cu 8.360891209007223 10.052580855375668 9.644130557315885
Cu 7.098205503162325 10.681420327172349 11.763960883339065
Cu 9.001221905271365 9.1238418157536 11.919385729840778
