38
Energy = -111.18469012 eV
Cu 9.165761458467381 8.710249586347356 14.252643552979743
Cu 10.499885093918616 10.4425882637875 13.218126708253035
Cu 11.073556290150307 8.098602021805196 12.639305684667097
Cu 10.388135931520274 12.711161514842733 12.522550480088293
Cu 8.00203635585432 10.87028143147167 13.060993505393894
Cu 8.978379088703843 6.723515127473565 12.685275972136008
Cu 6.990773297178353 8.320517119516092 13.128460203487405
Cu 12.40121075915325 11.32919928841367 11.871216015536234
Cu 10.889415483106239 9.794290094432112 10.815085843907355
Cu 8.891974359195281 8.951198363260634 11.87907210017574
Cu 8.837999372176297 11.201120775588752 10.751059302881673
Cu 10.872081198741853 14.69651243981455 11.005389744588275
Cu 12.045335416798661 6.953800782792069 10.752407926073278
Cu 13.304913098439625 9.10891190454457 10.861928474641223
Cu 6.745362791664447 12.20715417377349 11.218713443875764
Cu 10.909113619959472 12.47488073355882 10.179604211696747
Cu 8.702487813418193 13.669874973729208 11.078016401148647
Cu 6.675613476287151 9.781704766774881 11.135140517753703
Cu 7.324890948612306 7.323320678382604 10.838799608580244
Cu 7.30348746596902 13.424525213319418 9.131416282156954
Cu 9.754399105602886 7.199123010254793 10.310750854101087
Cu 12.660133921947308 11.050958660215322 9.38071671335763
Cu 13.738308107850528 7.117003269706108 9.11151901111585
Cu 11.863817373284304 8.675921385258047 8.932024794956106
Cu 7.002921841152206 11.03535836166659 8.933071928166514
Cu 8.33701076524984 9.064688652873317 9.476480273390559
Cu 14.199875580701352 9.404456180842029 8.44724425369385
Cu 9.670257368684581 14.083329060738441 8.845004051650124
Cu 11.155646974661046 6.5122410787586835 8.344624171993955
Cu 10.18283772955512 10.538481788338958 8.588325794882744
Cu 8.645242042523074 12.23968012108739 7.5209276389265955
Cu 11.239487995991079 12.51401381010722 7.73065885380585
Cu 8.778385431441379 7.240936688924034 8.041947839187626
Cu 12.849231459227118 7.853655438328662 6.911003651463391
Cu 12.295573754364257 10.299752490223987 7.080789290659455
Cu 8.24543176107021 9.730227050584137 7.169962674428094
Cu 10.142345454649563 10.899096113815009 6.135543553713335
Cu 10.44734408487139 8.546535082599798 6.89121954254101
