30
Energy = -85.95965186 eV
Cu 12.33822396741248 8.99399578979955 11.772920309853205
Cu 14.087500736503356 10.641670948160087 11.257542039451822
Cu 12.370832893553901 11.132759924156476 13.070071567140685
Cu 13.615456813960908 12.085936325869291 9.275925192849675
Cu 11.986580420940331 13.461933064318503 13.618880719887533
Cu 11.228574130157892 7.972401630737783 9.814971729466885
Cu 10.443463549098855 11.754204881675786 14.396159136778248
Cu 10.577349319641392 9.404367876680547 13.576784897644533
Cu 10.465246089834212 7.386528774000032 12.123492304040912
Cu 8.635560229031194 10.944799956728973 12.915934155963637
Cu 11.802367833704125 11.14796349331135 10.656698691132773
Cu 11.382005322555548 8.72370113827422 7.521997637465418
Cu 8.333859928190787 8.554442260008265 12.658544586221245
Cu 9.993590096007715 9.689157107904894 11.252133461850153
Cu 13.305049520675889 12.936691931194419 11.612215094879138
Cu 10.27261996852993 12.606193611217927 12.090587511494274
Cu 8.685159988368744 7.755515286696991 10.344956930901727
Cu 11.556038553446953 14.640530554207604 11.496170764938558
Cu 7.723366303743788 10.12820115160883 10.705492257946517
Cu 10.239071048011953 5.821534636461706 10.218642301823184
Cu 7.8229486150203655 12.57838292711698 11.307001166508098
Cu 11.171039832538614 15.596568620289977 9.32502228235273
Cu 13.046201855050107 9.572628177048008 9.2671489759785
Cu 13.388665437072579 14.524700243221728 9.759191097602264
Cu 9.3683588131047 9.507974436634838 8.771902853354694
Cu 9.47869076715225 11.74222899197762 9.833801410801096
Cu 9.380968270768482 14.229988761383938 10.438233470074703
Cu 9.637804080869827 7.1363524458623635 8.187706291891388
Cu 11.303067533314282 11.03237192279805 8.269162189192754
Cu 11.391508898148144 13.226398484576734 9.410712382232415
