32
Energy = -91.02586821 eV
Cu 10.386837343406668 7.165478333273425 14.74346776623906
Cu 10.020325124868293 12.174683686330786 12.46580813569804
Cu 10.663614146534265 10.53088569106901 10.457235353299696
Cu 11.953464116793382 9.016391704910172 14.823098386520972
Cu 10.028620714081688 8.210881342548578 10.779108318297205
Cu 8.671152709824478 13.421735829093311 8.338513519658042
Cu 8.750052925021807 11.931996194469685 10.282517280991517
Cu 8.985780246792855 7.642771336265286 12.823507212429789
Cu 11.506101174443922 15.345007088579713 10.048405480873793
Cu 13.225431802641443 13.628009525925846 9.129135252194052
Cu 14.515144399397432 12.980873426957135 13.0828424846042
Cu 11.157585104391709 9.896147102676638 12.74386404521601
Cu 8.796246066966681 9.997147978007083 12.036008236643754
Cu 12.370664941679992 8.887910304056163 10.666464765134268
Cu 10.913466039962156 11.340456529444838 14.69984626854701
Cu 9.454439688013473 9.388559264088274 14.427190500707015
Cu 14.529944651414914 9.915844077352403 10.547582774958425
Cu 12.868145195383548 11.358424783115865 11.8007662082583
Cu 13.161316613122827 14.20115093664357 11.527696732335436
Cu 15.2279207923701 10.773544854443028 12.66211410252743
Cu 9.500646248425909 15.714523760942807 8.684005657570799
Cu 10.398862507384212 11.665065925421592 8.369037821693754
Cu 13.530104572474423 9.01616680680371 12.782948286819945
Cu 9.198518705433148 14.296258030069698 10.578548820458934
Cu 11.524374471225904 7.465518526273728 12.623383708377963
Cu 12.767787087004335 11.192575972223583 9.337985283625514
Cu 11.0494483867762 13.969965298745738 8.08344010695432
Cu 14.710864215853103 12.412728845025535 10.638408342942665
Cu 10.84161928645735 14.6175614469485 12.282316436155453
Cu 11.288559460934698 12.897261164332575 10.460903277181657
Cu 13.307918085122205 11.000133368856131 14.237135631774468
Cu 12.115814662252133 13.066663439552649 13.52185882387055
