31
Energy = -89.10291585 eV
Cu 9.193926393526443 12.87884180849356 10.1995444902758
Cu 10.559652231348327 12.18421586424114 6.395944142481654
Cu 10.00218615229122 11.710738802964501 12.45609991082176
Cu 13.605269270339093 10.133790647984743 9.513899205070993
Cu 10.54773242879614 9.638509917801866 6.709021253155335
Cu 8.727336953441506 13.142679921841722 7.8062337818022325
Cu 9.403873655919284 10.316156312454545 10.594231252908157
Cu 12.321958866610858 11.23992974882527 7.82399658727397
Cu 13.180191645481894 12.579632761895079 9.691942548041173
Cu 7.60868203614517 11.258172523272314 9.086238141192432
Cu 8.397430574020396 10.942457438102556 6.7019534018094316
Cu 11.13304093660495 13.348115568326278 8.646289493012725
Cu 11.278454985887924 9.090132260951114 8.99941885490308
Cu 8.721578905807895 9.063723578482792 8.424936945000756
Cu 9.141427616509803 13.925439082868436 12.310394442878085
Cu 10.189462671719067 7.317569129056 7.676709034508473
Cu 10.008492366194838 11.216410726901083 8.495799383713177
Cu 11.345262255112317 13.421318073533222 11.150067310593657
Cu 11.290977614931334 6.650348642249936 9.764540791653905
Cu 8.400548227744432 6.83559735314696 9.365482302616837
Cu 7.623018539794659 11.596924009257561 11.620941165712253
Cu 12.488841752820607 8.574252419270284 10.99427193040837
Cu 8.327940121237916 9.438043657683547 12.63448101608347
Cu 9.750018128871194 8.015848224670647 10.94817820445827
Cu 11.730270251488973 10.97959268325966 10.776273699925905
Cu 10.856119969603936 9.379349928514307 12.656451214496174
Cu 7.2763846931105 9.13877701629362 10.425439134472303
Cu 9.538275028128538 5.660456743980352 11.298259791036262
Cu 9.422577063116128 7.372844016200062 13.319765935654377
Cu 11.504332848346266 6.860143660667951 12.280247292647525
Cu 7.579452293274774 7.140421197660528 11.741703348575042
