39
Energy = -114.4188269 eV
Cu 10.652897764472662 8.146844341321918 4.459807828910413
Cu 11.264938760074763 10.543974744224132 5.262266609666386
Cu 8.740449039763938 9.874969252127137 4.786136267191162
Cu 8.444580996536788 7.387456162550223 5.552879175957579
Cu 5.803069885815234 8.843045612829076 5.666395148005078
Cu 6.639981954358072 11.267260349466484 6.23611676685687
Cu 12.441557587791472 8.288575339218191 6.409096805184563
Cu 9.27925561443658 11.391481985173442 6.784624311603348
Cu 10.175365044658378 8.969492885929482 6.543399153517252
Cu 5.586952785593717 5.501806964366276 8.48189941490561
Cu 10.678147690581572 6.475506643544464 6.630531183087625
Cu 7.741965453553672 9.382454018937642 6.9220092351188365
Cu 11.575438387954204 10.604707603195141 7.801477630047932
Cu 8.210471064237307 5.29669172431254 7.464500563219628
Cu 12.525318089710034 6.2021937702453 8.248836286784877
Cu 4.294905838413965 7.569952182357992 7.393629230972153
Cu 6.604746883021383 7.184638784674611 7.254130083847849
Cu 8.928490931179358 7.4638520257374195 7.935994194775378
Cu 5.460780320491611 9.687147241621384 7.998885150479976
Cu 9.486220315111776 9.819865505857692 8.63600299768748
Cu 11.408485969767362 8.215304405563845 8.630027343385908
Cu 7.401101497560761 11.258124858577496 8.712189530824457
Cu 7.594280069976669 6.270176809172748 9.734273430330312
Cu 7.332192287970263 8.750521668544597 9.238134421339195
Cu 5.30951872040625 7.665084869162702 9.660313252258087
Cu 9.439894921213092 7.947542090130689 10.22796285183937
Cu 9.785721241063381 11.965674221422125 9.6569213140554
Cu 10.242335033835232 5.8497986111571585 9.158601272025527
Cu 11.57636564164715 7.257420193930877 10.890165959624321
Cu 11.11891578251432 9.90971473173165 10.464120232440825
Cu 8.558561397404379 10.141304163473022 10.773712812696726
Cu 6.076299489272862 10.176782904502202 10.663889146492393
Cu 9.179972932080654 6.43224663941432 11.959273989338312
Cu 7.219302718962165 8.036021644732315 11.553938273223466
Cu 7.638751143667868 12.201371357604922 11.206016403663972
Cu 9.976764815455473 8.848669704586465 12.424821256647272
Cu 9.9298941989025 11.43222275615583 12.16482595259768
Cu 7.756994617393022 10.162396983574931 12.949053736835952
Cu 8.208809833883107 7.8674009696043745 13.752837503293255
