39
Energy = -114.52553563 eV
Cu 11.501104960712517 6.125033394338115 9.202955294824976
Cu 13.298720977719158 8.597261217975374 10.203826506373147
Cu 12.629005041442097 9.138862646521664 7.576027399852759
Cu 11.087404536349093 7.345650014987746 7.100241827917807
Cu 13.587710015605195 10.666072316717504 11.5879977896366
Cu 12.272440142248593 8.451126198135473 13.527278040957578
Cu 11.635493245130364 7.180532547701933 11.427292071233701
Cu 12.060104269052736 11.460329148329693 6.894739345465177
Cu 12.394051214875832 10.74351332743578 9.400432842532208
Cu 10.730964199134155 9.464616732491008 5.838043417045824
Cu 9.232609670127777 6.233506161097238 8.220626303777147
Cu 11.058206662118252 8.460230264994891 9.394816100863
Cu 11.416869150976703 9.616699609019143 11.691686671963987
Cu 12.080237162470432 11.169622891502879 13.450454488167829
Cu 10.313157153565307 10.29357565563183 7.975700634856578
Cu 11.62226597965339 12.20632632612882 11.230766587300987
Cu 8.65716521992065 8.639965950038333 8.539002469941835
Cu 9.619232246908952 12.184439365185595 6.654375124796956
Cu 10.89743363504851 12.631526059230014 8.789955207897243
Cu 8.871226981317685 7.80737816624754 6.300278633762418
Cu 8.237843205667163 10.150635398237624 6.5444165439159825
Cu 8.846880689477976 13.85288867061492 8.245772665638519
Cu 10.253250385946997 9.73928741263294 14.114883820835697
Cu 9.465255208341446 6.2181489746059135 10.67680071154538
Cu 9.869829822665363 10.760846977503665 10.255214354113532
Cu 9.207590296118328 8.584378553839906 10.938307779267292
Cu 7.968125694247466 11.043783286959245 8.823531717343096
Cu 9.26282631571713 13.091831165676501 10.574137929849924
Cu 9.88040897825319 7.624858351942652 13.037923462129532
Cu 7.31114763270706 6.972750024240321 9.615202647245965
Cu 9.68578408992563 11.517836027391468 12.580314484916222
Cu 6.396490184164008 9.243227795086842 8.113048622835658
Cu 7.166730943392203 12.40401815981163 7.092901386188215
Cu 6.973160290194357 13.183298354186615 9.585714580233574
Cu 8.129609061685475 9.573946044674724 12.844268777255646
Cu 7.570108909487698 7.246162315803394 12.052706520653063
Cu 6.858344383652674 9.197417765921315 10.566139685725894
Cu 7.557987890414472 11.44731471863606 11.277558344623992
Cu 5.677713860995247 11.12514285804101 9.58788987608223
