39
Energy = -115.33545257 eV
Cu 10.076632382926178 6.990607468866433 5.135488791807863
Cu 7.574239786691928 6.896828207460955 4.2180740338868015
Cu 8.519834112774166 9.291122758205693 4.798153726481281
Cu 6.092586526018158 8.726960254912349 5.440653064964489
Cu 8.50697748722356 5.152858446294254 5.976938209648691
Cu 9.419512704270634 11.36292530519474 6.446472518861657
Cu 10.173774607636537 8.964671965810444 6.686595491212793
Cu 8.081732009556266 7.4780752161555695 6.391792771980406
Cu 5.962259927684531 6.265079860107773 6.201834495406684
Cu 6.934741233595198 11.254299514529396 5.515082893917368
Cu 5.371976953586109 10.265044755402256 7.370397934701535
Cu 6.277773868982715 8.032706195605051 7.872180123109483
Cu 7.441859222279624 5.741673539144777 8.1914392174509
Cu 12.018443394904882 7.231643528294589 6.877183178059528
Cu 7.741518968460262 9.757032685503187 7.070289157838518
Cu 9.939283718604692 12.597638988953962 8.707522581839049
Cu 4.13124146519151 7.956840523453638 7.035293447870553
Cu 11.095115092925425 4.934827816447853 6.3579141832882
Cu 9.88832235330916 6.506735110639847 7.596549095142125
Cu 11.478014944018282 10.759545452975567 7.9198652132378005
Cu 8.636616570366543 8.104272340875426 8.766777338407813
Cu 5.050712444311128 6.202548507927791 8.838107640118036
Cu 9.310671831027403 10.352887493331382 8.758610928562419
Cu 9.511193717342298 4.262453590607193 8.21676796586113
Cu 6.787316295339276 9.99911836080524 9.451296901504065
Cu 4.670919845276792 8.620797705388362 9.55317657657493
Cu 11.222400418107362 8.48397902023493 8.852061151576825
Cu 7.511894688808875 11.952715411789645 8.028317538100335
Cu 11.407487539504933 5.996223712074948 9.282999119575445
Cu 6.8378261092515995 7.448444550423853 10.117512508317724
Cu 9.020970035585249 5.85110061620569 10.058694438537676
Cu 6.702570964963574 5.133990244281279 10.54966465810601
Cu 8.378072121550542 11.691278691337056 10.469929720378095
Cu 10.764731128069478 10.301999359915175 10.557939228924349
Cu 8.48948887830386 9.29944825172814 11.082108616941554
Cu 4.980680635924015 6.787255777775314 11.367672796546508
Cu 6.092952098074331 9.048826709348184 11.686040231948791
Cu 10.285306916089597 7.707865964647436 10.918389092414658
Cu 8.035246328632255 7.010575424513016 12.057112744066131
