33
Energy = -95.24471818 eV
Cu 5.858947705807702 11.388522997966906 11.267304106686709
Cu 6.711231392201509 9.096867678302768 11.067933538109315
Cu 6.398591028791253 8.092726315862752 8.851243946800915
Cu 6.125697061131756 10.501198262696 9.037241511029514
Cu 7.243347572337505 10.463028365797125 13.093922099693497
Cu 8.427375374467045 7.226525043891169 7.843735001850449
Cu 9.58206305753296 8.285434698981012 5.807929089912405
Cu 7.368815291515106 9.23332452834919 6.757956988789414
Cu 7.522417454722075 12.744727491541303 12.377932650390193
Cu 8.340437313526117 7.4624893122451805 10.349080899698247
Cu 7.302967964037484 12.698746189768334 9.745069065302374
Cu 8.902587149563276 8.875832614025574 12.364201936759848
Cu 8.434463548295598 10.894645316267516 10.946585048951416
Cu 7.548418833264451 11.664557145797845 7.516685936745467
Cu 8.421816386171905 9.551913215012597 8.881325604494652
Cu 10.311991734971588 6.067080797436993 6.912235861477352
Cu 9.473392621878356 13.137197288399213 11.058369813463552
Cu 10.256457324539854 6.335876826460719 9.403602388487405
Cu 9.580067454388413 10.497097571281339 6.888545980134414
Cu 9.54108688590199 11.931979499442836 8.924695091318343
Cu 10.687607565036497 8.32411028665722 7.946292267064139
Cu 9.709463273557848 11.247546331149584 12.94616114994311
Cu 10.397257189570055 7.059361116463931 11.75433131692756
Cu 10.333809539014556 9.07004422537914 10.26492251559538
Cu 12.1058214401687 7.446073497521367 6.076549420160558
Cu 12.393886051156842 6.344057701510835 8.204562009698899
Cu 11.773700649334966 9.797914683173081 6.263402373060232
Cu 11.528616017191672 10.647292348817466 8.537960354200562
Cu 11.06661589284937 11.367811423840351 10.89074539258427
Cu 12.292868008431231 7.5173921783804225 10.314265951929507
Cu 11.389868949735627 9.334903909455237 12.394121571201435
Cu 13.087778530143877 8.73254096837092 8.18136746106275
Cu 12.886888912684974 9.820791319124163 10.397467040868099
