38
Energy = -110.93265098 eV
Cu 8.791091525517954 10.528978927167422 6.613924724596419
Cu 8.894389276531395 8.213482482018527 7.055587146688662
Cu 11.17796423849615 9.127698759889515 7.239326856612865
Cu 9.105686248556644 13.010868690410579 6.35543344872376
Cu 10.749999730512249 11.557992787951589 7.490904303663731
Cu 10.542110284508883 13.887821008449029 8.179937633383174
Cu 10.67509716729374 6.9705682995851665 8.20597492381826
Cu 12.661279268239122 12.583134553294832 8.585119916978956
Cu 7.3981891583772255 9.669126301213852 8.575707322111464
Cu 8.32310835297083 12.090654359175241 8.3984592153022
Cu 9.676054741173422 9.775334342995889 9.114927956227968
Cu 12.055739950261396 10.330689746839031 9.232654274290976
Cu 12.735231152898484 8.037165552173356 9.098840803141144
Cu 8.435859441629686 7.383707282216108 9.22842875908454
Cu 8.238120862628286 14.550385610879033 8.1965772472293
Cu 10.474541173664562 12.112453700795628 10.014811680035612
Cu 11.940949522077432 14.161688148520618 10.246447962503188
Cu 7.997029202791491 11.143266576647305 10.579081371350632
Cu 9.760978380332688 5.484746416979268 9.942028708867861
Cu 10.733189246089424 7.922761879251196 10.55442752053125
Cu 12.101473954135448 5.727719402921244 9.816929986920776
Cu 9.50909259164264 14.351412968281466 10.362271021785324
Cu 7.293106192019098 13.409761717284198 10.171707052127044
Cu 13.094613947034938 7.146866178947339 11.415883985112606
Cu 8.30774369123056 6.492324777072709 11.527139230302796
Cu 12.811526581625305 11.94959302854862 10.99332770618943
Cu 12.999152942847534 9.543150915638456 11.266862688104187
Cu 8.072722347438564 8.86324988740704 11.046085328267958
Cu 10.465748248693645 10.174427383564671 11.578599446456153
Cu 10.925298553615535 6.1442193346255465 12.112435131555914
Cu 8.754582573750408 12.769058405795244 12.122033245090288
Cu 9.454437113703342 8.113293812283898 12.86876422000619
Cu 11.830714552596389 8.41128483248383 13.026750413802096
Cu 11.142840496413902 13.151523173849428 12.282395923388401
Cu 12.164225693852883 11.008191475182958 13.19910246933085
Cu 8.433620118028303 10.448220535172792 12.960852984886252
Cu 10.360637564975486 9.772415164310988 14.362194446844283
Cu 10.010608992336502 12.079516660668947 14.076818025179008
