39
Energy = -99.13507346 eV
Cu 17.142644252105324 17.787345198774467 23.204998576303286
Cu 18.771203488728588 18.536706953784726 18.54988388971422
Cu 16.053665023725067 9.87577581583497 14.782794263539776
Cu 24.148225665187717 20.692587480039958 18.32677175303992
Cu 17.391187449438412 16.436452596258455 17.11539193571757
Cu 0.4728162292534925 14.789128279920044 18.553817558075806
Cu 25.33689478534711 16.915882682030983 17.74670122963533
Cu 18.437696474141582 18.76282746992484 16.020202642293984
Cu 12.841573330522731 17.712617788145735 18.45634236765813
Cu 24.888689097889 18.679984161375465 19.269006088907474
Cu 16.21026416990925 20.113059497764365 15.607388591068194
Cu 14.914012749805066 23.247096061481248 20.367653988716178
Cu 14.531613543051517 8.325536387385068 15.726608684770456
Cu 14.777659592054857 18.79587630456402 19.24345994920515
Cu 25.288084398837753 16.49394265381743 20.104445476399782
Cu 14.89557498369063 20.892115446390967 20.425882782284766
Cu 23.46771897038441 22.76322477424589 17.5065604764677
Cu 15.757810430318912 18.575694828110755 21.413457348827045
Cu 18.071491612756002 16.674299085588515 14.775982743182357
Cu 16.84622770099238 17.289845916040647 19.399175580574465
Cu 14.534251924499987 16.551518115361493 20.090976503708955
Cu 19.623116474342133 18.308622397550188 13.925815814092113
Cu 18.24681108268059 18.211431274562063 21.090322604275993
Cu 24.15952627691483 21.10552775038893 15.969385480317081
Cu 16.527689802217573 16.210045289903604 21.492294710938474
Cu 15.357974216359217 20.91522305993921 17.95137073284923
Cu 16.562727027843284 18.754540713133345 17.525140952109677
Cu 17.085149076607927 19.87579247441635 19.734950010034854
Cu 24.933046350238502 19.032933173774722 16.82640800324512
Cu 13.86605463512793 10.478165032537 15.49028717466327
Cu 15.920538645931519 17.6173987747595 15.45797047927788
Cu 16.79350191561703 22.23154654069057 19.3541226191979
Cu 16.243666497818932 15.058179832367793 19.012842789690993
Cu 14.223825738520198 18.986297179202055 16.8191622666111
Cu 15.001279716916374 16.744792744541662 17.667223750478296
Cu 17.293055823169624 18.8301742734282 13.857325509149641
Cu 13.04863412192207 20.27132781043025 18.64575371026024
Cu 12.343748375939418 8.920802257203867 16.43186602924268
Cu 17.862643607102374 20.777049628109463 17.57435770628617
