31
Energy = -88.92503572 eV
Cu 12.53701990684227 10.777142817882345 8.604222789691002
Cu 12.476505829611277 8.492817280693925 7.423629981055391
Cu 12.547236753275598 10.435232518521149 11.286932405721977
Cu 11.4127462431933 6.451221183280171 10.42138094348795
Cu 10.309057996491308 8.421120344965992 6.1126868668177785
Cu 11.886670308177099 10.448132056346012 6.240081533772867
Cu 10.674966492219163 11.345434696894511 10.073520335027887
Cu 10.563187450565135 7.312115755048008 8.352196624838093
Cu 11.577013165356739 8.240448657892811 12.198605411710979
Cu 10.682179141175336 12.114027853550498 7.55200749465586
Cu 9.589787350752507 10.752540558249603 5.7233310278802225
Cu 12.062671241779864 8.70401014769698 9.778855237465013
Cu 10.232557985250912 9.77230063263134 8.16121314008099
Cu 10.286860317680665 10.365753867183399 12.30721934747054
Cu 9.783231659512097 6.304515737869489 12.117050115255013
Cu 9.171540910396127 13.014905377137033 9.194323701881853
Cu 9.712042389634352 8.477263016251046 10.603770656325374
Cu 8.963563048127806 6.1512687233896814 9.78462018270462
Cu 8.18677726534299 11.620535577381464 7.4493662919851
Cu 8.688502225651433 12.073872886743485 11.486764335417138
Cu 9.378964708951205 8.319205602123382 13.289104392589616
Cu 8.080445098859853 9.223544825507659 6.85697774926583
Cu 7.69560064442414 7.4277735015060955 11.577271244370841
Cu 8.329271410546873 10.443795515845471 9.768773347394864
Cu 8.588578868817741 6.831223095922049 7.193931921448774
Cu 7.742847053817925 8.11689892664184 9.051030088867863
Cu 7.88055224698998 9.861835846809031 12.288404707639971
Cu 6.867139426818829 12.439125082571893 9.324748337521653
Cu 6.233621807540903 9.104650184761315 10.649593862880806
Cu 6.386992529310616 10.150722993435597 8.357634069519158
Cu 6.271240739295875 11.380411648166294 11.381092204175872
