34
Energy = -97.76247421 eV
Cu 13.51786000130597 8.748165363083693 11.886127283851156
Cu 12.899494516044252 8.820754420261414 9.561805499517865
Cu 11.743741533361563 7.2455307620772444 11.12196329230484
Cu 11.303290563965986 7.118098828300224 8.7104041992803
Cu 10.833491734139699 7.115645715893399 6.244257129303518
Cu 12.36751283174097 8.734832319748307 7.154229349948423
Cu 12.788621411248707 10.551742295909003 13.253553859126484
Cu 13.117120538548933 11.024209596977768 10.790002404108163
Cu 12.718850128847924 10.912235310307759 8.289066924240625
Cu 9.533633341969285 7.870788864554254 10.349688927273498
Cu 10.579798449517794 9.567704553222834 8.826395082560186
Cu 11.522930336517655 8.357594866262813 13.355898647935865
Cu 10.127307067928768 9.432610164038897 6.23959196662171
Cu 9.120155343576203 7.807842189729422 7.793415936486641
Cu 10.508683915020839 10.467932734555415 14.008997571797721
Cu 11.166068642838379 9.674705279280815 11.371841828288051
Cu 12.154065072738302 10.742484867693129 5.857080501771143
Cu 10.4603152778023 11.577873930878512 7.355295155190509
Cu 7.368962991998053 8.406646289887652 9.277002378861365
Cu 10.995911896629364 11.820653773103707 9.808803767007007
Cu 11.189790117659543 12.059341275837173 12.246161089067764
Cu 7.359200007548063 7.700433828879917 11.597395972631032
Cu 9.141502995275257 8.969366803246604 12.640182521049665
Cu 8.88461586007925 10.351614658872197 10.441705452214801
Cu 8.754698853528527 11.481793493388594 12.664179502016777
Cu 8.282585255785268 10.208539655761987 7.809844583973522
Cu 5.358012402904997 8.700458471129018 10.592363671146355
Cu 8.763247345115358 12.337871329145687 8.877225753730121
Cu 6.9092969269217255 10.045072486579079 11.884204754278384
Cu 9.409209316996265 13.228914036028263 11.079267809453702
Cu 6.352895373880038 10.55302119796453 9.4230346782789
Cu 7.14446089134629 12.279933023279881 10.896644414440031
Cu 6.493643553334633 12.637676503662426 8.33268452490351
Cu 7.651051861412157 14.300177811445613 9.73599271955258
