30
Energy = -85.44072639 eV
Cu 12.635093957201526 9.752639784807219 10.7398710428693
Cu 14.398092662786043 10.835425904383438 12.011376917881895
Cu 11.511654218423041 9.650182818101127 8.16842829105783
Cu 13.630517559835194 11.826275572929987 9.911225072666534
Cu 12.76633301271684 11.679139419870964 7.688517716323658
Cu 11.832507025540348 7.631492915420291 9.641004660746203
Cu 12.56451155891503 9.878257859601332 13.281790402694302
Cu 11.349422462642787 8.068304489277935 12.162400391640798
Cu 10.40295260617761 10.637295003776318 12.52710191687936
Cu 10.287624751452219 9.288570606488603 10.377394147014538
Cu 12.273708440156048 12.007595231918536 11.919255232846835
Cu 10.379342251181347 11.913516836700753 7.281662773295792
Cu 11.153668018869626 11.663621705296437 9.69493382291229
Cu 11.761908585269476 10.441476858079975 5.8683121300957195
Cu 9.6823318738288 6.936394914655226 10.596521800681705
Cu 10.374353997245697 9.003968709470996 14.249438328465308
Cu 9.632777413952828 7.980382452774419 8.31177411067165
Cu 9.967263182273616 12.816023512791654 11.475670957508768
Cu 9.104902762958412 10.397468422421637 8.70231477634285
Cu 9.505150387224461 9.686072318126723 6.441431539438451
Cu 8.85341341541303 12.671971111463616 9.245671053731206
Cu 7.9021753071185294 11.576756415998808 7.0525467074817465
Cu 8.2176928631045 10.4277776406073 13.581304868258098
Cu 8.883463494475427 8.544630139097594 12.30781171364565
Cu 7.886540265474265 8.60378955161946 10.010737030803426
Cu 8.442690454637232 10.971400095448358 11.120208201880804
Cu 7.302503167013205 9.180930077962746 7.659507942495749
Cu 6.829305244114284 11.061553020404158 9.275959040239268
Cu 6.604310451766787 9.554309954374315 11.850118481046863
Cu 5.571495035995717 9.053215258689713 9.681950999195367
