33
Energy = -96.19967315 eV
Cu 10.121028005001257 13.062278564675253 10.374356298319979
Cu 10.84639122159002 11.227686952113983 12.134689873207122
Cu 10.753990689710822 12.03839302215229 8.073667541014206
Cu 8.451132795385892 11.677437090236163 11.32833219696825
Cu 12.256554332906369 12.135925485021605 10.020791852701562
Cu 8.433031682345737 12.268865687565702 8.850920085286209
Cu 10.29772252299194 10.495793702104953 9.9649822720908
Cu 6.756985638744673 11.3009779808146 7.412275021789516
Cu 6.469057779926701 11.11366095482992 9.839361521480432
Cu 9.07976222450981 11.320083808827999 6.3558065808240345
Cu 8.974087271846903 9.586341328391645 12.639038447081989
Cu 12.478634119908392 10.216218044609588 8.542745379514429
Cu 6.647068005380482 10.40445611621502 12.226139609839018
Cu 10.99307727782037 8.66541201402027 11.668533079548702
Cu 8.695372650406833 9.87477945023404 8.173754183821968
Cu 12.803920962454823 10.065076692084872 11.02536260050499
Cu 11.428445720045367 10.459415708560554 6.365135462402212
Cu 6.995920406507991 7.985013849931391 12.302894501444635
Cu 5.529312235630224 8.925252515928767 10.622710248795695
Cu 8.034651297579641 9.243737949008336 10.4250306488574
Cu 12.600151487952346 8.069382419799753 9.701501808286066
Cu 7.385011428883288 9.321874049507517 6.165438905574117
Cu 10.13433558680484 8.090015964618303 9.207363444023528
Cu 6.281204380767646 9.05033201427456 8.367108322867233
Cu 11.87080487324507 8.207847145221496 7.2734795163006645
Cu 11.200209087296887 6.375898976351534 10.871910264200118
Cu 9.038848376879056 7.1641808330606525 11.433737964983456
Cu 9.731576428274156 8.783252180337135 6.158254045711376
Cu 7.043659020503258 7.040884125710897 9.914864631139881
Cu 8.026276195595619 7.475737827920681 7.70033156021487
Cu 11.673726208710375 6.119393589828922 8.561170413908183
Cu 10.052626534154463 6.525019016284852 6.914935763402159
Cu 9.211931561144095 5.870352266042342 9.252435535618543
