31
Energy = -87.58516452 eV
Cu 14.709544918199484 12.67353502065462 10.266299308003065
Cu 8.680595649093348 11.739011398882766 9.897113991173674
Cu 10.592128388133197 10.163159347334679 9.08475304983301
Cu 12.225898359646964 11.369504185187768 13.892196468567189
Cu 11.970986585000311 11.248197734864108 7.382169423412697
Cu 9.693970895981092 7.647466591683237 12.32336871979284
Cu 11.065989544249817 12.667044037442473 9.132414227423913
Cu 10.961817162263653 11.332260771297141 11.400278558560384
Cu 10.852940409194748 9.511460091307418 13.184196429340227
Cu 14.792497538576335 14.18288098101155 12.120829845639856
Cu 9.024262922744596 9.62296376033295 11.025600047150302
Cu 13.325706908392593 12.954529193073867 8.430126079534515
Cu 12.461118392328192 13.34377943475439 11.19691028484941
Cu 16.454534737831075 12.326265030955142 11.849240211432328
Cu 11.41322973049027 8.80744787369612 10.84065463331017
Cu 8.931691990019988 13.770246472550433 8.653418656108387
Cu 9.822261270035192 11.325209378863219 14.529874532741038
Cu 14.240965750198342 11.900427133079992 12.626501939177551
Cu 12.867621657584401 10.958256270254195 9.848584034575515
Cu 12.20561938581394 7.566109956490604 12.729743145821597
Cu 8.427792609374874 9.521793177875203 13.374738708550717
Cu 11.407082051041241 12.997280728249688 15.444816414871571
Cu 9.837372497540217 13.57218936914413 10.97729400616855
Cu 8.250922037261324 9.758327434140291 8.625299685683434
Cu 7.437808691019984 11.419452924094802 14.42040913034508
Cu 8.684409936913744 11.782161208897316 12.368971755441205
Cu 15.121096983314981 10.403275603090766 10.949026504331497
Cu 9.474825457313306 11.610639865574878 7.526573422353174
Cu 13.005493809690039 13.698925917717565 13.701067312252622
Cu 13.101913554033688 9.822612736212221 12.172713587570204
Cu 10.70751327656141 13.162058942323345 13.130233814188179
