30
Energy = -85.27960613 eV
Cu 14.189904047386841 9.54128176376213 8.369071205276603
Cu 13.615048119723282 11.079630148121987 10.253878922768994
Cu 14.10325308306114 8.72102661196957 10.79023778242128
Cu 12.179365485347677 9.282924988041298 6.931223839347392
Cu 12.384836903149374 11.372305956339101 8.191891836569061
Cu 12.156957968361496 9.161676302314557 9.533894548495482
Cu 12.257388408086534 10.054356741940623 11.980973598392291
Cu 11.109365604068381 11.443152582363899 10.331391148078033
Cu 11.918733861847766 7.711632387738171 11.480226052541244
Cu 10.30213196364596 10.070617520234137 8.347969984787213
Cu 10.771028283517454 11.251170829271093 6.320328818537876
Cu 9.959088406399884 12.463876568014209 8.44567308023128
Cu 9.817044696274575 8.883234645360542 10.482059115314486
Cu 10.263087586981984 11.334348446437335 12.630778304074276
Cu 10.326870170474503 8.921433126324294 12.989921789203422
Cu 9.154420409887452 12.760731746216775 10.924635724041119
Cu 8.551713205250067 10.330078554512038 13.983100074233182
Cu 9.752790021542916 8.978247905200673 6.184808358230329
Cu 9.694233057482696 6.836346745484274 11.81020741175967
Cu 8.433389255104764 12.722659016598524 13.321687612035126
Cu 8.000807305727108 8.594377131534614 12.290760285935912
Cu 8.415184434430515 10.865621066287856 6.981276483246518
Cu 8.392943322382523 8.661964615298276 8.380799785497134
Cu 7.676211007592153 10.980266419861042 11.84589402243842
Cu 8.231903171327419 11.065529634463472 9.454595664501252
Cu 7.882114056935727 7.166429172321231 10.242642156607404
Cu 7.297617629552573 8.631506962616509 6.271375662068061
Cu 6.756123952898275 9.304925868438179 10.303731134563952
Cu 6.374537785052693 10.096362549260483 8.049011649916366
Cu 6.256831010819902 7.657694782578525 8.405048071622533
