37
Energy = -107.38583029 eV
Cu 7.460411948643301 12.760744177961781 8.993621630307395
Cu 11.553413218375697 13.710979969772197 9.781600959028816
Cu 10.89397203706728 11.823173091240887 11.131989109325353
Cu 7.373822996972415 10.61290976314208 12.562469800014197
Cu 9.18238591042132 13.658713241309428 10.53805188071318
Cu 9.018387569970013 12.526886548035268 12.709940921233851
Cu 9.962063751081612 10.277623412346827 12.849141919663209
Cu 8.53959562467539 11.237372488917707 10.53549576669955
Cu 6.123482983160912 8.743954888172667 11.481820742924263
Cu 8.390348054868964 9.36192989010953 14.366943597778178
Cu 6.908174472309471 12.801008854156994 11.398551251635705
Cu 8.463027637187041 8.365368997035816 12.146952999104508
Cu 13.20837524143137 11.863921413152518 10.331496543901967
Cu 11.906526701041734 10.207575187126476 8.953444142519318
Cu 6.282682556288052 10.761120437292924 10.022455533347095
Cu 10.131938979966684 9.493054305429114 10.567394862716391
Cu 12.258402836640181 12.329067899996364 7.887970758950577
Cu 9.93645080806313 12.177856666610708 8.633123910505294
Cu 8.1583909841526 10.600225756302192 8.131768985408911
Cu 7.700949347807567 8.745713692804948 9.661418428721575
Cu 10.361511785894233 10.364574440601626 6.9164405700767775
Cu 10.943157877408193 7.973646010119594 12.331445186907493
Cu 7.257460817872289 6.6596736041005435 10.724593343005346
Cu 9.821147589734375 8.569502514264771 8.418141401182563
Cu 14.260977331885572 10.949835194725681 8.328692988855067
Cu 12.293130347641174 9.960885581385355 11.73583269195296
Cu 8.322771421142626 6.57727164520838 8.446495850696879
Cu 13.979623208726291 9.417111233594696 10.145289774456106
Cu 11.987860345396097 8.259678447276654 7.435784362238738
Cu 12.774594003378299 10.352002069952311 6.535144518009708
Cu 7.782037166362628 8.49165963307188 7.078616347489666
Cu 13.421746901151792 7.814513086515817 11.899084202152187
Cu 9.656988237318332 6.977838179945655 10.464100936893304
Cu 9.893182907509171 7.466084786264515 6.333660565097876
Cu 10.810492919227476 6.291802975098658 8.37661949987721
Cu 11.95171328981907 7.888046351232227 9.972777181426014
Cu 11.034141792354987 13.932015168671327 12.1769684381299
