39
Energy = -114.8557636 eV
Cu 12.569671855396855 8.394375273980739 12.069264607747058
Cu 10.344340824735378 8.297771016768827 13.234233417675595
Cu 11.891858032057728 10.315462323878016 13.277261834503873
Cu 8.806221538519557 6.6576831270867896 12.121440696642638
Cu 12.470379902075898 8.518653162028516 9.663220209620581
Cu 10.914015845934765 6.992632240151818 11.01217576447769
Cu 12.701827833828192 10.653211719694557 10.95299382726278
Cu 9.551041580168706 10.772181102532834 13.296105776790625
Cu 8.089165004793381 9.021697375894195 12.362693366041603
Cu 10.422448597060809 9.549070129890202 11.183052301390058
Cu 14.225359534677047 8.85689069116854 7.904048441010847
Cu 9.124374756077422 5.736298853719693 9.735959572983502
Cu 6.593742437134509 7.337873003982015 11.311799645015451
Cu 11.127626528665393 6.806076553281617 8.614930999601661
Cu 11.119530050360583 12.21939419739842 11.932752521613827
Cu 8.624274730399794 8.020621254686223 10.088230905179888
Cu 12.739143503467544 10.672715096851675 8.530265588370815
Cu 10.202593845657825 9.230082251052375 8.622149362591363
Cu 7.165250437592319 11.202229734984213 13.082121304225163
Cu 8.317002501454695 10.400822979300811 9.931766229888009
Cu 10.502190416245387 11.442861558469032 9.607715190077295
Cu 11.975242025831966 8.63571715541096 7.105907833586286
Cu 12.39768474949226 12.867176174671231 9.637377649394596
Cu 13.498002861158083 10.487253842996036 6.244492865829877
Cu 11.117913112689125 10.989641116598106 6.7287535664050875
Cu 5.733125292933343 9.540570284628075 12.10257383401744
Cu 7.596310824362804 9.042641517905432 7.7890299352988395
Cu 6.147071395175104 9.148195513158797 9.747998272298426
Cu 10.194806346155698 13.788914962900513 10.28520577777067
Cu 8.687906021871088 12.352714317141396 11.60905229254191
Cu 6.889998628526774 6.886124739887791 8.867014152271775
Cu 12.801961788971012 12.704178703653527 7.1448626276424365
Cu 8.999945872707627 7.082250236018389 7.614980490045951
Cu 9.596866818394894 9.077801779933047 6.295479953627971
Cu 8.182889604731674 12.793969779896095 9.250889924747135
Cu 10.461826944205043 13.107077500105438 7.903512953121223
Cu 6.40585196735074 11.597412740554484 10.791832314553902
Cu 8.844226165337185 11.165547362104073 7.519573659500457
Cu 6.5143886056018365 11.182287407435556 8.375359116435476
