35
Energy = -101.69737344 eV
Cu 13.456708482014648 8.41151826516241 12.122450966334188
Cu 12.448287820294578 10.472583461163422 12.775247771666674
Cu 10.70443374187232 12.15747064442124 13.102367178941893
Cu 13.861944156926748 10.345241276414065 10.623219415605758
Cu 14.725872163569084 8.05199953200029 10.144759839496865
Cu 12.137565859862224 12.124469173032406 10.991917729655443
Cu 8.345893550481337 13.00508216923207 12.389032536877398
Cu 11.232267097719088 7.612480165458554 12.40650613164765
Cu 10.112062853404655 9.711788158050433 12.840171895349522
Cu 10.388481404800997 13.816459648613483 11.329093411244472
Cu 8.663565265081996 11.23076736042495 14.050123168893174
Cu 12.421233498893876 7.192890768474351 10.254330591338904
Cu 8.798438055552435 7.663284714312319 12.39806033306338
Cu 11.518494303436595 9.620805628057635 10.619949580090646
Cu 9.639623624931602 11.423745117268613 10.994136721174225
Cu 13.095345725855257 8.970589893266549 8.653000432808547
Cu 12.620978390895097 11.344501779471955 8.675026590225666
Cu 10.18378591783794 10.70913193878115 8.711212548773016
Cu 7.682953136870847 9.83442257363368 12.276846142554552
Cu 9.113167603757802 9.02411056438847 10.39574566280765
Cu 11.194775707583608 12.098232306516513 6.819456216614235
Cu 11.594833699994142 9.738341739993812 6.8832607715859515
Cu 10.776180345277325 8.16933580065261 8.629653110813058
Cu 8.983693127519178 6.653154484677585 8.27141033149492
Cu 10.02247780189356 6.7225781372907685 10.482849851853368
Cu 6.444711951749739 11.678619863594468 13.224915524038503
Cu 10.911099465295226 13.109529015762028 9.069478926188681
Cu 9.780168648841721 8.148172849171834 6.412589970248608
Cu 6.956160652360356 11.677188563639387 10.851169462569832
Cu 8.495865449109555 13.285990212791553 9.829566264187559
Cu 9.01937836447386 12.835960797871786 7.493799453447839
Cu 7.676350771169248 11.190625825924391 8.594044443789421
Cu 9.185524162973133 10.57412320328043 6.503922859187671
Cu 6.7558568768599905 9.397490135075895 10.015509865484926
Cu 8.216533492432637 8.913199109262962 8.078851787820126
