30
Energy = -85.29322063 eV
Cu 10.433412961617679 8.22870619696134 5.665487201901229
Cu 8.739643108120912 9.606967565159941 6.637652097006566
Cu 9.169009672920117 11.698592044599547 7.795302373594605
Cu 6.88027162627982 10.981191456317351 7.5595239550412066
Cu 8.757972534223038 7.1476330139923565 7.120016706303217
Cu 11.069421395599402 10.203735848877004 7.020878870484425
Cu 10.98660664085994 7.925553149204264 7.981473258247971
Cu 7.254994115249251 8.694886161617525 8.307923442899256
Cu 7.324128828932301 12.810572027538983 9.151041956777867
Cu 9.842787630623283 9.760678517571998 9.224028842017285
Cu 11.481471159391974 11.87254176365751 8.7821309455411
Cu 9.479465839434896 12.235078020997259 10.156478190804311
Cu 9.20649163194024 7.2675426059549455 9.51441520207699
Cu 7.553416343262461 10.559726400587122 9.862756461551566
Cu 12.490099062193838 9.650581609655253 9.054592052344038
Cu 7.081685744245529 6.423245456737402 8.942071413473617
Cu 7.3498406313282825 8.273238351881332 10.69216143838318
Cu 11.273155209056268 8.114048484722323 10.476444379466113
Cu 7.682767618369271 12.177434886298066 11.703724602116306
Cu 11.240281378223083 10.681147447984289 11.058159684098683
Cu 13.405557074273853 11.563416029945808 10.329616690054868
Cu 11.656041753186697 13.165406334639199 10.88734463765845
Cu 13.233882977015089 9.413491068499878 11.567370858278254
Cu 9.301987489585235 7.553823146122092 11.924454691866986
Cu 9.02346128515156 10.009895811335513 11.835218362723062
Cu 9.987163769145338 12.395438748303478 12.51165921394582
Cu 12.538421801285336 11.767121477974198 12.733161295867509
Cu 11.204172513597294 8.682914906606737 12.79579149831623
Cu 10.646885412024492 10.636847047239788 13.94250820333997
Cu 12.96741286689081 9.759610776996439 13.988990866078648
