32
Energy = -91.88362604 eV
Cu 6.992439275918614 6.917177756097065 13.387635898731752
Cu 10.2396693210363 7.896044935402576 8.113615926032498
Cu 10.792413354814567 9.869611000068387 6.7001768402571384
Cu 9.614834847026405 6.527975743554635 10.06562901341512
Cu 8.53300416583217 8.925333804970418 6.608567108516754
Cu 9.37672816456695 13.50241202210956 7.4121832394907905
Cu 7.32381551926119 7.115948862101361 10.952749965310877
Cu 9.114340087141311 10.281075661172126 8.709866083189004
Cu 9.551881687702958 8.897683413765487 10.616691453133475
Cu 11.930392300903188 7.533354187021696 9.92389058936057
Cu 11.154617205276358 12.204549244214911 6.279067628903205
Cu 12.17263128787906 9.53653848714569 11.519575078565119
Cu 8.22102014047042 11.11515000191017 11.517367435598715
Cu 6.946173970386761 9.456477097058896 10.29420460648897
Cu 11.442642480610857 9.785317138774541 9.182768087405796
Cu 12.903281203551986 10.890346084558573 7.636525339210245
Cu 12.628288868458043 8.416499346390014 7.530704981922489
Cu 7.100827513352911 12.678908612755706 7.747739101822215
Cu 10.088443944713037 9.837397995581927 12.837058239946785
Cu 6.438103000949848 11.782883374219052 9.900166385046294
Cu 10.89455133614927 7.532108513785647 12.170508140816741
Cu 8.764635280669582 11.351431124320317 6.494881515201499
Cu 6.862914599365231 10.242773854372377 7.946921858504157
Cu 10.528296410645186 11.317365243201595 10.886879899796856
Cu 12.926610352656812 11.506330318495426 10.075651987134464
Cu 8.736003722699452 12.598735277378504 9.617335971718541
Cu 9.256679322949136 7.808358551292231 14.024649671704218
Cu 8.977386334984804 6.068175048970121 12.338350760842939
Cu 10.98633230369131 12.1943215599862 8.653847362141361
Cu 7.902757318208861 7.920026571311917 8.732179347285047
Cu 13.758879448795541 9.245924249890187 9.512413669823832
Cu 7.788912482350824 8.993272171141765 12.55970406570237
