39
Energy = -112.83621472 eV
Cu 11.661183972752562 14.933240551006067 12.276546218550006
Cu 13.48125914790196 13.395624561677938 11.523478854050762
Cu 11.151589073955199 12.86733497095096 11.237424543485163
Cu 7.391778228846001 13.968929402910312 12.868435359621001
Cu 9.781819343231176 13.560791144818321 13.175578313056109
Cu 8.785039110826297 13.438584418135822 10.917061584398178
Cu 12.19110321460349 12.9616025112988 13.579442979298662
Cu 12.782633695534157 11.857528131616832 9.601165483486058
Cu 10.31464958593084 11.817077232020742 9.236198479431929
Cu 14.38348577931975 11.930101710441841 13.342272247816158
Cu 6.77832525607801 11.970815937442932 11.565122881846534
Cu 11.568257193700832 10.459455566384646 11.287097017209819
Cu 8.101093061751326 11.744660024833355 13.578955056256438
Cu 7.745091014103554 11.896635410485905 9.337707405592814
Cu 10.50102996663751 11.225850357895162 13.495466669607024
Cu 14.840486959645766 11.472852380921303 11.060062164401241
Cu 12.646869331414846 10.66793389401395 14.414904287288547
Cu 8.903680070852355 11.877710881651801 7.207419060809707
Cu 14.953878315254219 11.361065988322421 8.635369077060075
Cu 8.915725799002583 9.389046221388226 13.265072273164611
Cu 10.184177336745444 11.780501567304341 5.211022863546531
Cu 6.606610786091844 9.89618377515178 12.890131408463274
Cu 9.152015475656578 11.053744936081685 11.333625454556973
Cu 13.672565472401871 9.719130435407886 12.44406070711082
Cu 13.831210781365582 9.614334998400325 9.979184352434363
Cu 11.3339875439055 9.362518676104889 9.114068129621147
Cu 13.14740777100644 10.073208200481647 7.651787547973968
Cu 8.894301870458387 9.88755888204906 8.810737979128364
Cu 10.70742741127197 10.336733838002171 6.9884508606598565
Cu 11.354588869044136 8.931069733609341 13.206088242682682
Cu 7.191821720586438 9.708671395264709 10.535390950373676
Cu 7.586478981827879 7.796485507555677 11.95531695986766
Cu 12.269822470615033 8.057285843647588 11.074007107634014
Cu 9.845267062099877 8.538361541223342 11.149333367430549
Cu 13.15354186772699 7.607871754764409 8.820769283803202
Cu 9.469354369252462 8.035557125128028 7.454979096522212
Cu 11.78024352970335 8.139620852398341 6.962961232324692
Cu 8.24837984913638 7.661169401780596 9.561587241112603
Cu 10.736650591777344 7.047982119441794 9.296549140337316
