32
Energy = -92.35745499 eV
Cu 6.153615531706162 10.816856829817512 11.301769119261381
Cu 8.59468232079856 10.984484412572506 12.066883449678413
Cu 7.398294653512046 12.550524139896558 10.3355032408432
Cu 6.254182692515116 11.00921567729035 8.608445700885765
Cu 5.68327850620517 8.956462574056872 9.89233766772961
Cu 7.301779068593673 8.767422196061299 11.839012461179047
Cu 8.086977608263783 10.054617015833898 9.872098197027224
Cu 9.758496400015579 12.536844464029347 10.454813050262231
Cu 11.07772133823379 10.764591750928178 11.778617479303845
Cu 9.726219552019403 8.789193828763521 12.515223326036686
Cu 8.49841111162888 12.069400502930735 8.261486450425185
Cu 7.33998707451202 7.249043711160095 9.754119703834315
Cu 6.75051502228734 8.639640426347636 7.755612938262355
Cu 8.355007294553399 6.6448945959409365 11.837949989830378
Cu 10.778282115360183 12.764212151148289 8.142532036240684
Cu 12.125376511358661 12.340041164245056 10.062150940154387
Cu 7.683436883354805 10.531206319914807 6.608235477578985
Cu 9.768781261522074 8.125428717635447 10.168376637192953
Cu 10.68987190592819 6.5070984805399394 11.865119446193546
Cu 12.363730102698547 10.88774014476425 7.810564350969484
Cu 13.122051279409742 10.225179050905899 10.200794117085676
Cu 11.963975326659837 8.464234434603515 11.275468937443728
Cu 9.23453852069475 9.048623419197199 7.994579562164518
Cu 8.24940919380263 6.730863621912921 7.594323261079582
Cu 10.076919204226922 11.008724520031057 6.640753380349553
Cu 11.78239059769954 6.45692356529776 9.750290309343434
Cu 10.599585264352504 10.450556472216316 9.410574546327032
Cu 9.390919384925288 5.80019515601232 9.626474377443458
Cu 8.94350283578215 8.448778354679312 5.815086018912629
Cu 12.262861404342539 8.552424600602876 8.719422791398289
Cu 10.630775591626454 6.958751132019106 7.691707092697075
Cu 11.345096161767435 8.977330629964053 6.541207951516612
