34
Energy = -99.4424235 eV
Cu 13.023387360732146 11.022301246659282 10.605141554975807
Cu 13.406266659652028 8.690605267769447 10.080689206006646
Cu 12.443168062028843 9.307034945729487 12.211480968967962
Cu 12.543305589569222 10.211427672877845 8.274797262896872
Cu 11.25909635697743 12.027153623811213 9.414386313841206
Cu 11.903284455227393 7.664204478438773 8.5899670158984
Cu 11.528198640365046 7.291026717037484 11.02440964886975
Cu 10.88597448895018 11.265835692757594 11.897759355292271
Cu 10.905546479383702 11.639812774463206 6.959463240995576
Cu 10.961354940088038 9.54114467310929 10.096526426642418
Cu 10.251334350924358 5.905849449645812 9.303671907129619
Cu 9.30432943596991 10.551403236854757 8.384546156539361
Cu 9.08565936428338 12.202607424939757 10.575418063613032
Cu 10.134971992500013 8.962096557688122 12.494055836619317
Cu 10.906860391914666 9.113934006451506 6.867491554608066
Cu 9.461317695776783 13.197773730415646 8.408494334811312
Cu 10.548599302459104 6.734929960437537 6.884644996507623
Cu 9.252706789927638 10.251644646431297 5.593879948939419
Cu 9.134808684611734 7.068676308572818 11.26308455618413
Cu 8.48765927139413 10.867906371498506 12.650881288358361
Cu 8.368213357506164 6.024599730670291 7.482406524192785
Cu 8.357815248805652 12.15521011698205 6.592086584176737
Cu 8.429524516251321 9.647963116563368 10.588331488218802
Cu 6.777249315720196 11.866146918916906 11.039069291694922
Cu 9.289265184074827 8.047918816255889 8.818433266932251
Cu 8.540286436689023 8.16021076424722 6.4131596988541055
Cu 7.8680102682470965 8.37714091567651 12.841076815591395
Cu 7.749220358419638 5.895852391064542 9.725898060614536
Cu 7.279733736655705 11.99739632145927 8.734447282818838
Cu 7.144981253778631 10.050891493196113 7.133480067245475
Cu 6.730403284092768 7.791392721038548 10.686096381794748
Cu 6.20775303664318 9.786112334156812 11.91076933938743
Cu 6.822335822584688 7.824388680397122 8.228554279164456
Cu 6.174271940779214 9.909086534464045 9.430426349075484
