32
Energy = -91.90728368 eV
Cu 11.051618392838385 11.734780212701038 11.676977451920461
Cu 12.380351560662538 10.585666222927333 13.452426189640036
Cu 9.65725385050989 12.743963631431987 9.797242098972072
Cu 10.02956666469743 9.990980750864775 13.087044980905713
Cu 8.648306306506898 11.266800157378391 11.490612784816372
Cu 7.759153698012181 9.303289724664774 12.621375220390153
Cu 12.122839498116814 12.79038207564153 9.736284324486666
Cu 11.577490239038829 8.156696906243136 13.428173127995528
Cu 6.278333240188864 10.778323843270565 11.255604803926875
Cu 5.672662416312763 10.170197070185479 8.979301832869297
Cu 7.680851507231728 11.43354030219963 9.224724148708516
Cu 8.675937245678696 12.88638029734878 7.530618550002309
Cu 9.242529274523532 7.7806697987177635 13.751168308796512
Cu 13.457091768417374 11.270097872715704 11.25024251622741
Cu 10.686806909438184 14.18147667073531 8.171159509616844
Cu 11.904170669536486 9.433636928022947 11.405916869036696
Cu 7.7125186939797254 9.140769802868853 10.193932201916851
Cu 10.093634688641258 10.209079783075993 9.73640092563769
Cu 13.963318430939985 8.81419281004309 10.428114332282187
Cu 12.292386875567134 6.995487224473649 11.418763189985459
Cu 12.553399246107062 10.432255749207618 9.145627954215016
Cu 9.852500947593875 8.057774693539162 11.331655740764802
Cu 10.915415967761314 11.813739732132452 7.816873224870734
Cu 6.715732775101205 11.303447204850105 7.028784511065554
Cu 11.08339212563786 9.380756824973954 7.4257080228754075
Cu 7.304629946391852 8.949539727171778 7.730030090911612
Cu 11.87790811320534 8.081096192158178 9.341202595044063
Cu 9.323797971571999 8.01448035924509 8.80070006318745
Cu 8.989914987764932 10.519424354761126 7.121055332475433
Cu 10.641820694257808 6.121899881865288 9.853384388463919
Cu 10.928771092574722 6.879183644037008 7.4584818268939745
Cu 9.213701555249456 8.234206126944033 6.320488792636951
