34
Energy = -98.44741982 eV
Cu 12.420963567235924 6.252239671147485 12.190878598372489
Cu 12.181641946052276 8.631498230118527 11.923272891079193
Cu 10.832225321623586 7.535185152932219 13.603218156162878
Cu 12.286212543947473 7.17347045393493 9.915204733280698
Cu 10.272683559368724 6.887624290204947 11.332427870789575
Cu 12.098426062461881 9.604971285665698 9.570579545824343
Cu 11.882512480768222 11.034304527263068 11.558954112711774
Cu 10.495047007401132 9.962420100247233 13.314914732861768
Cu 12.061140065524222 8.209900937575759 7.579366484443238
Cu 9.976298750445974 9.359224918544918 10.942600214009609
Cu 11.058986847934317 12.391767889267905 13.33430213586833
Cu 8.638598905765342 8.257701933523514 12.745726040005275
Cu 10.100761183791377 7.782862366365781 8.948651714410984
Cu 12.829758226994263 10.633971747034485 7.5157238534721476
Cu 12.75204799160795 12.068480404589518 9.471637988736438
Cu 8.125394824003573 7.592587675353589 10.407008780266906
Cu 10.2920265394751 11.388730241576132 9.525676242465252
Cu 7.776061968406182 7.512427554238887 7.946904698393812
Cu 8.488439893921335 9.73114356773441 8.969503561219193
Cu 9.347608271666454 11.664355151700219 11.822323426473892
Cu 11.14133657720209 13.296627508248777 11.011956700810856
Cu 11.95130464452666 14.294966687295132 8.941091727072667
Cu 7.553018602948909 10.022175309985375 11.272838974261624
Cu 6.315366499397389 8.063065521902725 11.88487826473795
Cu 11.1908633741657 12.480163637879778 7.507443507088075
Cu 5.8577436509907574 8.714438693957467 7.092866834940241
Cu 10.455170104002228 10.032629221950113 7.373721715610542
Cu 9.744501231735256 7.8281932444821365 6.560928007836025
Cu 7.872321637616545 12.036753609327635 9.829432767968372
Cu 9.587233486698416 13.649991835973845 9.040272337182248
Cu 6.1912736225704155 8.782326716217105 9.502486610235469
Cu 8.055771328320466 9.60966609406778 6.544409424451948
Cu 8.73734899551201 11.8440478694678 7.549597653565991
Cu 6.52753554460529 10.849815315499335 8.100895149463337
