32
Energy = -89.83988703 eV
Cu 12.544603673691713 8.12313815107485 7.0753668862391175
Cu 13.258705643580718 8.50343316978381 9.388260458724703
Cu 10.66458494603133 9.694054689618 6.611330294704561
Cu 10.885384066219821 8.530996102643462 8.72971457116616
Cu 12.619291226282167 10.367982325336522 8.028883011555141
Cu 8.794841571324593 11.2969486995516 6.576483573866524
Cu 13.090396553306984 8.69904520951325 11.775554404712432
Cu 8.759805038840842 9.694768290685186 8.345395556743558
Cu 11.545548846662731 10.240470981275932 10.394662089297974
Cu 10.492689308108359 11.467268455218534 8.314018892528678
Cu 9.368552793750286 8.91854912901322 10.592609406154315
Cu 13.909598384141617 10.708351602484178 10.470451710461665
Cu 10.831460801663999 9.29080998901928 12.558448557050825
Cu 12.52599275643437 12.423244939790083 9.348977412986555
Cu 7.308409423704034 10.224298461092367 10.23745231868556
Cu 8.868117970424224 7.681219361907957 12.658753092771757
Cu 9.245560093637426 11.567605591263849 10.91010517262356
Cu 8.179410358428383 12.08466937303105 8.787068237368901
Cu 9.40827855551899 9.254773818641802 14.485098897890646
Cu 12.878050176495622 10.840473588924754 12.686464845016994
Cu 13.736433509251182 13.008015541005575 11.615618118615085
Cu 8.300488730497307 10.009852812262423 12.471182614710377
Cu 10.123374973040216 13.475789843831118 9.637537062215806
Cu 10.05925856378513 11.605031616154806 13.305368897091503
Cu 10.180893387880936 9.94945190673901 16.560256480789985
Cu 11.609805180556457 10.389936607733548 14.712526546540863
Cu 12.169184499496984 14.624660272847573 10.35927309797046
Cu 11.436497438998389 12.50690016067236 11.52914145107479
Cu 14.05611486578553 14.237634862141935 13.66367531474825
Cu 12.2400740556543 12.674876111974736 14.02465006891963
Cu 11.90324685281265 14.64269771199051 12.721452552806452
Cu 9.626134081879323 13.88383895066253 12.045006731851807
