35
Energy = -102.83067519 eV
Cu 9.266424470776496 12.729060008780216 13.056433541830359
Cu 9.080635032224752 11.082592061220534 11.082505899621621
Cu 11.087884527764333 9.851761649528106 10.243711706396155
Cu 9.256073545714317 8.546966327710336 11.533964986719928
Cu 7.10244509915886 11.652395667462445 9.751438506960573
Cu 7.105615986695761 11.971112438463173 12.232922498491948
Cu 12.185326272570586 8.289480179325322 8.619918396353148
Cu 9.980000292288024 7.806231259276019 9.334387165621695
Cu 7.100062650810015 9.667156169458435 11.273212925748975
Cu 11.553479390932626 7.674312780914028 11.312217687895165
Cu 8.524146781029739 10.151012515473665 13.26724355122044
Cu 12.906917698671831 9.129747232915225 12.766174621026673
Cu 9.985192089069297 11.205801896965585 14.806351240449468
Cu 13.641326693205611 8.794273465771802 10.426095784938092
Cu 12.193059657396352 10.362839441963922 14.742014552944562
Cu 11.559236425701334 12.971981480068015 13.92112677402919
Cu 10.611012586842106 8.761211428582016 13.583411008033487
Cu 15.062976874313023 10.036134236996432 12.078370203449971
Cu 13.090180898559872 11.080321597584847 11.082767527387524
Cu 8.521705680809564 9.67524242282432 9.180927974986194
Cu 10.610950843818578 10.096009300733332 7.830631449077126
Cu 11.08714498054929 10.961312341722584 12.568614717810522
Cu 12.90774304431582 13.513667993338528 11.931556496171329
Cu 9.256538598384937 11.978869012806427 8.658694408790975
Cu 9.986780941545751 14.248885191595368 9.106488200906453
Cu 8.534466026358224 13.438685328560284 10.803169331272542
Cu 13.645310588577855 12.79142784608245 9.442353301969751
Cu 13.643466592618067 11.658211797440833 13.38575499091877
Cu 12.913710231416493 10.604160825587462 8.550575907167978
Cu 15.065768301619594 12.466777689952528 11.499258383914777
Cu 15.06712755163306 10.74183327071367 9.686442545905107
Cu 11.558998216407884 12.588569660422568 8.025077849277743
Cu 12.188578290432183 14.611242106795581 9.892761298375007
Cu 10.612552432995601 14.407433299390453 11.856160019205767
Cu 11.083438332642661 12.429557829275184 10.443542045130624
