39
Energy = -114.36205808 eV
Cu 8.141258809409866 8.824166106014276 3.846715155599001
Cu 8.551696934171085 6.198940613505121 3.900562304149718
Cu 6.111997318967814 7.325660406799681 4.761763215535374
Cu 10.542379742370157 7.783508391712558 4.780236986820119
Cu 6.738517394712755 9.613290428961333 5.9112438707002175
Cu 9.428030672336963 9.852150407990575 5.873306361979212
Cu 8.317852577450328 7.53233762217834 5.7294408096882945
Cu 4.404353156957527 8.720339171366433 6.823334152029465
Cu 7.203448482949443 5.278580890265701 6.060020107762777
Cu 9.919759886009228 5.580484936871749 6.05644498038136
Cu 11.905245467756693 9.344789684796211 6.573574788679306
Cu 4.60591443359305 5.900169710093887 6.754417445195722
Cu 7.8277877534917275 11.192981338852073 7.796162896387694
Cu 6.327886368908387 7.337662425502583 7.136180220368739
Cu 10.316120094243798 7.809110876125853 7.191681504056883
Cu 12.230487440285328 6.725234074818785 6.602534335772307
Cu 8.243428180615895 8.798949600825035 7.707875081485182
Cu 5.256671141594352 11.232603865276774 7.332233494960548
Cu 8.486623618651183 6.3224955607972415 7.869517701401605
Cu 6.077405389645813 9.39801332065304 8.42702368713493
Cu 10.22426715720379 10.095060402159069 8.447066018035171
Cu 8.726189451015815 4.066466093003445 7.917786607686878
Cu 6.337990453967128 5.278541669546819 8.584930984724258
Cu 4.053193559124767 9.956591909852035 9.300839670408774
Cu 10.74904391971844 5.775429663674087 8.655942981541541
Cu 4.721758560866525 7.339452899800522 9.043539594418057
Cu 11.913637692309898 8.126482616956892 8.963732599049928
Cu 9.606305913704897 7.80556887854427 9.529411618604268
Cu 7.129749801569352 7.4573444062094145 9.495831900298702
Cu 6.291409863401093 11.337742204013056 9.873099997679091
Cu 9.0320344125405 11.770965670559672 10.063169307223824
Cu 8.07845924241392 9.693651845071432 9.87626554494228
Cu 8.609734587183453 5.60794398696552 10.248446023313171
Cu 5.8728751590343915 8.961021109908774 10.920132813993154
Cu 10.192709157004211 9.570077271926484 11.033252467662283
Cu 10.734935178076404 6.7530947891997695 11.20247448870406
Cu 6.094632248614083 6.292402290986421 11.143817369417032
Cu 8.262435331069327 7.86645505602001 11.627685338949442
Cu 7.768576104856083 10.511040459990713 11.975108231054595
