37
Energy = -108.02491898 eV
Cu 10.878273616696498 9.642329700249274 5.817601313110912
Cu 8.49240460804232 9.288296146161136 5.071459153649272
Cu 9.42335594697429 11.674731774239385 5.305877667224625
Cu 6.077096451608918 5.394221234817382 6.627804872516167
Cu 9.415911514882419 7.965245245489633 7.1537075180633405
Cu 9.255780651937634 6.796339545810847 9.231277673372238
Cu 11.027773849319015 11.72402480446156 7.265236038246824
Cu 4.524844968230958 5.828155858164899 8.537703940773358
Cu 5.98354554661705 9.145486078659417 5.184641548961213
Cu 11.09986400988963 9.462563931699187 8.535393575986717
Cu 7.867344846124328 5.361048144071161 10.54463918889666
Cu 9.091275723968257 10.412193970261818 7.257491917450865
Cu 11.620557651600532 7.131168862538494 9.378120413567675
Cu 7.02633569827877 11.21431088683444 6.180727481461338
Cu 7.112210589685345 8.989500213487812 7.222357588251922
Cu 10.728012110887498 5.849832870044937 7.31345877435962
Cu 7.603236400841454 7.041809596828831 5.735546778015995
Cu 5.069364541147555 7.613340172406205 6.870427926076758
Cu 8.678835838174226 12.703530381025468 7.515781455344837
Cu 6.494663002698807 4.4334790585221935 8.825328676610487
Cu 8.40657845012993 5.228088942111711 7.474391776597901
Cu 10.20810968947843 7.263911827838107 5.141819052701684
Cu 6.918335658962873 6.918032314339157 8.514091439467087
Cu 8.518096473012637 9.07664127655732 9.167314040343653
Cu 4.182357929536921 8.148983117806468 9.0660780490511
Cu 7.142741143626759 11.119397879766789 8.763068895643787
Cu 6.153891596036193 9.114690231763742 9.899934331710224
Cu 12.00443069688656 7.822679861320827 6.9767932648980056
Cu 9.649646639660393 11.275189447519113 9.478952263870644
Cu 4.828283944288445 4.41326242632375 10.521003237010422
Cu 7.895520130713072 7.757453198437848 11.1492299446337
Cu 10.20996076506388 4.709609622673982 9.438209984438314
Cu 5.070957002428564 10.049286949544024 7.692521594806703
Cu 10.250503346680933 8.779414955276488 10.774365152948306
Cu 10.084168816280668 6.359301438825358 11.373045662022223
Cu 8.041310532011972 10.275359163570885 11.09775828213885
Cu 5.658411682283446 6.711080935236117 10.590831590462114
