30
Energy = -85.09896646 eV
Cu 9.16555733538104 8.974467556769353 5.6778181382846205
Cu 10.669329153909256 7.121954498710866 5.4053842470720275
Cu 9.37259899287006 5.220043795587766 6.024513088586948
Cu 10.372436500130634 11.203005069160206 6.442856151520017
Cu 7.239411073346283 6.097226883741649 6.7704959245660135
Cu 7.7580845603955515 10.831677746821653 6.774185025191281
Cu 7.39246010878549 8.450052029885146 7.348456629304165
Cu 9.504837329298583 12.080858322236752 8.6017964245066
Cu 9.485005386446373 9.644128066097352 7.934534280013552
Cu 11.461237297599123 8.89900660629389 6.8294328710045304
Cu 8.741146811636103 4.83298766638601 8.305222815221331
Cu 5.341940767890636 7.369781523377048 7.797933153674486
Cu 11.686151100579716 10.702327782457605 8.62176576631129
Cu 9.536053685840498 7.088376789129475 7.596126866346609
Cu 5.595724826120927 9.891404294580951 7.822200055357288
Cu 7.13422796853168 6.376196497277052 9.190097910629193
Cu 11.096725960902974 8.27162344969632 9.312007623640296
Cu 7.489928032806017 10.659407538190274 9.259717714868486
Cu 8.559856967300938 8.312179554524397 9.650997054086064
Cu 9.592690194281328 6.25299030679232 10.112947723377845
Cu 9.828484911239117 10.281162313386142 10.229091233011152
Cu 11.129337670085166 12.205480327430308 10.578447685807475
Cu 12.018726869838362 9.885411092589802 11.003682614622903
Cu 6.172936280032948 8.59853052951024 9.833363976153151
Cu 8.518011133191571 12.117883819672652 10.98232715149692
Cu 10.057246292523285 8.278781729465411 11.664356609574417
Cu 7.7239794022133665 7.2094281700141405 11.541801545952024
Cu 7.8171748961853185 9.709498993354098 11.598364982570185
Cu 10.19968399477705 10.701473932228561 12.526369066268135
Cu 8.037595688243862 11.431234307016116 13.262286863364208
