36
Energy = -103.85735363 eV
Cu 10.314021850918309 11.946683982739657 8.073999408277334
Cu 7.910968957925783 9.221135148897543 6.069397405310481
Cu 6.40446904640168 10.47569426819845 9.69323532068811
Cu 10.68060679911587 12.563766339830865 10.405595468357308
Cu 10.235025911193834 8.143879686770047 11.753115501961279
Cu 8.726404077185622 10.938663806707172 9.745207029495914
Cu 11.632903366934823 13.855746942945586 12.350303105062347
Cu 9.741689249974756 9.665464465895429 7.521585721140594
Cu 8.088591097363224 8.861600854638823 10.836604509268852
Cu 13.394998236947384 12.745622620426326 13.654340322011494
Cu 11.959703098099277 10.424186945960168 7.103271618459299
Cu 7.659641465747156 8.817016463543716 8.447487710381964
Cu 13.924395218513213 8.089001418134304 12.21326634931713
Cu 11.154189938040378 11.708536414751045 13.674244617826089
Cu 9.649042089377968 14.641602701106931 11.12912955657935
Cu 7.163867218008037 10.721578507688097 12.0163737855094
Cu 7.833420737724023 11.258988132563601 7.5645774448725955
Cu 9.189274403027836 7.365382510253456 7.0816457509380175
Cu 8.424881771401747 12.671968190018049 11.605280512805601
Cu 12.689474330901424 11.846265525421225 11.518764695281497
Cu 11.068428166877208 9.986520957751772 9.77530828433658
Cu 9.758426843956741 7.786145642647314 9.428634170656956
Cu 14.644659357050836 7.725879305196846 9.906810840058345
Cu 14.155868153002213 10.524031297599695 12.997552142344896
Cu 13.845814351998888 9.925959078271648 10.651877134636427
Cu 10.128108898626483 9.453772512280919 13.949268047404733
Cu 12.256241619104971 7.892873973374426 10.326236324984785
Cu 11.544377895308426 8.019831344833262 7.872032668825375
Cu 9.778251717635007 10.566007642301152 11.884873603237002
Cu 9.542243378348788 13.684066858347121 13.502104784708044
Cu 13.531062451304907 9.266030483854875 8.428068477086478
Cu 8.64373389703595 11.460578882562434 13.842450668552624
Cu 11.578069904185021 13.813767850311867 14.848542371084772
Cu 12.713132999010925 11.627474887211221 9.100306837885883
Cu 8.592094512822538 13.3008490059203 9.207718179282605
Cu 12.024133381888957 9.585641744005027 12.403006024329901
