39
Energy = -114.17726689 eV
Cu 12.145648983443502 9.365591296479625 12.37429582475592
Cu 12.709256553526627 10.651074673792035 10.495289091099032
Cu 10.03366975124436 9.965420780040835 13.398472985598593
Cu 10.877798055026844 11.803384907476126 11.684781430328233
Cu 14.114704026611681 8.56501613016425 10.654141247646093
Cu 9.348088290493422 12.259327418616826 13.72808881999473
Cu 10.390430848416258 7.635248588777411 12.607175008075279
Cu 7.609438170273698 10.517033048277327 13.973368866502838
Cu 12.715016733980146 7.064044757580528 12.099570449538827
Cu 11.757672716879734 12.127560073351551 8.899507806821683
Cu 12.965054305869808 10.163757456704033 8.14027996769241
Cu 8.110278319782145 8.680821278504121 12.50847421143113
Cu 10.077773744564206 9.520720021251858 10.865251336662254
Cu 10.836141066962195 13.905223870320741 10.186615826667747
Cu 13.72646448363992 7.82503438537272 8.15054056057241
Cu 6.926253609579886 12.577606535902252 12.876771068621803
Cu 8.459867752607073 11.08568001562478 11.744036807331756
Cu 13.328025346777505 6.251594158525748 9.941740812660207
Cu 8.960452387021343 13.538091496709395 11.70606165931285
Cu 8.619640776147781 6.681375085058452 11.242257289980005
Cu 11.93874559802742 8.33895098015 9.793172346831053
Cu 10.961273214762324 6.1467898736288324 10.66216128759281
Cu 6.263506249651505 10.380154029530047 11.484343513500521
Cu 8.567251003634457 14.51938831171255 9.518660948774851
Cu 9.302879381156117 12.012171041702839 9.62170830538906
Cu 6.9576096669585805 12.762237633473129 10.468542292449989
Cu 9.988535748847692 13.354879562321988 7.726378070942293
Cu 11.58740336764453 6.470079926720748 8.208849560555237
Cu 7.603120461174596 8.681981922522102 10.165542669446872
Cu 11.223599997978766 11.304409161131517 6.674780093882992
Cu 11.739682815147344 8.53082897252911 6.875510015409029
Cu 10.414206522387959 9.916765385170137 8.484384299064068
Cu 9.58889820703124 7.598075390171948 9.20676835218257
Cu 7.180372025266925 10.750358242709707 9.076009802893745
Cu 7.440922800208668 12.998405240156153 8.091590747694422
Cu 8.761404240142378 11.264139935277662 7.159941426857856
Cu 9.666361726216506 7.18644739326482 6.819003395021157
Cu 9.722226659296123 9.470937381277604 5.93151175336657
Cu 8.133277360336663 8.928304529805102 7.7488565710419355
