39
Energy = -112.93660065 eV
Cu 15.680683618609988 17.196217859654123 14.652357617783467
Cu 12.531532025523225 10.166778863828663 12.12954756977208
Cu 13.581685865615658 17.02546659171237 13.458748963188302
Cu 13.855888406902716 12.745146628719697 15.50927008027015
Cu 12.557890924008216 12.386651389329863 13.41331033158461
Cu 11.41406611795763 16.39562611695168 14.754773050620223
Cu 15.468199525433551 15.783777441616081 12.58729052084011
Cu 16.438604290808463 11.184804285063878 14.1619486890313
Cu 16.986351803791898 15.162856330529653 14.383795418222055
Cu 11.169971842725012 10.605441834585939 14.274336229302746
Cu 12.706254704015866 10.681626359086923 16.278313042615572
Cu 14.48304691564259 8.773270691833147 12.462159323865203
Cu 10.616243681791191 11.521761075801008 11.992239876803328
Cu 12.320552860676116 18.488002098013286 12.004608768660125
Cu 11.007484365358442 13.888735245567096 11.96306835315878
Cu 13.843793497101009 10.370910611639477 14.202296693264833
Cu 13.491913785322085 17.04944978712021 15.888942341255913
Cu 12.486968954276735 14.726516347112563 16.12442917194579
Cu 11.384882238374564 12.5754752088173 15.755752302471185
Cu 12.214133280700473 18.698321070859745 14.485202813734517
Cu 10.070743553158993 14.569321472756691 15.657753337456848
Cu 15.780485062222885 8.926810237513576 14.537466051286108
Cu 15.209661308150539 10.848144511695146 16.204172146278623
Cu 9.901524398084364 12.888417901013636 13.869424075546698
Cu 9.67821787684375 15.343653880901549 13.390895499062275
Cu 13.687091497249718 16.491307252547507 11.076062347199754
Cu 17.94518543605091 13.036379702969828 13.88776248654502
Cu 14.588345757778916 15.054582787411858 14.990067016833734
Cu 10.22476265071923 17.861501621137602 13.269343676014318
Cu 16.248737096594752 13.155844255507628 15.700744418386831
Cu 15.295359919814382 13.25303620082316 13.411377454408715
Cu 11.504182621354824 16.23741927735043 12.069721020373363
Cu 13.300137038640846 14.573660044283026 12.572003278558816
Cu 16.708088208256203 9.683865243926487 12.333858045265796
Cu 16.968050392218647 12.08033831219371 11.834990663862289
Cu 17.344220983032915 14.438810015232521 11.999344217511394
Cu 14.72342667424068 11.225983166726845 11.975740583314291
Cu 15.089008128515045 13.721410353234438 11.056171371958369
Cu 12.854120568281953 12.544175800777039 11.042209027591197
