31
Energy = -88.99721867 eV
Cu 9.558708345714786 7.487864938041985 12.782772103351801
Cu 10.782851056127576 7.845043876325212 10.71637614127974
Cu 12.380835059279828 12.381041827843783 11.608801425940019
Cu 10.494018708168284 11.61285702520088 13.206904943013697
Cu 11.029167868428617 15.608249437916674 13.475149305281418
Cu 7.686421604026259 10.5912848645749 10.585637114152407
Cu 11.352013728447739 15.846612481903914 10.994503443471636
Cu 9.743690270228454 9.683677553127072 9.519300775864167
Cu 11.484676397999321 11.34491143500502 8.933882477532588
Cu 13.690996577450637 10.661097904175723 9.793140823597277
Cu 12.071342025715857 9.003092003079797 8.999096639660628
Cu 14.262459434598824 12.853419797650984 13.3419067777355
Cu 10.337891380942255 13.861156036120086 11.978771444862858
Cu 11.681585136581113 10.099776902400741 11.317977024645549
Cu 13.355627629588858 12.839727432364118 8.77600932919779
Cu 11.267108903827278 13.714063946679417 9.710417659796855
Cu 13.045714802476896 14.693709754950829 12.285310847170436
Cu 11.098161471655448 9.225988095387706 13.660986198830159
Cu 14.59432108371833 12.964759402103118 10.89696556941319
Cu 11.942976203621555 13.428541417755346 14.045509329323899
Cu 8.297906760528317 8.136851538993003 10.708593946574972
Cu 9.895694981324942 11.847129038077805 10.68886715551644
Cu 8.294070908863459 12.2511091608493 12.449421761451056
Cu 9.474293357658048 13.732579537697536 14.15621094133129
Cu 13.362198862533653 14.930986742132339 9.9014792184978
Cu 13.385543671655805 8.441460845265139 11.014608528329326
Cu 11.999436187727127 7.188188689978917 12.700079055272077
Cu 13.503695678317996 8.875080055908763 13.432233000856607
Cu 12.735886191274552 11.09075751551526 13.954813138186983
Cu 9.263210349897475 9.813263152126593 12.134816424360496
Cu 14.308744292216641 10.741174803684551 12.102490347343819
