34
Energy = -98.75977595 eV
Cu 8.49595909947666 10.04542578715562 7.525636888364165
Cu 6.627358826265117 8.534147465779284 7.771089080357879
Cu 6.382318149447591 10.79400029644075 8.496850638466789
Cu 10.315548272788908 11.601505434472045 7.0816478040061925
Cu 12.633340418099392 10.574399905401052 6.8016369485809305
Cu 9.516800311734439 10.901340429623094 9.90529720184346
Cu 9.016450906746508 7.610317679448589 7.976857922241822
Cu 12.358899606248023 12.846978644613776 7.448110081320828
Cu 5.847832531165062 9.083592713036262 10.235658863507902
Cu 10.713241525832641 9.161681650767301 7.170678556573927
Cu 7.071158906772044 6.760048085898463 9.279193179219464
Cu 8.1570620687387 8.8984885738947 9.850551743828783
Cu 10.547336355188852 13.114351822146855 9.029659796761747
Cu 8.273584284616527 12.34871444308604 8.410443190591524
Cu 7.212745580885658 11.224712473994991 10.700188048432445
Cu 14.093762066015147 10.621225409158857 9.13969536771991
Cu 11.772235553762885 10.76861103670797 9.115892983681778
Cu 7.083411601707896 7.348951566155765 11.592089144564305
Cu 12.831697915564012 8.625038754851445 8.253644450869118
Cu 7.04247686026771 9.637845556603251 12.458457661541663
Cu 12.947138170675302 12.847549365415999 9.796341384770637
Cu 9.28843721355127 6.721319063679117 10.42741509944586
Cu 8.795343015816375 13.050189496143265 10.804126604844733
Cu 10.731407016860999 8.464429879631517 9.579793300407136
Cu 11.076631360165226 12.432327623693428 11.334577674375463
Cu 11.065793051301666 9.927284873073827 11.564664780801463
Cu 9.104918903040717 11.092601393645847 12.476996180006347
Cu 9.119471415389397 8.475240075543988 12.148468194737562
Cu 13.0671862867771 8.795991890421863 10.620031028074377
Cu 11.314552809513286 7.51369862600628 11.901328230556153
Cu 13.212528486379313 11.115584812736738 11.495117924807694
Cu 11.561595912941131 11.357322559137527 13.451693131442557
Cu 10.51381048549735 9.235296882067935 13.892362424056342
Cu 12.800811630354609 9.179256234600564 13.076001750899621
