37
Energy = -107.70945765 eV
Cu 11.286051663949323 7.728799701834536 7.308519483033748
Cu 9.085714804220128 8.431759770949741 8.100189469056275
Cu 12.542331142704157 9.657351015751148 6.437767244323646
Cu 10.032220875720963 6.147323760976972 8.665552585424777
Cu 10.03195178907126 9.759443991890125 6.167516533268896
Cu 12.445855416134737 6.357360908039033 9.359967351291992
Cu 13.203592397748533 8.60512575748985 8.540770379072521
Cu 7.262307156217852 9.2954046511958 9.342888990481867
Cu 11.486554112476764 11.797909478349268 6.39740065782836
Cu 10.966559060476547 8.098770512533685 9.885248677163787
Cu 13.016499438815401 11.259409529610666 8.331103340172437
Cu 9.092073874449564 12.027067731102996 6.414455556705751
Cu 7.682508065301711 10.057825235086419 6.938875293881172
Cu 10.597017092609613 5.916676974840851 11.012685411648532
Cu 8.531941437581862 7.313267891293713 10.254177450732833
Cu 12.397574293460673 7.518457475451452 11.69510372170397
Cu 11.025140335539572 9.992129795445598 8.349074310719692
Cu 12.779116468571951 9.869635805207656 10.507280227219297
Cu 8.77005894957674 11.282117484160821 8.685153328682986
Cu 10.522304722670233 13.028336760326557 8.236390598325176
Cu 9.794489279452943 7.802582927854711 12.269211534206308
Cu 11.193052066361762 11.652394323909277 10.064446070935789
Cu 9.4821702140041 9.867940163029035 10.614325515245095
Cu 11.346066236266786 9.625762336985387 12.384979972268244
Cu 7.533965863212666 8.956627451499557 11.809295194879374
Cu 12.497774422279914 11.774533974597524 12.187407943827777
Cu 7.446380065870369 11.258505291497471 10.787209727335155
Cu 9.063645275974485 13.1648980413455 10.24310377360802
Cu 11.356852387463675 13.795620061389402 11.080056000801033
Cu 9.964504182012757 11.889195070998941 12.145978031939595
Cu 9.149416198079594 9.904755669854026 13.422533198333031
Cu 11.120463081513675 11.135709900124777 14.25631859289001
Cu 7.006006069841771 10.967906403227243 13.185026859820272
Cu 11.368202960070436 13.430844682476973 13.59416399155299
Cu 7.487099265909403 13.12344980621168 12.22905163865182
Cu 9.467205421344632 14.347614283396204 12.47848625805445
Cu 8.903662682720757 12.35266462755729 14.192511183918645
