34
Energy = -97.76855457 eV
Cu 13.63218093880123 12.150967392960622 9.16928242328338
Cu 8.8073321582069 11.153098577774493 12.822310131087049
Cu 10.64922486946836 9.817962092158929 7.439646343101134
Cu 11.179933260699173 14.452955311000403 11.611210258232182
Cu 13.357643599175654 10.126601787596778 10.962528213104454
Cu 9.816188491186429 12.490914267807938 10.83895191166735
Cu 12.484496563692023 12.360992986263897 11.302698684558049
Cu 13.07213593949945 13.679485356591611 13.22125257368333
Cu 12.356170822408295 6.126954249789309 10.044636849474456
Cu 13.068949357469874 9.85863474553924 8.151120835453925
Cu 11.769856782330045 11.965664922066837 7.367847255116278
Cu 7.411508205663161 12.67026712599848 11.380718308355481
Cu 9.382938771667776 12.38745291395836 14.964757140210565
Cu 7.234038306454463 12.693050093727852 13.837366020259248
Cu 9.977386999547516 6.7992701023438675 10.304781943335348
Cu 13.430709173934531 14.392781559007444 10.667295018159994
Cu 9.281095382194943 8.734151819824506 11.96483139644456
Cu 8.247335979694483 10.575048088826751 10.477288003169551
Cu 7.734097581396095 8.173363040190084 10.06849512926997
Cu 15.132711768783544 10.249333964214276 9.347918556119811
Cu 11.013408320854909 10.371031453132584 11.869718710482996
Cu 13.851561852636948 8.085753578216858 9.714842075090859
Cu 10.939855173560995 12.577928543550598 13.183895737065276
Cu 11.695497435345391 7.864236809254387 8.554279251602267
Cu 9.005590572395668 13.88060510180978 12.726195498430036
Cu 9.9178588979907 9.077816942914389 9.63024148765696
Cu 8.20756130316859 9.720300728094987 8.118635548762299
Cu 11.428508863126718 10.968319760547356 9.551171372160008
Cu 11.493445847346049 13.500561623719694 9.301541440101039
Cu 11.777990033067772 8.218746291826523 11.089446927510275
Cu 10.694818209327023 10.367153521365585 14.28892643821695
Cu 11.964398345915104 12.30838990326083 15.274946294998593
Cu 12.892558286919696 11.055546733214387 13.346628658808871
Cu 9.477574086161754 11.790472373124455 8.447899706095296
