31
Energy = -89.29376819 eV
Cu 9.910668983635265 5.619611310208105 8.03700209058339
Cu 9.268701608786674 6.534653371509697 10.425553430276015
Cu 7.5364560126502225 5.997248524763296 7.473337209358554
Cu 11.355707132703635 6.975247396404389 11.825449664027454
Cu 11.712173007560313 6.225946595988424 9.492116944418548
Cu 9.407518005218085 6.972287117117509 6.016749482801566
Cu 7.222660079282035 8.15968919767859 6.318070952490983
Cu 8.931075809861467 7.7787747385201875 8.256089955130042
Cu 8.118567518945612 8.80977352909188 10.295163248393225
Cu 11.233256160734054 7.901316067822517 7.540723163223901
Cu 11.822192404334954 9.425072822384266 12.052965342357616
Cu 6.448353756089044 7.858037912057679 8.719274073752668
Cu 10.728272727202354 8.380437145213593 9.947211855500317
Cu 9.477620842524773 8.490330955770036 12.274704709695522
Cu 13.074452420608441 8.148924634394444 10.315299370547889
Cu 9.99678542519728 10.75004653694339 13.19019045485782
Cu 9.93975524498879 10.478215032442561 10.803260074663422
Cu 5.466899290832265 9.6420010681254 7.351727246422907
Cu 7.779760488561315 10.551997091954993 11.922655133765131
Cu 7.768479398737451 9.884781766104414 8.031564115219748
Cu 12.23290211902065 10.421762742696734 9.76866862034461
Cu 6.155506240653845 10.186147069469504 9.82487203879356
Cu 10.248852431550842 10.118423293176182 8.340511759070559
Cu 9.414439503821653 9.403714038808934 6.187128326666399
Cu 11.694035322306716 11.915803379531274 11.648903845555562
Cu 7.262617426860019 10.610400341628962 5.792617755403612
Cu 9.311241155578118 12.61730294463315 11.655255947653439
Cu 8.140095888647956 11.70382928398093 9.648914522149182
Cu 6.456568744789928 11.862394459219669 7.814562204003636
Cu 10.556643411971057 12.327661744017183 9.339431399582788
Cu 8.979669747736718 11.843053067137989 7.233722509175901
