38
Energy = -101.27129485 eV
Cu 15.537302091282667 18.160188218706633 17.96681817312355
Cu 13.966158217762043 16.97044996712898 13.035337208351116
Cu 17.99373227517632 18.11676527956096 18.03158742942769
Cu 12.29450855631866 15.349528690930075 16.535609484263205
Cu 11.837296348457995 15.980062054058537 12.377926575968385
Cu 16.827369104759214 15.92445102296677 18.422849472922895
Cu 0.09596802720359512 13.087149104285425 11.834423526437382
Cu 12.038455745248623 13.114154623892786 15.349559355738387
Cu 20.495638024344462 16.63605786606352 10.596927436159756
Cu 13.33020710047533 17.229724988478214 15.362827461247395
Cu 21.519189676210562 15.351445741201555 12.283042128950463
Cu 16.466399534002214 14.376206995833876 16.573239197558713
Cu 15.079562413021133 14.229778776044641 19.006410620065765
Cu 12.263719760668357 18.30803162360187 11.992007323532608
Cu 21.255081572029887 17.67149907455012 12.627032362701877
Cu 13.038967890279405 15.015941528918992 14.206804991008134
Cu 15.322012757717468 15.662624987176661 14.744119291423404
Cu 16.47567424676264 15.35020907021084 20.72894672840543
Cu 0.8978716128668479 13.9654290321422 13.874507634135501
Cu 13.10988417604953 13.316768094050076 17.67995339757914
Cu 15.34422983982193 12.332010605508719 17.477521287890646
Cu 16.778216945460542 19.343497689585092 16.257693477054243
Cu 13.509843062948834 19.226516297206317 13.86597985062536
Cu 20.166625739505076 18.936201765965183 10.940265373267025
Cu 13.429052368954032 11.362279844314298 16.327318227592233
Cu 13.076529767959522 17.551810871651714 17.81550361002468
Cu 14.40903534772321 13.52633959079457 15.593294379211414
Cu 0.6624758743328852 16.342543958957968 14.327976580826645
Cu 17.91158334198571 16.75043505629247 0.3874950972502799
Cu 11.581613328542312 13.641131912468483 12.977433526228731
Cu 14.260880992286538 19.29062527364443 16.229095155048167
Cu 14.613556091059824 15.821596708071828 17.128372874569354
Cu 16.89578366672854 16.867593176311594 16.19446812268787
Cu 18.734404176632854 16.563524794800564 19.773526418239502
Cu 14.62465181463403 16.62882434302303 19.61628661291242
Cu 12.7379141268021 15.353170688585992 18.932353857387238
Cu 16.72581681490365 17.78641443414058 20.147080474539184
Cu 15.560636327936798 18.09707083096962 14.553039069294613
