34
Energy = -97.69149939 eV
Cu 6.810677173285294 13.227085325304966 11.84680272352861
Cu 11.841883543806475 10.293395265041129 7.704909924150534
Cu 9.847561847393285 8.887187726625967 8.12078749478363
Cu 10.326523607970872 8.67738921523668 10.540761102322014
Cu 8.287064794665863 11.97461019361823 13.432829698867387
Cu 11.372227960143253 9.367441905268782 12.679644037801813
Cu 13.40332154337333 8.490204013000687 13.558177550867091
Cu 11.458652180736113 13.399399333991264 10.895127112288062
Cu 13.760522290891634 13.117999330046956 10.123048227473666
Cu 13.732307464893736 9.577919051789042 11.41471927950577
Cu 7.759302866988274 9.560355459478332 13.561411975320873
Cu 6.907363123547282 10.824047925226905 11.679037693379897
Cu 14.728106349993505 10.567346316144409 13.381821368815608
Cu 12.618735907983647 8.740037485926804 9.358169592920571
Cu 10.010176109738392 11.741432742966317 7.119120690883305
Cu 13.758700304409595 10.878203930593887 9.269581068725147
Cu 9.128194176784175 12.904287927675488 11.309206332602002
Cu 8.015558184318634 9.462696947570247 9.925696265463165
Cu 15.26310073239101 11.504141239500461 11.146485558087305
Cu 12.322680849705343 7.522466680581856 11.437744141380357
Cu 13.23138562638183 12.181994234785083 12.328422986022863
Cu 9.305491103688198 10.4099658639691 11.860720338384493
Cu 11.720089017352743 10.898257145947694 10.71000865114772
Cu 9.94246454197192 10.37322201047337 14.359001932957325
Cu 12.458766843427187 10.789315556213431 14.270597177283907
Cu 9.747073975315335 11.029556371516081 9.39218791897725
Cu 11.880609198354316 12.483473883995574 8.65963950598727
Cu 9.643113339517601 13.428967982423387 8.955965898626301
Cu 11.192844981330499 6.870668234838396 9.22150634816335
Cu 10.85058486837566 12.06901883885076 12.891852931032759
Cu 7.829515408235752 14.535675737104127 10.083745349877907
Cu 8.009521203010218 10.520458940417956 7.755391346590443
Cu 7.482666436580243 12.0898453109308 9.64793011523384
Cu 11.87941422019107 7.970525894104753 7.115769080602222
