35
Energy = -99.18613272 eV
Cu 11.928329896913109 14.937979609895434 11.19228150169896
Cu 8.985568508732639 12.335628054851924 10.630648968872672
Cu 10.431048532761116 11.129533581109314 12.286104603197703
Cu 12.323080215460768 14.381895682351661 13.61271367874052
Cu 8.58877931161588 12.16496196359677 13.428966334147695
Cu 8.968049764153985 9.089422776390657 8.114771622486419
Cu 13.377195453974016 12.20314243215628 14.30156330043067
Cu 10.90236448696744 7.756600444378245 6.895864230267792
Cu 13.77752560496764 9.279194217865065 9.192897680493552
Cu 11.01073834458545 12.321673490245491 14.230419396512579
Cu 12.18424983578479 10.792323013621134 10.498640312268918
Cu 10.536087801065822 8.754552897737494 12.774746622306711
Cu 12.522373109080323 12.609101077864405 12.064676815201743
Cu 10.312852531728874 7.157620608939822 10.9064455800706
Cu 7.8259618303422185 14.01636302042707 11.918759098437867
Cu 8.276246641665697 9.843163242802811 12.265698874632688
Cu 10.783880098678924 10.17938513790034 6.620444311806114
Cu 6.359617163303034 13.089005019688248 13.612599501149338
Cu 6.844925142178288 11.728094273928303 11.71550116640787
Cu 12.585209974613447 10.260984441401948 12.964663505015073
Cu 10.248512822049099 13.699160203101695 12.350796425244168
Cu 11.940446985227203 6.761687373530453 12.619435210891533
Cu 15.277484141942985 9.024585020117215 7.3694319095560905
Cu 9.604135557120104 14.711039153855031 10.262777308014686
Cu 9.583245105879405 6.826183516668541 8.653485894519164
Cu 12.430078086685576 11.372721283922875 8.13594080685347
Cu 12.3768296881217 8.491835450000215 11.069665309372498
Cu 8.06851931099119 8.038174649247914 10.242474305980913
Cu 12.989044370363542 9.114804152601938 6.882679696632173
Cu 9.983779914641511 11.307106937758034 8.665446928849418
Cu 9.850954654846634 9.612003790072533 10.507121331344436
Cu 12.093065616251952 6.982512425439327 9.106832933487652
Cu 11.40099076492054 9.210472111142154 8.74558634953278
Cu 7.701219944868637 10.442361470830754 9.783129534078174
Cu 11.318852313681782 12.973810975769517 9.898439024972188
