32
Energy = -92.52621482 eV
Cu 9.870468034143638 9.021539720894216 12.67475165939751
Cu 11.164053018413703 11.164061060000657 8.3322912669293
Cu 11.164055355118334 9.901747453547387 10.555112968987753
Cu 9.90006313989667 7.8553410966175585 10.476222048993389
Cu 7.156909812150499 11.16408227090408 9.956453738467237
Cu 9.09318683553126 12.434301784481738 9.086239350052836
Cu 7.072748620562845 11.164041302500113 12.443605133743558
Cu 9.142397311903997 11.164059237159067 11.327917151721492
Cu 11.164065347172626 13.658933742403496 8.469472690328187
Cu 7.88832347951928 13.240245147038259 11.177536892679392
Cu 7.888275768379776 9.08787730143652 11.177501482956021
Cu 9.900089865793374 14.472790337651158 10.47623836626035
Cu 9.870575033469686 13.306633821623365 12.674771045098938
Cu 9.083543882040129 11.164088935511668 13.877205230121348
Cu 9.09317348401188 9.893834259517059 9.086240893652906
Cu 13.185703227416342 11.16404379494763 11.327943113389493
Cu 14.439765766381514 9.087862649710415 11.177608392216785
Cu 15.171187056187698 11.164015138271921 9.956493654619667
Cu 12.428028607969996 7.855317603363926 10.476189706720524
Cu 14.439816583719276 13.240218390562996 11.177523329233736
Cu 13.234937908152897 12.434271011325524 9.08621787354536
Cu 11.164040788561843 8.669198454191244 8.46943573068524
Cu 13.2349274940118 9.893810509934594 9.086235256686038
Cu 11.164059456556291 12.426351251943405 10.555106678425009
Cu 12.428039736434801 14.472755465055608 10.476252156290746
Cu 11.164044433585133 11.164048109916195 12.678277339331496
Cu 11.16406126524595 12.450892905015946 14.660167419773513
Cu 12.457627996107773 13.306556466026843 12.674805873400695
Cu 15.255351065125856 11.164061299888006 12.443654605592064
Cu 12.45749394826438 9.021432441801636 12.674767320503314
Cu 11.164026573475342 9.877184775323236 14.660146658191422
Cu 13.244543360396374 11.163986133583855 13.87719884415481
