32
Energy = -89.47401659 eV
Cu 15.801663995031419 9.650730210902744 11.903121422342835
Cu 14.674911658200658 11.54930796555702 11.10736185223696
Cu 13.864332502767173 9.406360928301357 10.585465457238147
Cu 14.497205681512625 13.043350939005405 9.246136558635794
Cu 12.70482351781177 7.718323800409194 11.761004984844073
Cu 12.997744173470554 13.260392017059756 11.162090106828181
Cu 12.658390763470127 11.373004530552702 9.437855644137676
Cu 11.05380317352829 6.395272138179917 13.145113509944707
Cu 12.278727050694918 13.83616887935274 8.919831375915578
Cu 12.202275713657393 10.784807608955392 11.860825502049096
Cu 11.550690433766938 9.16982633270398 10.04350642751785
Cu 10.588209842082309 6.961806314140719 10.834950886212894
Cu 11.324708994099115 13.028998269220304 12.865197621752182
Cu 10.765414336620896 12.552539384713146 10.529851754053292
Cu 9.597525310070445 12.935233963839606 14.541041562305429
Cu 10.747668207210486 8.765320001137631 12.627514858333283
Cu 11.576091004904018 14.137783770372202 6.626377126600325
Cu 10.389393440437292 10.912484824821655 13.533554313989152
Cu 10.145516271866597 10.744599402650685 8.748159191787867
Cu 9.524004898614995 10.305958240564829 11.079120248134855
Cu 10.099480202067213 13.191804659467573 8.228196869871862
Cu 9.342339110413223 8.406745382793533 9.365621515056205
Cu 8.439353567544511 12.322617334447715 9.855953936753702
Cu 8.827971756678732 7.211912882873526 12.503456695401786
Cu 9.341154981910469 13.550580494818588 6.015387006016076
Cu 8.361076536372138 9.58047504865353 13.10073308479842
Cu 8.911012449802595 12.414824097092268 12.289259008431035
Cu 8.267243411250082 11.882130290988382 7.434208508850439
Cu 7.683667406437152 10.15435276942974 9.10043711854793
Cu 8.266422304332462 6.3896900925585625 10.25348221531387
Cu 7.493502511403901 8.562551878015446 11.012083432688561
Cu 7.135920716215452 10.91229147066613 11.395346127655921
