31
Energy = -88.1205594 eV
Cu 14.465616728197467 11.093370424180407 10.787904835884092
Cu 10.621797050784261 8.247076103510091 10.116528280125706
Cu 12.321456151222868 11.255076919437847 14.361967425819886
Cu 14.462245467764497 8.630850887395157 11.15719474342166
Cu 13.367926206619755 13.461290277681345 11.066294762192127
Cu 7.9613721493513205 13.563486623992164 8.71794210063291
Cu 11.803797953687816 14.384013424084824 9.320843888585982
Cu 12.387492463526105 11.243623962160557 11.966316034553659
Cu 10.508975382543992 9.59846378494824 13.909889183134073
Cu 10.474930679763801 10.419951672756039 9.02589219256822
Cu 10.214568277138236 10.28101480136635 11.504622969332287
Cu 10.85550460529461 12.916566773706228 11.149126675647437
Cu 9.558071374340983 8.060244414462831 12.263798456082272
Cu 11.249246542530466 7.153927665213313 13.808050760365527
Cu 9.829359079044139 15.010325242694856 7.940112022671597
Cu 10.202201618323375 12.734880720426922 8.53121711984804
Cu 8.217489803240703 11.172300152649425 8.27546483781237
Cu 14.131372098446041 9.948711449750258 13.12595689036284
Cu 13.788768700096643 7.409253708228734 13.200758223541298
Cu 9.50596466926562 14.64710112824647 10.310535546643802
Cu 14.271302803652198 12.438127541987308 13.100361746433354
Cu 12.617375905735068 9.642064725831151 9.971032141620059
Cu 10.178762909599484 11.930434199369216 13.264028213387363
Cu 11.701040683964191 15.204378015066883 11.605559440694163
Cu 12.064584714557492 8.663800488201328 12.149434755194495
Cu 13.910315582215446 14.958039542786814 12.858221736071364
Cu 12.652819524603009 8.88212985212582 14.75667338350891
Cu 8.738921590697595 11.98150391438753 10.49911007502349
Cu 12.062932797265859 13.472799022415774 13.306861307805343
Cu 8.450698235379003 9.461164151190495 10.07646111448574
Cu 12.407745957823353 11.950013551435449 9.39553016421769
