35
Energy = -101.50401236 eV
Cu 7.140792844951629 11.179507415773763 10.38018749812693
Cu 7.631483865643133 8.954254716823723 11.33246341531821
Cu 12.863683563504809 11.68855415296811 8.311193068933607
Cu 11.83953483521081 9.222295609050445 13.917464561773384
Cu 8.325264075537167 10.24123388014815 6.563120467180243
Cu 9.79067259877407 8.318737291085126 10.132623251539238
Cu 9.286047174462373 13.080094548279906 12.518153687717383
Cu 10.67863047200699 6.060244204635842 10.256473290758644
Cu 7.946750838264875 10.93459218450588 12.833919024612978
Cu 10.847300197694187 14.294304677972473 10.973345574629063
Cu 13.28802719472326 11.322227446444149 12.540522830848184
Cu 10.768522602018239 11.086305488995574 7.00397913842659
Cu 11.1021028233902 10.301056762535314 9.293026574090083
Cu 10.669699139318531 12.930135052026573 8.764205024020178
Cu 13.504953102841359 10.005893799343392 10.010418762770934
Cu 8.829870689373843 11.379074248065388 8.555696407986765
Cu 8.856467033778937 6.8559055556165855 11.8000040429943
Cu 11.67606666206989 9.675668793634005 11.596419412251905
Cu 9.510369419417842 8.948332551731413 12.888973210312136
Cu 14.291020522126377 12.222333603115043 10.31834568069259
Cu 10.475986134080388 11.130171299846342 13.30234547070773
Cu 9.480614009887452 10.826955530520564 10.974889591607095
Cu 13.343036906594524 13.865139361198041 11.776064116727394
Cu 11.264552967471223 7.388739424271433 12.210641773679138
Cu 12.29616867900144 7.906954458989254 9.969596089642922
Cu 12.48374361872572 9.16330633718188 7.7604138971664955
Cu 6.958451720104254 13.002545705098637 11.989908714157693
Cu 7.804782834247136 9.259754292507672 8.90698717572082
Cu 11.23084249650388 6.976355495222624 8.069872737748687
Cu 12.3433451873762 11.499410777594626 14.764832794783702
Cu 9.905980841048876 8.88553442517669 7.668944303716007
Cu 11.595687062289729 13.25020611044189 13.220915696883077
Cu 11.787491184718034 12.100504001937008 10.854663986958847
Cu 8.703738863842842 13.181298504241193 10.19679396753423
Cu 12.776068108475494 13.921188468612616 9.407646203245367
