32
Energy = -90.68369607 eV
Cu 11.471009755549755 11.74178247111285 14.609309186573652
Cu 13.814145862503047 9.009281355502747 9.258283268053303
Cu 10.487096694115039 10.756118292206866 6.099569296399501
Cu 12.22506390990249 10.734896936891992 10.007718828853584
Cu 8.318713668601971 10.745277737783681 7.1287878538548926
Cu 10.992830798073935 5.973251136830781 9.246215589276867
Cu 7.115841781784794 6.843564775403093 10.037599674431847
Cu 9.661803366727074 11.414622382979365 13.10220829260726
Cu 6.790156381314815 11.055065643668595 9.099121930454558
Cu 10.919240598919346 7.062629978401684 11.39685807944417
Cu 9.488054875092764 10.236162917648969 9.339880166018476
Cu 10.37663551902316 12.048552211681203 10.7818840699813
Cu 12.303776290608333 10.163065244312145 7.603431574573614
Cu 8.079827470847478 11.534836279752186 11.189109703580357
Cu 9.93208221595641 8.834241901075767 7.426969192507127
Cu 8.702263810810095 12.611686929702861 9.020648766359525
Cu 12.630426881958376 8.83879847453035 11.476860289745083
Cu 8.55072867527371 7.543228975308507 12.046159903457147
Cu 13.094769967278244 6.8140669630837 10.190990585293898
Cu 9.077023555575161 5.540177097324672 10.726876070508226
Cu 11.020927382952456 12.083499358397997 8.384721667304769
Cu 7.089031299126482 12.76658741729015 7.2527654142538305
Cu 9.261784325983978 7.707452140875467 9.59880230208084
Cu 9.511905159230135 12.91882334106444 6.668369249558127
Cu 7.49389732969541 8.778717285538296 8.238222697083271
Cu 12.159554160397374 12.38715609019018 6.335214731070047
Cu 10.112156240932798 9.47291016052292 11.631703654363719
Cu 7.4435347012923385 9.179673171178129 10.605455219706258
Cu 5.865379191921398 10.694362579716136 11.494672030047122
Cu 11.95849828338469 10.9798873714664 12.437389260902638
Cu 11.509214964636673 8.433231726688843 9.257913865133744
Cu 7.814198850867251 9.781466405269619 12.877601551930779
