38
Energy = -111.66992921 eV
Cu 8.121918248100156 8.262684316062849 4.26985039926366
Cu 7.273852668166798 10.742770771108116 4.478851579324983
Cu 5.666423761123466 8.693158743043439 4.740870337074323
Cu 9.583514862558852 10.093134195400843 5.558968834761235
Cu 9.111883280292691 5.330092914068238 5.658956294028958
Cu 6.9467003909933585 6.73844935677175 5.9884121360102816
Cu 7.349669889155114 9.270581954033123 6.243060592980385
Cu 5.416167198903675 10.664531792649509 6.392588724644613
Cu 9.404459003674203 7.701868398578011 6.3306721240551065
Cu 7.981124015315207 11.607999193969942 6.820463172342994
Cu 7.160092115863073 4.2621135052057255 6.874089448144511
Cu 5.208652515550546 8.27960252995082 7.230544524815183
Cu 11.321507408687385 8.891684769757319 7.520275193813545
Cu 10.93090283850145 6.02673761241687 7.510704246223909
Cu 10.737061995998515 11.34056424134317 8.09308719019966
Cu 8.498410175813396 5.850706599832556 7.874147062266697
Cu 9.577268523796064 3.807589025153718 7.791484219723642
Cu 9.050529271709475 9.724876560134312 7.8883078682204895
Cu 7.401626256805773 7.9055684522325125 8.14495621050479
Cu 10.537412354999145 9.573657677963809 10.054545175871326
Cu 4.38479517466073 9.986746354750538 8.760214160378245
Cu 5.965576432140951 5.998922827308848 8.311060372563883
Cu 7.531549985689303 4.286553698090824 9.435847300016844
Cu 6.667560311512597 10.330834906550095 8.489976995972706
Cu 10.867159985475633 11.786468231809495 10.567306160956266
Cu 11.975600809398696 7.6098128666294835 9.622615901414354
Cu 7.83115049813364 6.559267949680725 10.2751071648524
Cu 8.621164959019476 11.44408353096024 9.581694902561575
Cu 12.627330436045423 10.165513818161006 9.23792508702328
Cu 8.140044967795493 9.046712034853883 10.09711709047828
Cu 9.73612645909752 7.591770084487479 8.91488242101168
Cu 5.675163440651323 8.138960872551607 9.888555717062705
Cu 10.001482113240082 5.366283067750542 9.807951965056024
Cu 8.969431120001682 10.342109367982747 11.860845796438179
Cu 5.707119706542623 5.70836654514012 10.697294868151339
Cu 6.427876546073713 10.410933521167413 10.93478125272286
Cu 7.208155728097856 8.199016902272753 12.051048683208318
Cu 9.752906404410522 7.628642664169578 11.370310679854402
