34
Energy = -97.8858867 eV
Cu 11.053099744607795 8.759557490090463 7.046387904636985
Cu 10.470727233420659 10.212555810939826 13.58710309330442
Cu 11.079181043492984 12.343766299921697 9.123430533759189
Cu 12.494284809655044 10.796408760703395 7.598928253026181
Cu 7.8620172778617965 7.243138110865185 9.131338963444767
Cu 13.465586113792071 12.75929939271902 8.901149912610778
Cu 9.250924489447971 6.764511163017015 11.13423830367078
Cu 12.920095910451863 10.696647387189799 10.043470733357058
Cu 13.547666661459386 8.78899604045254 11.31137810512531
Cu 9.436761468281226 11.9212516417663 14.926856404061938
Cu 10.77712618721517 9.893143531801684 9.124192329381925
Cu 9.876702971799315 13.525011794678782 10.942082312466903
Cu 6.982484093050906 8.161545588287932 11.35444353507055
Cu 8.951576148043278 8.576994059543727 12.70473350681433
Cu 8.886550573204161 9.06622712360322 10.322451102521732
Cu 8.657118612850452 11.235965498926134 9.249411781415498
Cu 11.783045309931726 13.094621276348882 7.017379332979532
Cu 14.452576789578346 12.07321363763457 11.218980703327546
Cu 9.355354957912704 5.344101149179199 9.11836056342849
Cu 8.503009253343492 12.473577468917455 12.721182970283673
Cu 10.935065422120093 12.598991810927194 13.143325337071767
Cu 11.131396660585699 8.718187201281452 11.441242686933567
Cu 7.911918829951304 10.38800661983265 13.847416726204045
Cu 12.750717066171681 8.540607275625096 8.92397524683666
Cu 7.604241206181885 12.962171792355438 10.49806908982927
Cu 10.288780782757502 11.103510555616612 11.241843560950665
Cu 8.752993667770987 9.178630785039367 7.814593882052159
Cu 10.61742711315625 7.400906840531973 9.20304510294619
Cu 12.552772365352734 10.791013503657647 12.449192069263749
Cu 10.080852421703057 11.245318668334074 7.132457505499285
Cu 12.259883515713245 12.926719321160956 11.153292358165459
Cu 7.4546162714007815 10.634470131149847 11.467680177587289
Cu 9.354130915892462 6.908596262695145 7.206239564562941
Cu 9.092758517507399 13.465780410872263 8.493570753076098
