35
Energy = -100.49636447 eV
Cu 9.474320849587818 10.471499766369435 9.56898382297031
Cu 9.558033253068865 11.167292264063603 14.398108725156233
Cu 10.982008445918886 7.330298552606552 12.918642603283784
Cu 11.746057130162312 9.188250039424194 7.127146444840162
Cu 11.899116456614516 7.04122159836593 10.70811543465879
Cu 9.441036418664735 10.923620783224196 12.01769832863431
Cu 9.445489971432568 12.616924010407956 8.195770201218194
Cu 9.392451632225104 13.050788893358654 10.775260184532936
Cu 7.956317963973035 12.772812646342537 12.797059369835678
Cu 14.646341123316487 10.108815092231119 10.038661539819794
Cu 7.4216831157177 11.35401530359993 10.781954058565121
Cu 12.632152674447031 9.077781928783892 12.082961919798745
Cu 12.331355975118857 13.297027015371482 11.647929897569986
Cu 11.752177029259832 11.398913969767555 13.180553186179504
Cu 9.36036104689133 14.874375365584394 9.166660005075082
Cu 9.179102216455297 8.879274171198226 13.328703507818876
Cu 10.36190592018553 8.838912592642522 11.12444858904309
Cu 11.403689127048217 13.515658595789978 9.398701306550787
Cu 9.578186966686934 10.344567447323385 7.172578588581519
Cu 7.361732835842117 10.468334327467177 13.149026638279778
Cu 11.525488829812549 11.172658713929653 10.761203486656242
Cu 12.31846644483608 9.15533802590405 9.481987212988967
Cu 10.293026500046123 13.28428544239978 13.05841048728623
Cu 13.599817876908489 10.22306972925084 14.12846655408992
Cu 13.84094216055299 11.397098872449753 11.929229362009
Cu 11.790515660607293 11.305980057191626 15.548578155993358
Cu 15.074269802339744 9.3551685674829 12.30964528198883
Cu 7.437505609704036 13.347999403669181 9.37406759880537
Cu 10.67186265002768 15.043715242165518 11.263220339782393
Cu 13.755521572220614 10.386942534384954 7.825108593055859
Cu 11.331962474565358 9.263273871012846 14.349759753566882
Cu 14.166287074102996 7.823201910577382 10.588384997961201
Cu 11.551285346641171 11.316286192009077 8.245135184948673
Cu 13.471554838550816 12.15731244851851 9.600416040236361
Cu 7.5091981273001736 11.126194599784894 8.293459337678215
