32
Energy = -91.8234807 eV
Cu 12.230600102968102 14.031762413282356 13.598081703681512
Cu 11.75376466171986 11.69430857745386 13.714345353600658
Cu 9.77499284214812 13.148512507908453 13.951582480362411
Cu 14.064923769992255 12.403558527880305 13.348760838687676
Cu 9.6665291996171 10.866224645373697 14.732197008982961
Cu 13.367496979252563 10.055288701225038 12.902292497189478
Cu 10.788982434565916 13.464857190475012 11.762288742678772
Cu 11.166478343299959 9.269775363566596 13.718678867189505
Cu 9.854840925062897 11.098349873433364 12.197180885287189
Cu 14.607512108398675 11.325541046601339 11.237743878481467
Cu 12.630056765411963 7.836543232850912 12.325383575788887
Cu 8.345500066121057 13.519095219371664 12.044151985870693
Cu 14.68107492591167 8.82753264622734 11.281340379077754
Cu 7.7503795477919635 11.583491730150424 13.398902503275934
Cu 13.26026416804251 13.484574275261 11.352145864625573
Cu 8.663444028166976 9.176305567125086 13.242543919051219
Cu 6.432682226629902 9.806318232755116 12.379520515674214
Cu 7.151939152999918 11.683816422670086 10.964544387183606
Cu 9.326672901195936 12.449151498365868 10.094585246319491
Cu 12.042032475818747 11.371765089512959 11.002739945260128
Cu 11.602734068571754 13.258857538226623 9.44551708011199
Cu 14.528945778781779 10.025120312164832 9.166948064288524
Cu 13.90483501415958 12.476015352567604 9.187134073793148
Cu 12.51575784317732 9.062037063712214 10.220925981954773
Cu 10.436275995183113 8.62618926620786 11.546682607047078
Cu 8.270278181623786 9.544339311543347 10.851067456888115
Cu 8.102358739344965 10.86862231848721 8.781597036414503
Cu 14.268679646117812 11.260463362926428 7.086824112130085
Cu 10.297609937190574 10.139483976290718 9.631112959669716
Cu 10.203796899327473 11.91623124984982 7.88416275897998
Cu 12.420375439948941 12.87763765629004 7.204998244041627
Cu 12.312160931536008 10.752770238915982 8.410624828403845
