35
Energy = -101.10570868 eV
Cu 10.414548819015561 7.477147934596286 8.225846557689275
Cu 7.762845903119215 9.221385232909356 10.854468595661896
Cu 13.25528975464698 7.329842619171453 12.216286462921769
Cu 9.808297351650442 10.620331539261137 11.881152630743259
Cu 12.36738820605832 9.478629321062083 6.370097945496627
Cu 12.807438897456171 9.438339844774184 11.123078674554797
Cu 10.154651739207228 9.112116499740509 10.018054991844311
Cu 12.635709837514204 7.248627299730355 7.385552177161416
Cu 6.449115777217363 11.346984094062675 10.495989332799324
Cu 10.81336638659045 10.164595199868732 14.059238844593368
Cu 12.132174566147809 11.461981606706724 12.319190785550026
Cu 8.504113862783957 11.294326551156422 7.007627148890045
Cu 10.691942566285011 7.835743164640087 5.867458138023503
Cu 10.268767820063895 12.921171573054357 10.960862355288315
Cu 12.53669078289674 9.193859707838063 8.76381952414031
Cu 8.651031917568353 8.802690415129328 6.908712356523042
Cu 8.154712290256667 13.550547941106926 9.910902633777667
Cu 10.137286719303054 10.222139479031076 5.502406885492237
Cu 9.315460802878027 7.232575085334777 11.163111183821389
Cu 11.794795870871864 7.25738937454509 10.242202876542652
Cu 8.064704583498637 12.38519473278358 12.060754986868046
Cu 10.465423802024397 10.248638411707581 7.855514940945677
Cu 8.527423142879258 11.002818301087219 14.129744387216203
Cu 6.809417162100346 12.322110567084433 8.343040935941529
Cu 11.074578586589185 8.268902190512025 12.50309570387304
Cu 13.055632769687257 9.45812790756216 13.488235620498296
Cu 8.776830939363432 11.225243207422727 9.624826998959628
Cu 10.259402504507962 12.683205224746311 8.408023424795696
Cu 7.05361296876441 9.85458623012 8.510883609289477
Cu 11.582606539733248 11.194716607779448 9.927494992648354
Cu 8.18679953898477 7.7226109821750635 9.021533640629526
Cu 12.455770957311689 11.538028461921645 7.711985191449287
Cu 6.740322956584853 10.35127836969062 12.69156378332271
Cu 10.223038498544732 12.555498346982802 13.375193964070188
Cu 8.746695607730024 8.771090474481284 13.106903062840404
