35
Energy = -100.23975097 eV
Cu 17.548696407056216 13.342303349023489 7.025704918148565
Cu 14.83457088860424 11.135068703354612 11.752817678021808
Cu 8.56738317384582 12.801602590248832 8.914356680899635
Cu 12.436160105400198 14.003919428541414 10.041794347380398
Cu 11.344915738498791 12.778922483393817 13.940114388038987
Cu 11.454500434494177 9.15179080176488 10.40319041390501
Cu 10.966607145227984 12.68666493789268 8.65388727094519
Cu 11.573759007662975 14.795581312524927 12.18595799801527
Cu 10.748676354063441 15.238437136742787 14.374238200163783
Cu 13.149116495957234 14.187103071550363 14.432562574924518
Cu 11.330707134009787 13.859790563003704 16.228298715617424
Cu 10.840344339717882 12.398663932062238 11.550349783210905
Cu 9.836455626451144 10.797499711154549 9.600843717997298
Cu 8.477027318056969 12.106315681494324 11.242861240563188
Cu 13.354784017785905 12.473864446889541 8.199506507239878
Cu 13.741079495247448 9.097229473047243 11.029461736584345
Cu 14.12837377841999 11.788467185764118 14.038115986900477
Cu 14.273044777619234 9.39133693260642 13.375091492804136
Cu 12.697382403749113 11.452199059010795 10.325927188395305
Cu 10.326254132852174 9.5908036975513 14.181143718079861
Cu 14.714938059958602 13.022007297995378 10.18583258539299
Cu 9.096071089668065 11.61306251654768 13.599333966437303
Cu 13.295782016734828 13.097434429222764 12.197523719564039
Cu 11.965703344801971 10.369847577972225 8.341601216673
Cu 9.82209158469206 10.046303228095297 11.909142560489231
Cu 14.68046428320573 10.608387655654163 9.296504575986509
Cu 9.919508211651632 14.267207908731399 10.322088088622577
Cu 9.28743900089576 13.977351191816103 12.758971561456503
Cu 15.778428753999181 12.435878959973518 8.109195512536612
Cu 12.540299938062738 9.997241739331557 14.996089665892214
Cu 9.192173108249717 13.45487263804698 15.150170368232802
Cu 12.25981406859973 10.741669704877715 12.65151269604958
Cu 11.985235154765272 8.404620108762769 12.714025642297555
Cu 10.545988213330906 11.408519405788544 15.769678803927823
Cu 12.919837626882062 12.149743525193974 16.03824997907321
