39
Energy = -112.81193454 eV
Cu 18.12987562473934 19.78650702882962 16.045125266650267
Cu 16.389992654932655 17.397770945730986 13.278353934671062
Cu 16.900062367598167 20.613672597236096 18.09480754884285
Cu 19.60854504905373 17.927608215104172 16.66067953950099
Cu 17.103784951342195 16.673276560642936 16.502372536596898
Cu 16.005682557736158 18.818347654077975 19.846273116377844
Cu 15.99570697951771 15.286150697222173 12.157242885250167
Cu 15.865219371157876 12.914450931752162 15.764332145886197
Cu 14.152715941487436 16.45001973915724 13.390249362266886
Cu 19.395448177824417 20.158778391797362 18.063146085092246
Cu 14.394426739349747 14.999204754153599 19.19560386971345
Cu 15.92452414058453 13.112209409371582 18.407574849342303
Cu 14.639810372813638 18.778131024502226 14.298586508899243
Cu 13.976405066590605 12.278257731651365 14.294396938422459
Cu 16.040661031527918 13.12429474725791 13.313142647059966
Cu 19.125528278280065 15.684248197075751 15.56415360072505
Cu 13.935069014823542 14.092911214858166 12.548775226644889
Cu 18.40320954512698 21.888528277851897 19.435305912590422
Cu 16.293585847350283 15.241780170578602 14.649419914359104
Cu 18.4154255285612 17.81989478896333 14.542082140249066
Cu 15.929073295022764 14.03885231482157 20.76408379196205
Cu 16.084440588725077 21.147432563607826 15.805406944317758
Cu 17.926115885133996 17.11667571468694 20.27256726821206
Cu 17.682026081231335 18.29326548432532 18.16951245035409
Cu 14.662621948909226 16.87093716034463 15.740374693740513
Cu 15.270281916188956 17.157597668209924 18.19348998234393
Cu 17.661291601861482 14.197234100035992 16.91012039786805
Cu 15.270039332995104 14.94343781514096 16.97429832518157
Cu 15.832448240397133 18.896569349874525 16.510665558691702
Cu 16.847249593318235 19.663568857295154 14.048479362604644
Cu 13.919969724897888 14.567318080699456 14.986266803238532
Cu 19.92635243723055 18.034940005414107 19.167225087156915
Cu 18.29485163498754 19.611900186684206 20.20019247335307
Cu 15.568147246210154 16.53284016453222 20.636941526204648
Cu 18.209171829025518 15.715208967228124 13.227331205779604
Cu 12.008656705883155 13.6338838287832 13.87610694111442
Cu 16.87665265203358 15.30595157585291 18.9740033626848
Cu 18.105403271282164 13.612906100655753 14.58657363283481
Cu 18.997327683709397 16.037648348210155 18.086252735465393
