42
Energy = -123.34850392 eV
Cu 10.421608862159356 13.461007702526494 6.999043553437397
Cu 12.942670390372324 7.475181542928772 11.888392905709132
Cu 10.539904382648075 9.186119884738405 11.436955092845679
Cu 14.825248167744071 8.653847877726422 10.647036001095087
Cu 11.369967297058816 10.22338359822682 9.4019776339788
Cu 7.142345595538322 11.733626802528551 8.837209933627943
Cu 7.031372265470646 10.931071150515212 6.548563500273974
Cu 12.714629235918917 12.163267505703665 10.376189072490007
Cu 10.699814384428233 13.552239889219017 11.726577485787837
Cu 6.638369575727593 8.235578038719902 10.599649419823642
Cu 13.432956063686131 11.160620302094152 13.982387306434491
Cu 8.744741043486579 13.520026405954546 9.449942056359513
Cu 12.222476754095819 11.936594509260553 7.866402350702388
Cu 9.805957715337545 11.584877329126376 10.692158183896796
Cu 9.697912306555747 9.371791055955189 13.718243483329477
Cu 8.70811778443031 9.30975705564181 7.232232439208844
Cu 8.023016545028527 13.087868024790925 7.030113311826538
Cu 11.461891478301213 11.284263637019055 12.552496081529164
Cu 9.641956710692142 11.543945322358512 8.228262568807065
Cu 12.13836632369669 9.033034676084602 13.679183595446643
Cu 7.6330735311591855 12.311757339269919 11.297633270716114
Cu 10.613229868634363 7.2370973627992745 12.872498069703793
Cu 12.69440933001497 8.119089339153716 9.420271288339402
Cu 13.098134933808973 13.18881402037215 12.496809832359054
Cu 11.082787515389526 6.6343512435167975 10.542852713680821
Cu 14.50969053734646 9.13037349483461 13.07004047618075
Cu 7.992836389451664 7.451247351974989 8.752007735400536
Cu 8.86122940546799 7.510652525346233 11.112234482627072
Cu 8.562539767260953 9.670932058188606 9.677403561119107
Cu 13.784145684567862 10.36450665970017 9.080212548493797
Cu 8.026826636425872 9.888532525684099 12.054987929949965
Cu 11.108240210020128 13.526137261341802 9.324112022844771
Cu 9.229438378675095 11.854768852925314 13.197707716026224
Cu 6.130732030661427 10.542589037107792 10.62890558364479
Cu 12.901440170133332 9.821747562716082 11.333587808908355
Cu 11.261331654087819 13.156660878551023 14.094233107193501
Cu 10.318644085204996 8.08183831018495 8.74685968856333
Cu 11.108431097549825 10.889760479287753 14.97027823981523
Cu 11.128881258625457 9.78495251643635 7.077966051302569
Cu 14.635412220792867 11.332153327672792 11.817155674804397
Cu 6.414949362689097 9.389657851920521 8.349949788335978
Cu 9.408751955611768 11.315229595757874 5.88311540022452
