41
Energy = -120.88051661 eV
Cu 13.674034363008643 9.06250987671641 13.001419384197153
Cu 13.567455689360143 11.159167138516484 11.389360044956089
Cu 13.405503252591767 7.746024006542167 8.388568975690273
Cu 13.36941438461934 8.68018637199781 10.63388900503659
Cu 12.666341968274812 11.154321638792185 13.764941816344592
Cu 11.59945192689783 9.043118048104475 14.30801022648913
Cu 11.748708355609606 7.480619003033242 12.34387704278325
Cu 13.574574092117395 10.580984353786352 8.914833395997126
Cu 11.654090301509296 6.912553735052482 9.97577571512052
Cu 11.59200267959271 9.843048615890112 11.885601562208482
Cu 12.844038436354603 13.367833138519968 10.319242973564725
Cu 12.625373605798266 9.277379376273819 6.697282535859673
Cu 11.474639517774891 12.4883673633716 12.187838400972142
Cu 11.462895587953986 11.502215082583296 9.925955657931203
Cu 10.99823132479548 7.3587021143933375 7.562244551459583
Cu 9.399864051125226 6.310308436439406 9.232108923906633
Cu 11.616676846844953 9.255131120673681 8.930989593346832
Cu 10.139375668923128 11.005075184652656 13.638863323021821
Cu 9.827425173096241 8.501981214703445 10.366196282157432
Cu 9.430118233338622 6.565439171085964 11.710506666198572
Cu 9.61995269207414 8.698365585781522 12.908223103675294
Cu 10.500817775141073 14.249133770397881 10.835789217968559
Cu 9.447075311419677 10.71896246380132 11.212893499523021
Cu 7.529916521616952 7.617538596006275 10.300086167851953
Cu 11.604093603727584 11.37667037055929 7.466700936183197
Cu 8.977213139230093 12.804413708339915 12.291332381423706
Cu 7.413256612135064 7.841238474709125 12.709391098479355
Cu 9.50482160794492 10.476235009254003 8.751200830135586
Cu 7.220948719515462 9.848730618135008 9.314595157205343
Cu 8.642644297518359 8.261843677144526 8.058316286461457
Cu 11.127906723400963 13.544353322122326 8.48358438543347
Cu 10.207725101911674 9.527265262234394 6.602559460070937
Cu 7.7921016232808356 10.368811969937383 12.919233617694676
Cu 9.196010847230626 12.67772789132404 9.661425318739672
Cu 7.179461052299875 11.75425848777107 10.895375133365548
Cu 7.87378468530548 14.285702849221343 10.682656261460723
Cu 6.153257874443218 9.437738145690092 11.396590437785301
Cu 9.34897640501433 12.386348246337416 7.120681752896086
Cu 7.196747962398762 12.2034867064904 8.439967822791987
Cu 7.862713615988439 10.359673031337946 6.930074662014214
Cu 7.143122769009293 12.47930122246974 6.0545807917908645
