43
Energy = -127.49371747 eV
Cu 13.454577922604985 8.684471426330052 11.881444911781845
Cu 12.935689576290352 6.39188749572368 11.483455670666135
Cu 13.187756012815147 7.925077875608672 9.495141888910013
Cu 13.829638054213515 10.32611287905712 9.97754692621913
Cu 12.858504124106034 9.384106973689857 7.411074340909299
Cu 11.181304480731454 8.495644822063595 13.214312818651969
Cu 10.736286475849772 10.872521045430021 13.959759876603302
Cu 11.500840179984047 5.873278902449367 9.607063452442054
Cu 12.064062489575566 10.614052160079387 11.796518797356986
Cu 11.189519016469792 8.068109893989366 10.865248887877108
Cu 10.563131011679554 6.017582721455149 11.985966421567632
Cu 8.824261051631206 9.344367288950254 13.986590563160675
Cu 11.048037540879104 7.82782654958127 8.24510748081846
Cu 13.23353611922744 11.753777887829457 8.036458186373466
Cu 11.566922320275397 10.024887339217454 9.289849053841259
Cu 12.333812240913224 12.432656699465351 10.206045236114274
Cu 10.51390525717837 12.586392126246785 12.206584639661292
Cu 9.723924767509931 10.08377416418083 11.882845773936706
Cu 8.90714575311686 7.7995056041646755 12.040853519329008
Cu 8.357087527185733 11.668570256060644 13.145237948598535
Cu 9.245808732613163 9.060187591583798 9.739911894569826
Cu 9.15742259049201 6.590156619181095 9.922272121714604
Cu 10.382076207362326 14.035655210457795 10.163970799743275
Cu 10.987717891740573 12.792389076905563 8.104433878452177
Cu 10.614756407649498 9.122176375400434 6.201892302069486
Cu 11.55967805558018 11.287989418323834 6.354674749297296
Cu 7.243275588144236 9.67568013365153 12.076339833121185
Cu 7.700210828971539 10.956218869988302 9.889426368553249
Cu 8.246581022019239 13.116987607652295 11.100446982563525
Cu 9.729805319140269 5.7118135591255035 7.79385383349085
Cu 10.012072739422731 11.649660134758706 10.068496939816669
Cu 9.47061905702024 10.55047355293855 7.895377265723424
Cu 6.26218935157322 11.872294884213256 11.757715270265214
Cu 8.84669335473764 7.920420014308068 7.306268344979931
Cu 7.257967122020144 6.521104618897723 8.353438386038308
Cu 7.085085106268262 7.988115298666699 10.313642048237723
Cu 9.227830289853888 12.262332730146294 6.288520350075966
Cu 7.047533120094426 9.177528413108666 8.204920681869803
Cu 8.567504069082519 13.048671904639628 8.612428513267183
Cu 8.186266248131878 9.915839962558229 5.995593878422956
Cu 5.581398195767719 9.999905180167707 10.181665995851715
Cu 6.252076521711306 12.832671704596219 9.461080943631213
Cu 7.054978483981331 11.54254279195319 7.487039370431955
