47
Energy = -139.51818064 eV
Cu 6.185590114060254 12.290719915616684 9.298873129820823
Cu 8.426787418395257 12.39185246183793 8.223478006520176
Cu 7.640062488271845 13.924849635732954 10.136642971190769
Cu 7.281293208967525 10.16886318266175 8.673083456324292
Cu 6.63048100445295 12.407435455642837 11.9773610117021
Cu 5.666017521797049 10.41997863049084 10.6170516036363
Cu 10.025677365623261 13.65380823781735 9.83958414170426
Cu 11.979158698391172 15.112042999533385 9.46962492248903
Cu 8.279250266871669 11.539454148634022 10.61351951771439
Cu 9.368401910812343 10.15592614307655 7.302025622428517
Cu 11.818676676310215 12.811640564257605 8.334020124339157
Cu 11.265250124065178 14.770699812866335 11.738282117861226
Cu 8.914995837326313 13.773743642663618 12.151279297605274
Cu 6.577661623809412 8.245096891130377 10.12142698495752
Cu 8.745235593760036 11.46439851068443 13.034134117065525
Cu 13.921588265002327 14.134323377157182 8.543284772191367
Cu 10.200425744091277 11.198507893318855 9.290505435360357
Cu 11.899434911643217 10.41502548629981 7.567261224841112
Cu 13.947513874735128 14.994519761744863 11.239665375090235
Cu 12.910282132189703 13.072076775453732 10.60013249781427
Cu 10.733548404864843 8.145790167493185 7.083356661599737
Cu 7.373149932488253 9.663114774385564 12.106028102240842
Cu 8.37566892939814 7.974118577983653 8.014923585812669
Cu 14.031978437667851 11.650597691526025 8.474419061090211
Cu 11.198075985002488 8.838113769787157 9.30216669085389
Cu 10.831514312342614 12.363074548402809 11.757940720325823
Cu 8.85917775246961 8.983416642839236 10.16970420717249
Cu 12.539477854197674 13.285207604416673 13.211777872534578
Cu 12.374941089774017 10.839683364141155 10.070540242416023
Cu 15.385921164212998 13.08949165118988 10.096963997723565
Cu 8.191704739481242 7.345393881409733 12.097248760305737
Cu 10.498898430535698 10.054552083586676 11.580904602002159
Cu 9.315507009835482 9.083980036077962 13.542665438161556
Cu 8.01155588713745 6.358183852340652 9.863078156117012
Cu 14.676721134128757 12.698578037463907 12.328015778693905
Cu 10.9793787659355 11.05747385985388 13.906099292647289
Cu 12.926018401348237 10.958254435998834 12.507543798531417
Cu 14.696690831705848 10.755879952665124 10.724803630723109
Cu 10.221809406871715 6.6073928265644595 9.044730161129676
Cu 13.642342455256422 9.137398291581556 8.898537648225833
Cu 10.615499394520738 7.637884186856554 11.333333111162032
Cu 11.747466190904534 8.74787493581223 13.404695373670565
Cu 10.1698697319462 6.725366444382509 13.511213980681385
Cu 9.671471369406673 5.456254772275658 11.386309638649418
Cu 13.028887005464494 8.793301558628121 11.309352912119008
Cu 12.563533594841193 6.919887782385212 9.84861678160696
Cu 12.438580061150732 6.59776459671797 12.385493830904192
