47
Energy = -140.51251702 eV
Cu 9.282659491011566 9.251286652097617 5.0403917605772355
Cu 6.804201034259072 9.742524122022942 5.229233691140111
Cu 9.915657575971895 6.733107862441902 4.98244379951702
Cu 7.698244752474006 7.379961617433759 5.944744540660597
Cu 11.613231222356712 8.610231073631084 5.576066087015073
Cu 8.500147717360198 11.531378836438076 6.014457616350064
Cu 5.824307548186729 8.62496312344755 7.306138170850069
Cu 10.482843614342693 10.41703681364475 7.006854051984397
Cu 13.726919838524259 7.878924387807906 6.584825051052692
Cu 9.868970041750641 7.844537144503722 7.045671879101831
Cu 8.053176112171803 9.473633629358313 7.187210033448106
Cu 5.5439729009772165 7.695198550733337 9.564318462549952
Cu 9.419651274222824 5.566678342530481 7.241173896264923
Cu 12.019720182131246 8.657122746765479 8.140142387265563
Cu 11.790750571743093 6.361031764656867 6.667280393100728
Cu 7.613756657577169 13.278029439045755 7.47953042849868
Cu 8.659763893775896 11.445486815492757 8.639391614139292
Cu 6.304232606344013 11.13980190710938 7.280602750341229
Cu 10.411198801929237 12.873024270104635 8.088796124172426
Cu 13.362390144347781 6.58392990098667 8.562875917412429
Cu 11.376792041724103 10.845780183966848 9.290882203315581
Cu 4.876743944258947 10.170976846642763 9.076053750919156
Cu 7.7387802048255825 7.306522770313196 8.486716257716216
Cu 9.576086269597937 9.126807638914391 8.954546407169667
Cu 9.870132183512975 6.592925517320728 9.524692194655394
Cu 8.512695076642006 13.707178902044243 9.650346289718309
Cu 4.076461196177354 8.968969829022994 11.021969099523197
Cu 11.472074169676457 5.013711244994474 8.646703212131985
Cu 10.447520504099407 12.666845459835912 10.683982931354675
Cu 6.40702260550934 12.240947916091944 9.471405712642447
Cu 12.164270798597165 6.344955597687124 10.635590555509209
Cu 7.1934466122895335 9.733884981210965 9.602068976409962
Cu 13.477416728600216 8.424642428161333 10.190007212726444
Cu 7.32855428538096 6.280164009245704 10.720695215101946
Cu 11.140751759653645 8.594908284521047 10.594946085693712
Cu 8.612373198886992 8.205048695408722 10.988315881204276
Cu 5.786649532967288 10.712394256794946 11.370620971510213
Cu 6.238896553572379 8.2859243600412 11.833395959897002
Cu 9.449710239450019 10.493178312880678 10.90558816952906
Cu 10.236282972054369 6.74359872700519 12.086430952910836
Cu 7.835675613332886 12.199035096311668 11.455421639841115
Cu 11.80155073432372 10.631721467315234 11.802244020035
Cu 12.413621152098496 8.144023370522136 12.484875084149627
Cu 7.797345767315786 9.993184516328522 12.675233589678491
Cu 8.134311821378109 7.499805824904058 13.182611431516525
Cu 10.129674173317591 9.09229850287288 12.915414602856101
Cu 9.76578464519995 11.649097025290729 12.923513702741905
