43
Energy = -127.40663172 eV
Cu 13.42643415210646 9.829986569065065 7.586688169776306
Cu 13.603376826326965 12.104431725471025 6.8416117249494235
Cu 13.563166426144186 8.355725229643976 5.73183809076593
Cu 12.123284051777121 10.412755499341324 5.666453368070832
Cu 12.645290878098432 13.786472696068092 8.383403628601839
Cu 12.92029854507017 11.539676623915357 9.224425664865437
Cu 13.110277874763925 9.158084857450337 9.89853388622347
Cu 13.467814513469447 7.4532704786763935 8.05454835546828
Cu 12.265007049789162 13.279395401051957 10.803095841259108
Cu 10.940015819021223 9.991044542739589 8.641967910507345
Cu 11.431463940221402 8.337566751379747 6.860982238450663
Cu 11.225972211899485 12.08763004186269 7.294031589653568
Cu 9.79478901081535 10.178491572294762 6.458692510054144
Cu 10.2810270073118 13.701188971469339 8.949442742583056
Cu 12.606604062254416 10.904625954526516 11.62570679640973
Cu 10.472578325599248 11.709483919393307 10.37031569259543
Cu 13.314639430910674 6.803892674511633 10.446229887878667
Cu 10.783879111130187 9.2525139211474 10.994524713588449
Cu 12.839542282979036 8.493265672649184 12.229432749795322
Cu 11.270124607011601 7.450474123873395 9.223358306013091
Cu 10.95282625143325 12.309325828369968 12.786339365452074
Cu 10.03335191512117 14.1143967979031 11.30531594585885
Cu 11.528629877223501 7.42450927266321 13.941754023605798
Cu 11.153192515207476 6.7753350178672935 11.593184636014469
Cu 8.927989263975887 11.831872990775025 8.109168858763239
Cu 9.235755584630319 8.258178837848863 8.07038321356561
Cu 8.615680273512824 10.100263509997752 9.924664577844002
Cu 8.232443316527142 12.796826291633357 10.246029679615207
Cu 9.05197193769671 7.497283704702228 10.405497075376655
Cu 8.49934248540472 12.936860051906276 12.732932404755319
Cu 9.424055463914394 11.379782864705776 14.539428153187131
Cu 9.100128181005761 10.575185826258648 12.304478704421928
Cu 11.184379288161862 9.86924614606168 13.488618563340346
Cu 7.583987760206602 9.933919045440877 7.426933229524838
Cu 9.494277204404803 8.050760772349939 12.811009987546115
Cu 6.586211063331271 11.235014914333084 9.183679452931225
Cu 6.994389273979861 8.449153196881733 9.296017774244685
Cu 6.7892231163369 11.388917224800702 11.641224573353487
Cu 7.377565185786028 8.716209455476474 11.760908276258585
Cu 7.023999994065153 11.586031181552547 14.061038279060437
Cu 7.936056679188779 9.373845358049019 14.123911040029824
Cu 5.392093803217625 9.665489648001097 10.682727724680499
Cu 5.666387263650294 9.771138660574962 13.148994417742678
