49
Energy = -147.27667283 eV
Cu 9.949800441517318 10.550316622005868 5.154273759397771
Cu 7.602936294794017 9.475766784041081 4.397917912131793
Cu 9.570418227529895 7.969908493821004 4.939468467857644
Cu 7.189284338250537 7.310250051229224 5.982934786602522
Cu 8.980089016368971 5.558609159053866 5.678600252134058
Cu 7.685944103874922 11.590087722108949 5.774170259394945
Cu 10.973219815023873 9.01841172159688 7.026055893669563
Cu 5.996624761148428 9.648729775912043 6.424500287035966
Cu 11.25181775658453 6.563873628463099 6.117283801077983
Cu 9.94572948832851 12.944334225348475 6.082223904487165
Cu 8.389144786146753 9.286913775365658 6.574461734817271
Cu 6.865773951288074 8.040903414625733 8.46360732770272
Cu 9.317516934283947 7.225899485724777 7.317375115975835
Cu 7.65690898280889 5.587113287896849 7.890287130121573
Cu 5.63389930642557 12.069541649462998 7.2657953669940625
Cu 12.781720328713886 9.217752125374183 8.866993391017658
Cu 10.187497159272542 4.98324535003547 7.841836241168309
Cu 8.018743946481894 13.076866920565164 7.793165060539275
Cu 7.308020861346505 10.729682659771349 8.149931526693763
Cu 11.917275896216305 11.31657124498698 7.120021471187095
Cu 11.575285113758417 7.074592462530371 8.538491166922899
Cu 10.701164322442056 12.987464365237567 8.573396700849933
Cu 9.560130599326056 11.154883295455825 7.490769629679637
Cu 9.058720607456303 9.0774433174371 8.962019606397348
Cu 10.895806082487585 10.565271505000982 9.37768414483139
Cu 11.225222881753444 5.194720551686612 10.159769179357934
Cu 12.912526612554204 11.76513293454372 9.40312322911316
Cu 5.19466584224623 10.040461245080682 9.015458035823979
Cu 9.30939837979474 6.525188512156343 9.620047360618246
Cu 8.841658114503343 11.953119081203559 9.89433475409232
Cu 6.314728313940131 12.268050297551579 9.73204504505765
Cu 5.743751260040242 8.275270619056693 10.794079560092825
Cu 8.82135749969543 4.25109050659994 9.845820439379693
Cu 7.3095132976323285 10.063542890418347 10.421745684403145
Cu 12.731571086608108 7.27841039542215 10.838946394055972
Cu 6.932618066454308 6.115536235063313 10.220720179797496
Cu 8.295616117984355 8.00252207610292 11.165304294570854
Cu 10.716945931177497 8.354880826135911 10.548779474174404
Cu 11.027872320115547 12.21019764656528 11.072782394255677
Cu 12.402151616150165 10.05908166439013 11.216517216590692
Cu 5.313327200073461 10.68035029686755 11.508068031711167
Cu 10.831635398973496 6.437661249058705 12.181646751927614
Cu 8.610531958238687 5.546229475776642 11.940483935207466
Cu 7.517951433144066 11.807967897135427 12.003372124461647
Cu 6.754545471221474 6.963769293172092 12.688061711681156
Cu 9.537420373521813 10.240286831497055 11.687089521885918
Cu 11.244949304966344 8.681769628569004 12.882488351788185
Cu 7.178707555253283 9.433889636208557 12.797860560887134
Cu 9.049057834002747 7.657634158608046 13.389387822299783
