46
Energy = -136.20148813 eV
Cu 10.192351923341498 10.141250172364197 4.809538522751564
Cu 8.672905631549893 8.163950973641516 5.306319092448712
Cu 7.831017151215099 10.755254463275243 5.624807343350702
Cu 11.077296358028475 8.022393910344244 6.1546086252402805
Cu 7.092640320696977 6.711693656652874 6.471314399626594
Cu 9.259615858689457 5.757997173626915 5.895251723017611
Cu 9.715694719828559 12.172432200902914 6.668885391967422
Cu 11.858411171132511 10.535503070563609 6.979185973798025
Cu 9.481686982455713 9.656961784123457 6.942259818155621
Cu 6.879833544033307 13.301825885351077 7.788542347925764
Cu 7.019373999246592 9.008597230761872 7.251281942428894
Cu 13.432070827706124 8.682679063338021 8.320353990057345
Cu 7.763843078241929 5.347239214686788 8.318353864150742
Cu 11.789166908840603 6.472474342848159 8.927209997343946
Cu 9.358985813863937 7.140953099255482 7.795811010617091
Cu 5.555321901649114 10.977210761929646 7.866799001665864
Cu 7.8618786591905 11.191466200280944 8.051413319497922
Cu 5.91286819387371 7.29144442519837 8.54354899002203
Cu 11.579921758320717 12.917898288019215 8.42370402315269
Cu 11.131081509552361 8.759476877906557 8.531291275753725
Cu 10.188095695109785 4.790161051607155 7.948614381136853
Cu 10.228065008360456 11.093801045581333 8.744737615584961
Cu 9.066845153237596 13.204372509077027 9.113704639173118
Cu 8.722339862331431 9.082568037485183 9.11551402007613
Cu 12.5219621689308 10.67479923420128 9.524954596590502
Cu 11.55652577723671 4.271886192517447 9.935584635805302
Cu 7.588613382615258 6.972513178950771 10.16491105789149
Cu 8.47574654853975 11.113887003992216 10.469007937806637
Cu 7.172646366032032 14.395957144270582 10.005179732498261
Cu 6.3828449921078265 12.11873846613807 9.946366566533424
Cu 10.697812386986756 12.265867679171672 10.8827409360045
Cu 9.34613011191697 5.194183032241457 10.239367583175984
Cu 6.434079796418794 9.525645493773018 9.834009451284228
Cu 10.535327491610504 9.821448849125833 10.750705137639363
Cu 10.030527349371015 7.481180111045848 10.343646554035711
Cu 12.430940413794422 8.303511071679534 10.666877052863205
Cu 8.379971978414709 8.909220831949566 11.504020382062611
Cu 12.149437959478067 10.445488388800523 12.256883478428595
Cu 11.311301279015604 6.040387986916976 11.639992200874536
Cu 8.323919595866695 13.070910806237128 11.703546140222873
Cu 9.48869215251262 10.863079063101997 12.72880610850208
Cu 6.273974044855798 8.107098615666661 12.014773643527812
Cu 6.890771103770707 10.659898691810916 12.2324272914484
Cu 8.81264246690979 6.677461212356798 12.358434032064785
Cu 10.59669052710337 8.39904299451034 12.710653750249369
Cu 8.216291529098545 8.79634996580302 13.78222187462918
