46
Energy = -137.28039884 eV
Cu 7.828676726259374 6.182971045265517 10.223712174497564
Cu 10.218239692510052 10.451555912791413 9.604981462514942
Cu 12.476228526132887 11.279986878593174 9.175481844314215
Cu 10.922858308699183 4.87958947059933 8.104514950667156
Cu 7.938548007238677 10.081370343880849 9.965317503819458
Cu 12.946096702247315 10.96862020664341 6.694982047934588
Cu 9.499840801154672 9.616897325997083 11.961493812526712
Cu 6.213538882931469 11.74788838219635 9.421258875905552
Cu 9.603658304568729 8.87240764549025 7.7978849223290725
Cu 5.500863488911538 6.883586652945353 9.88576961513118
Cu 8.561329019740773 4.206463738034812 9.033501520924094
Cu 5.513141132277631 8.18329175193262 7.42031018524012
Cu 10.611939362126323 12.921663868877518 9.397959914503904
Cu 6.727759344212102 5.8578330491570325 7.95174867953009
Cu 9.831979767476243 13.587459457008553 7.026162366212605
Cu 11.371049879563781 9.393930659396274 5.772608303569394
Cu 10.476912133997983 11.183098596199699 7.366601434325258
Cu 8.834507284625413 12.016039677214492 11.038971586403248
Cu 6.254971444974189 4.462696204048089 10.079277890096014
Cu 7.482239373051824 10.198876492960693 7.589631546946789
Cu 11.072538614285582 7.181245075805549 6.77055638317529
Cu 11.5197421777224 7.055933338352281 9.195178051098038
Cu 8.437424575826375 12.271009548214714 8.540223123641024
Cu 12.129960797014668 13.07680609381434 7.445244090149453
Cu 8.523838393351818 11.901728151317037 5.898153681580076
Cu 12.065989231108082 9.140241949651886 8.093756766309196
Cu 10.20771398613715 5.422916771065795 10.447654737896356
Cu 7.433383314313506 8.054911360151372 8.81271044884596
Cu 11.168715354714463 7.219309693179783 11.8641058975106
Cu 10.42711703862831 5.048279563914249 12.84105958220609
Cu 6.62699453503649 10.789267882078125 11.732225150429796
Cu 5.560631544934644 9.402799660432326 9.718955293442226
Cu 11.033693009869381 11.994679534146547 5.289410917994588
Cu 6.45361151989083 12.338860076814896 6.981137629477451
Cu 6.434506131929215 5.981246197803679 12.13729014608346
Cu 11.28035752856547 11.476489810563635 11.43406367762759
Cu 6.460669161242748 9.983854984336421 5.554486917990139
Cu 9.005450355591444 9.616414073941673 5.519109020835184
Cu 7.712978053398887 7.750784835220205 6.422334219494835
Cu 8.823763117661098 6.788168837353455 12.401198818348165
Cu 4.969614822423975 10.544515668017157 7.589236352281797
Cu 9.5148360428679 8.005285430139995 10.204638410605737
Cu 8.318062018109883 4.346433552229131 11.667395886025679
Cu 9.173955100494808 6.428273952208374 8.11973119110351
Cu 11.929555669505415 9.140201437020929 10.608989311465672
Cu 7.138649233455325 8.302244673774702 11.437113167769915
