42
Energy = -124.44442032 eV
Cu 9.727957074235155 9.253927731334615 4.653645515989895
Cu 7.491511165704751 10.098317358287446 5.203739772641434
Cu 6.286711239543032 5.824725256743081 4.499667387685367
Cu 8.01847130380861 7.627686984018067 5.009838527403206
Cu 5.567843558509702 8.17798820387251 5.346364881540562
Cu 9.837542053146473 11.205854190786747 6.145689052938064
Cu 10.38803880969315 7.096228268061638 5.712378030886405
Cu 11.520848015436382 9.182697264038326 6.243964639592812
Cu 8.513194936338266 5.274334102783561 5.777216800410679
Cu 9.54040940689146 9.421482682664768 7.627970897371815
Cu 5.332778561683653 10.232614338790517 6.8449805321551835
Cu 4.411025485472913 5.963366499959313 6.159328372249737
Cu 7.158350497520215 8.852113299389757 7.208325377992518
Cu 6.2188357742064575 4.1980704231754675 6.434873308373298
Cu 7.585159341460168 11.272714501040822 7.368380991346089
Cu 6.623389825388122 6.490079912923498 6.732459737915164
Cu 8.855909200513072 7.0679797803931175 7.546698411672855
Cu 4.726155182822016 7.8910855209246975 7.7368875730272935
Cu 10.394497597428483 5.3010074493357555 7.443128258901553
Cu 11.16518231932486 7.689796182794921 8.394808083481625
Cu 11.721853106155955 10.71475576786252 8.060475533825096
Cu 5.397736217704773 5.40309600654793 8.535752055194491
Cu 9.57252623720107 11.810629718860989 8.69241918969923
Cu 7.917528544345098 4.8899066580885 8.255363653618438
Cu 7.987050627243805 9.88539860813033 9.507892596112127
Cu 9.804054127127218 5.597292919787222 9.804764856518085
Cu 9.057329971270535 7.795915331804591 9.862549680066575
Cu 7.247099018968198 12.108532127355023 9.688805275333937
Cu 10.456495504377164 9.769879390586302 9.895721134553211
Cu 5.604830227218063 9.5485337864106 9.400097333593937
Cu 12.75919259949053 9.547102895590637 10.11915200536602
Cu 11.603875915332832 11.845447931536555 10.26459013705786
Cu 6.829659916013536 7.3636706689717695 8.996599424344721
Cu 4.861544878363623 7.21404985904234 10.237782626829103
Cu 11.149706816752849 7.7259805148408525 11.064238727268778
Cu 7.201658206174898 5.6445306209403805 10.548555620414088
Cu 9.273342589540018 11.51318052719364 11.18108499822942
Cu 9.013627964791334 6.664946160873939 11.961351189785399
Cu 6.954626101188136 10.51104621049443 11.574313516200634
Cu 9.060964189427914 9.172547610993242 11.951346215661433
Cu 11.312239501198942 10.175557126112139 12.081436849825192
Cu 6.944892188301765 8.071575403972973 11.321007024242002
