47
Energy = -140.26131513 eV
Cu 10.40653180663242 8.432090766032564 4.592355842335785
Cu 7.990938088113242 8.277633789083017 5.122836881453907
Cu 9.015076722183098 10.497811184870613 5.218451307103356
Cu 11.444906722706023 10.29210431141696 5.925956143061356
Cu 11.883672454861292 7.781625088393135 6.547515604202671
Cu 9.690764001786226 6.5487726864809 6.129047331807857
Cu 9.689806299721193 11.182099732526105 7.491930505879612
Cu 7.505091969683205 10.055920184529864 7.27977660974612
Cu 7.7089095359494255 7.4896517505083935 7.4007720002033714
Cu 12.187036347230361 11.76066602732289 7.94558541666899
Cu 9.618623815561142 8.797930251310262 6.8175364200693975
Cu 13.49672029915687 9.609886231819262 7.1214863023140085
Cu 5.7667845143599195 11.05221455543859 8.772197645158094
Cu 11.392540688696448 9.467321974988776 8.271501991046652
Cu 10.200260361619124 13.346635913417744 8.360959313437759
Cu 13.750657980882266 12.43820120281974 9.688419869811764
Cu 10.528505473880877 6.97785062589459 8.630251810935423
Cu 12.973465636328697 7.715690262986667 8.878746414699359
Cu 6.595636647899364 8.75886497236788 9.233050532862523
Cu 7.774058823164741 12.54883530627534 8.194010296934062
Cu 8.064015265350003 6.610329934910565 9.562077977708588
Cu 9.105478134564745 8.840598573945234 9.269532496235556
Cu 12.502759716649972 14.14324982739384 8.412907626514807
Cu 10.420909069693145 11.061642484403837 9.882882861952464
Cu 11.531239352994831 13.178087707411274 10.4065052456085
Cu 13.477255802216593 10.015049294079011 9.530689226979902
Cu 6.488335485736274 12.690547734472315 10.456744030488009
Cu 12.023646228306006 6.489645575991103 10.74632499049618
Cu 8.962038287386418 13.019398964293776 10.466464622687072
Cu 9.701551867999301 7.093950212734199 11.235754707209024
Cu 7.920569678995019 10.841964396588235 9.852224149765355
Cu 7.442463524816139 8.114469305198284 11.417718167055963
Cu 11.314467571612187 8.82662239793955 10.606996446813804
Cu 6.00788685628915 10.27562282595696 11.217186684505098
Cu 13.35258391951243 8.549699881398295 11.630512615937333
Cu 12.524623930768715 11.102491407080933 11.396782031186373
Cu 10.345224225607394 11.945601820962695 12.22758621884931
Cu 9.232653117469882 9.75332079765804 11.661038099611122
Cu 11.424987727920138 7.389956234108004 12.979149885830338
Cu 7.793953227049023 11.766105587202977 12.359122901358585
Cu 7.105837858691951 9.575551532107268 13.306835833924124
Cu 9.009310014797807 8.021420463702077 13.438234592042404
Cu 11.412401380021947 9.75697790355549 13.035781999094857
Cu 9.334100028831605 10.621990436417736 14.032935215038044
Cu 10.61063003103928 8.687055877206888 15.069345066920155
Cu 7.1613921792626485 11.463863199726719 14.750469916915163
Cu 8.157185688061544 9.180467167133125 15.473296511600267
