49
Energy = -146.02171023 eV
Cu 10.250476868273926 11.701351406024862 7.791038372251182
Cu 14.863845960899097 13.462382160151828 9.2517742514637
Cu 12.682079359017314 14.68002630738727 9.813226231102034
Cu 8.526993805836936 12.941860627349735 9.071799961515536
Cu 12.599641261158322 12.714370099216257 8.033586131768955
Cu 11.818102426468842 10.444880435486766 9.166700456090325
Cu 10.846717756996906 12.999025633813567 9.685804937268555
Cu 12.16242974834854 8.067643269130887 10.026573898025733
Cu 14.314693209765458 11.081415663297944 8.569253864052557
Cu 9.586213036103988 10.923464283511441 10.13601968578243
Cu 9.037154583320834 12.893238047148918 11.509917557146407
Cu 17.14771931154846 12.615117454530036 9.53270762773586
Cu 13.032260830189202 16.157351470440368 12.190813188796612
Cu 16.219844744716426 13.71695922313481 11.459092403175735
Cu 9.522883714195524 14.971057886669879 10.180097769481652
Cu 11.31632101455897 11.831688974987934 11.93477813662118
Cu 13.63711591661769 9.811133461613236 10.669915352563676
Cu 13.096091103707025 12.216809811778068 10.369056509857161
Cu 14.875108710472336 15.623398509676822 10.525721373235639
Cu 15.312420117130412 9.560140449194623 12.549030689178588
Cu 10.67312761367711 16.602639405663318 11.66953171742811
Cu 13.033066792718422 8.370626894241948 12.44360702675938
Cu 11.256496866864621 14.290475595426168 11.798278038852683
Cu 15.475632759843915 11.405461525414529 10.689057588979864
Cu 16.676266813837763 11.674692070908463 12.71197791391814
Cu 13.856995435328146 11.440573180954733 12.655508853584903
Cu 8.967212177850215 15.103910011876234 12.610026934626182
Cu 11.822712264735754 10.161504286143902 13.76138257612296
Cu 11.045631998433763 9.51920714508492 11.507229653830198
Cu 13.82532959839573 13.888743020638746 11.932726906591713
Cu 15.700225856154244 10.918551447875307 14.766347754357575
Cu 9.91991066019172 13.445311377082284 14.077936070646425
Cu 13.959256807421538 9.210686255063578 14.55965453452559
Cu 7.636047498013659 13.036791734311377 13.446535467851191
Cu 15.374516921070272 15.524316238367474 12.916897598678919
Cu 11.209339013291583 15.536055256937221 13.89835798864681
Cu 15.124786338153218 13.221750183040886 13.95303617831713
Cu 9.465844724114328 11.122190993702336 13.301981682776837
Cu 11.693762362154498 14.043062724657087 15.908885339029796
Cu 12.319506271407912 13.138087312671232 13.732984457456231
Cu 13.536964942283003 15.11305317471375 14.506860841650164
Cu 13.39240365727545 11.554797856085413 15.122686447960207
Cu 8.510579017868226 12.087179051320009 15.501019930433271
Cu 12.388730240898214 9.803140869506997 16.36268577083117
Cu 14.142516892177037 13.491978679995574 16.280665023320665
Cu 12.375953314682347 12.115499674681743 17.386187521412637
Cu 10.031663807256225 12.847003058018938 17.29748944309928
Cu 10.879305723583885 11.59517945536333 15.45700686527436
Cu 14.633749482664797 11.099865677381745 17.052194807598227
