40
Energy = -117.33001046 eV
Cu 7.61073967915588 11.358164731219807 8.950259172530192
Cu 10.36370501900387 14.622688038123737 11.555856207939303
Cu 8.689637058745804 13.361784050287477 10.177909938193567
Cu 5.690251646575954 10.44160506827485 10.0931556518151
Cu 8.042996244387151 11.302628130816828 11.37428926773803
Cu 10.956327902003595 13.968990254203398 9.25685282262712
Cu 6.62614913319645 9.171508096003647 8.11976260514785
Cu 8.944279761209685 13.081260893280186 12.800092896272647
Cu 9.090297346963437 9.529887084649333 8.087103646516288
Cu 9.918693542748224 11.791491959505501 8.722571274841656
Cu 11.63708309750313 12.651030426596547 7.284439504800915
Cu 11.496979100030721 13.113559426033648 13.231068959904887
Cu 12.66268019054559 13.847012289716268 11.054935570248135
Cu 7.7793323733197655 9.17518306835464 10.247472085935238
Cu 7.606262956232613 11.02415579247942 13.690263182982553
Cu 10.639652680366527 12.175802850578833 11.191880784892472
Cu 13.41638615631202 13.770004466830864 8.638017731352326
Cu 5.6901842124716575 7.979578663095716 10.053675802132066
Cu 6.306810920351578 9.398298707567186 12.208167315206838
Cu 10.106771720557594 9.898634663843705 10.423083308045502
Cu 13.949479695787153 12.68750186133402 12.719740136943145
Cu 14.635093532078242 12.502977118337858 10.361133286528176
Cu 13.684908229268848 11.427005295240809 7.546450504067758
Cu 12.389243991345127 11.813745990576278 9.535944710626227
Cu 10.032574020006463 10.967710777168875 13.319413361337821
Cu 8.225308400125911 7.258855528405617 8.989860305848218
Cu 8.658505178820407 9.066988616162636 12.605908212121493
Cu 7.32912644195859 7.154970434904706 11.577759559990866
Cu 11.55498443454881 10.08498039292556 8.012830710234137
Cu 9.685549260518815 7.457500314842387 11.030259101333288
Cu 10.719905630860918 7.900747334244652 8.899194098550534
Cu 12.525389070133755 9.722389996221436 10.756269109146972
Cu 12.436162163199464 10.832654806738878 13.039985249715315
Cu 14.559030640474594 10.235204670946207 9.408225117411407
Cu 14.629272474144727 10.511765512029422 11.838458936705177
Cu 11.039055313963267 8.80755602966237 12.607928459080672
Cu 13.133133543810557 8.343447481883068 8.696881340484257
Cu 13.398056301022843 8.56537931264355 12.822221048527126
Cu 12.16407520543812 7.332272790778511 10.881166142298563
Cu 14.506400652506493 8.193551995185292 10.719987801620046
