44
Energy = -130.33137916 eV
Cu 5.803963872251171 10.550433053082507 10.811616100116572
Cu 6.6820920857271515 8.897574992170462 9.168203894908084
Cu 7.101973291221671 12.707407155039729 10.733454508713397
Cu 7.452286644692953 11.038956232677547 12.569067624955832
Cu 8.775885031030397 13.156236344662517 12.513289393757177
Cu 7.14424951769941 8.66776536829918 11.637535634604225
Cu 9.187395932592855 11.421253151305606 14.302625258296104
Cu 8.925781230437869 9.171320826425742 13.36821989087623
Cu 8.718992912554935 6.9326351521542895 12.357546488137142
Cu 11.235329037384172 10.06604160001332 13.880848401762957
Cu 6.493413614997469 11.376134053228814 8.588177097394418
Cu 11.024875440927998 7.853472227032157 12.811040102797786
Cu 8.12299185420314 7.058259603211646 9.92719161780992
Cu 13.451760851892388 8.808527702901111 12.984124287351925
Cu 8.188720683789533 10.621793751249779 10.13563165271786
Cu 7.7023290635001835 13.468225135392279 8.493413783106174
Cu 9.566720332948027 12.897338611035606 10.008679882331995
Cu 10.79456102775328 14.25559450184492 11.70221602004875
Cu 9.913856498185266 11.069251548410595 11.95697461831552
Cu 7.318740095265965 9.77622495949697 6.987694518054009
Cu 11.119609096547599 12.598192151438418 13.418835924812473
Cu 9.626666400274132 8.74171402833373 10.959450305461413
Cu 13.111006184364147 11.315315245846989 13.061520537540183
Cu 8.991833506355151 11.415357218161958 7.795685971544278
Cu 9.1500030867818 8.843042148954225 8.338401323130979
Cu 10.504386681435848 6.434009492665651 10.738848136576664
Cu 11.395832799343502 14.44115396152259 9.385127081339869
Cu 10.546651056789287 10.598512960183024 9.628767296457019
Cu 12.009176495623132 9.717002664012911 11.398617679954482
Cu 12.02374196538741 12.250853260021577 10.855733329612557
Cu 9.863938371170809 13.809474958845124 7.502197555104342
Cu 14.352865167481637 10.472429514618407 11.223700028962739
Cu 9.518344385680832 9.56782796806662 5.964428314379951
Cu 9.97504354045379 6.462439354229813 8.417211475383631
Cu 11.470782365997845 8.37193092641148 9.299560382498186
Cu 11.568552927336277 12.332066766545985 8.265586396226228
Cu 12.987318737996334 10.496302683963707 9.178473040846546
Cu 10.51122658737078 11.930459493865122 6.003457536252593
Cu 12.747026222892789 7.036068043768289 11.321808862228977
Cu 11.11576178216746 7.757797788515969 6.793671118532388
Cu 14.0435606342729 8.413906986993204 9.959993090220816
Cu 11.397506236715039 10.081648524498279 7.337518041708531
Cu 12.488616773630095 6.349995812360083 8.857662318526542
Cu 13.299154524399299 8.435775729994777 7.673107916737041
