48
Energy = -142.74800313 eV
Cu 12.093855748337305 9.548155294699692 7.996589471829352
Cu 8.613602362707072 8.754246237265528 6.007100751029166
Cu 11.083072864643146 8.329769215150774 5.9923818757059015
Cu 12.424143005819278 6.015017547175405 10.038772731962032
Cu 12.059877884939313 7.089531380351288 7.877073803653268
Cu 13.630996476092278 8.077729771996484 9.510344624096353
Cu 7.905807293480526 9.551410638838927 8.244504022498838
Cu 11.37873052421894 12.166421283255517 8.139155944385374
Cu 7.766617329568622 11.112614398754774 6.361739644592051
Cu 9.855179445531702 8.138382892889082 8.050596902212655
Cu 6.465236269986969 11.571154092391708 8.535160577443369
Cu 14.000419692651882 10.510874988644346 9.089700899669172
Cu 11.29935458232514 8.146759757351319 10.135400896650149
Cu 10.10233772806311 10.435655303577208 6.839713054291289
Cu 13.35196761808217 9.615789910651763 11.30871334211444
Cu 9.701742103244579 12.802680040167388 6.354642200565684
Cu 8.859629713370708 8.439841838912299 10.320911357322291
Cu 8.775287122713621 11.973995288899827 8.404091454581357
Cu 13.794181162659754 12.977806984237974 9.23084534098219
Cu 10.24625979322728 7.800474561750541 12.36124286350605
Cu 12.66416197182074 7.395980000913377 12.051730073686937
Cu 10.858836357337708 10.148708527801347 11.841385374687283
Cu 7.845617396835624 10.72322553949478 10.393471900930505
Cu 10.216281780975281 10.265957520257535 9.44264174502713
Cu 12.766668549912367 11.578047526152613 12.758580498708369
Cu 12.199069376699198 11.588199658944546 10.354733317656658
Cu 8.488645831519202 9.58853304693812 12.4558664484383
Cu 14.71296190903564 11.701962586058858 11.120197924589373
Cu 9.848186769757643 12.354846195502281 10.72337437282185
Cu 11.57598546334136 7.306806025024061 14.409252867946025
Cu 9.798573115776028 14.102483758719861 8.457194624579571
Cu 12.596983991445947 9.313243539201073 13.60479382242538
Cu 11.72133839964838 14.006404585443963 9.955193934404555
Cu 7.622130525013707 13.200987961584945 10.30703567499396
Cu 7.206299293758495 11.826863842944446 12.43513236514641
Cu 13.493544311511146 13.735004500688964 11.673634053577452
Cu 10.190301197724882 9.342866951204664 14.292657002037705
Cu 13.748151917237722 11.06303451624541 14.968844880633222
Cu 12.12486732287999 9.2735728206879 15.922845201116228
Cu 14.882934831878377 12.586611713261002 13.410885580532117
Cu 9.569395353140752 14.80991560653859 10.746087151163556
Cu 8.629667720533861 13.771260063129873 12.640518936566302
Cu 12.71452952854061 13.40674490298637 14.281154258529359
Cu 11.375637820647583 11.391339004592629 14.926154445855074
Cu 9.535795805657397 11.590158945227307 13.356949092144834
Cu 11.147810093291504 13.617511416471977 12.387437210326722
Cu 7.890913782978049 12.743888748870988 14.684398530289902
Cu 10.210533653486529 13.551651862200185 14.643289746144779
