42
Energy = -123.98482413 eV
Cu 7.582944287180026 7.054922499215189 9.320964200299334
Cu 6.580365637109908 8.40110816179841 11.091533889856601
Cu 5.8629015156169215 10.41341450291262 12.217693366529708
Cu 7.302274587475121 9.596513545961024 9.127648601285618
Cu 8.442185311013002 10.78426479234679 7.29940970245102
Cu 9.08406510298468 8.28487256117926 10.795991134209885
Cu 7.752175188810601 9.009881645036614 13.110919752018017
Cu 10.064058251755208 6.626508763903228 9.207746054763161
Cu 7.027399552109677 12.631330837972834 11.721044100157886
Cu 9.0460073865829 8.391584117602143 7.943628393800457
Cu 11.106524666418947 7.412895426763167 7.074996696563106
Cu 10.088193481743023 8.340082871798613 13.14241997480735
Cu 9.697578560682569 10.351521907282196 9.323160100601479
Cu 8.222261907503208 12.325445414686754 9.342532146057508
Cu 11.307398689600232 7.281826459884438 11.225313674538016
Cu 7.4693470963127515 11.336910317647792 13.804991826555364
Cu 10.776700721128405 9.862739090429484 7.064753927698904
Cu 8.076003146025291 10.533025295742442 11.235822755951268
Cu 9.732780790981394 10.86144656978001 13.10277815305515
Cu 10.346628796521612 12.245336239227765 7.711740694506642
Cu 11.605289888531317 8.609781404718232 9.135384091164806
Cu 10.039346698154892 12.151974546049356 11.076188998953437
Cu 11.898324268404163 11.415285343360313 9.454396463053378
Cu 13.030068692577949 8.913783349160587 6.841366895744201
Cu 8.649348818311406 14.254296070634268 10.956910960243848
Cu 11.09866955214711 9.835767466845223 11.294696232487638
Cu 10.55487291761117 13.932108026589816 9.50053171970675
Cu 9.155617913691628 9.680732869822922 15.041117475804038
Cu 12.713469242609897 11.341648370295548 7.097059644575945
Cu 13.333901432234287 8.756136761105154 11.095513148286866
Cu 9.032135308576963 13.157700326347284 13.109238507229927
Cu 11.557026621138013 10.043222930292119 14.368314832338054
Cu 12.456864161010888 8.062520483213746 13.232741405652941
Cu 11.978579799054366 11.969056752480933 12.64933614751498
Cu 14.961596978398626 10.544602640554004 7.031277586545111
Cu 12.773100956519674 13.380225702346431 10.574048835410277
Cu 10.94659177689446 14.206008740796312 11.956006794831605
Cu 13.783199920440461 9.806469009553085 8.965182506513159
Cu 13.644162891154805 10.180126819289411 13.172041132160235
Cu 12.43844594736328 13.574979912476476 8.086180453854524
Cu 13.773540596569667 11.205080351849219 11.059725988198917
Cu 14.293694698438054 12.185335469754962 8.841888693886206
