45
Energy = -133.46416969 eV
Cu 9.471082413785611 10.582655375068573 6.989539122467456
Cu 8.401175737316391 9.450547057100861 10.631854220246069
Cu 10.642953784561252 10.306172324475051 14.38918630276442
Cu 7.661064063939217 9.548354607766667 8.251509276201546
Cu 13.765028191097365 11.210034028085015 7.471720257622071
Cu 14.316146511558504 12.109077763388877 9.651246498423108
Cu 7.953307876659028 13.76760671003795 8.911564631129956
Cu 10.15157114408765 10.731408329643456 11.867170271773139
Cu 10.482720659701734 6.510037584107542 9.35612844245456
Cu 13.45607750207532 8.754006128536508 7.184181876420339
Cu 9.844871255769926 11.239249061351085 9.446638295672688
Cu 7.454061470402817 11.856294675750602 7.4918960284647795
Cu 7.336396904369083 11.596120819283083 9.90681011142846
Cu 11.73662014024703 10.07549538485186 8.321148664566723
Cu 11.583954161027748 11.661851023098762 6.4358181831884576
Cu 11.824668239317832 6.6980156922613485 11.379446257591333
Cu 14.302199479584718 10.805377381184595 11.888683112298217
Cu 10.249092800306304 14.246828382423704 9.457257676740356
Cu 9.771957101266624 12.453506722808099 13.429781778224347
Cu 11.112473992066702 8.537032449981528 12.818335007717323
Cu 11.644924792272167 7.010234960919332 7.214295029771303
Cu 13.157776344889365 8.728645576666011 11.48095767488137
Cu 9.803363360793782 8.415324257924286 8.01099573892805
Cu 6.970290343964098 7.8390889887136215 11.77126237556505
Cu 6.418043594590804 9.579091190100945 13.540122364765809
Cu 5.976169710436965 8.351685176256503 9.548169731137088
Cu 13.075689638251271 9.600451958787907 13.775347455281176
Cu 5.894885074428246 10.049305551251514 11.204284217482268
Cu 9.748302354821424 12.956699464134534 7.471921009295803
Cu 5.5349143174881394 10.636586751250151 8.678481047959801
Cu 8.843562087121091 13.044901966156567 11.118179168376386
Cu 11.955318234372243 12.624490152572115 8.726282592966498
Cu 11.186570329185978 13.079458610489903 11.34751585978694
Cu 12.188343385314987 11.689633775620756 13.084881882249023
Cu 7.732393452946872 11.249172708496864 12.374923216760521
Cu 8.247972035976877 10.828551434750741 14.7075991701384
Cu 14.082804877930604 9.718906413055402 9.426896707278553
Cu 12.273139962477071 11.005578177061066 10.58699185264029
Cu 12.721948002473217 7.6497689897717684 9.263521490850582
Cu 9.396110256206924 7.242260841378853 11.562553881775758
Cu 8.149115054453983 7.306221658146655 9.460371419591212
Cu 10.855476979596615 8.889846450264162 10.3487844975575
Cu 11.265280939447662 9.175464277841776 6.113398243026403
Cu 8.743038151965523 9.011106102960484 13.179375035094901
Cu 13.568282549959608 13.128992324729962 11.6741115819521
