44
Energy = -130.74525618 eV
Cu 12.34313566562709 10.699730199167066 13.326699168251212
Cu 10.29609561426622 11.518548767342415 14.662806379937182
Cu 10.457546896733268 7.0233848977004945 13.03658221244936
Cu 12.804976267207772 8.184780347412037 13.210005818985747
Cu 9.088698690895463 9.679370390188577 15.86062892002687
Cu 8.378679448086846 8.030218039782746 14.080813080014869
Cu 12.121799916346685 6.606996411224572 11.316368339034376
Cu 10.549343611945725 9.16542670984614 13.997446068793035
Cu 13.568263527124737 12.402057504212353 12.064664895146928
Cu 13.96311173385556 9.926129722282353 11.702938133318447
Cu 9.727053309896897 6.3738877939422975 10.818224099251873
Cu 11.367284586188097 12.981963108592314 13.041413289959069
Cu 8.899431299418312 12.815128670968326 12.97203143256735
Cu 8.97681781409446 8.605434785857419 11.739848146135493
Cu 10.009884605496556 12.581732780207142 10.304883383444526
Cu 15.60094756409994 11.625415123444233 10.983068229310145
Cu 11.532637802221695 8.985944966502379 11.429021646332078
Cu 8.332170209432352 10.450813263824363 13.708026991134295
Cu 13.469340329089876 8.238135695274137 10.020378860933155
Cu 11.145890328433381 7.665171543134209 9.291221770380014
Cu 6.735602786599911 9.215075661806837 12.414351517360455
Cu 13.892764680776924 12.867039938610317 9.681451982990612
Cu 7.900203469667262 11.255899193737132 11.393563276887086
Cu 14.328924638800732 10.436331959343834 9.308368175737991
Cu 12.016361610150765 13.998964573223605 10.944690493333887
Cu 12.078975490772232 11.24819865206041 10.277256972928418
Cu 9.933048759100146 14.7586310466985 12.09063460035355
Cu 10.242611607988447 10.914559462387782 12.13095890010111
Cu 9.832836000873662 9.913164647676707 9.834120446817993
Cu 8.74429298579151 7.775629269548755 9.073945046977721
Cu 10.114963965884904 9.021275904204337 7.417454092088127
Cu 10.710405437892364 11.416500378474536 8.174456363734878
Cu 8.015417214115937 13.70775329309033 10.750618593180375
Cu 12.322554616278165 9.505497522219725 8.285896991011697
Cu 7.274155137780265 9.422798543483774 10.01882140893507
Cu 13.04968774442967 11.78029272060211 7.610989643794648
Cu 11.74201485117217 13.627097064633787 8.574279818633142
Cu 10.016047958699316 14.965255608255468 9.721553819100837
Cu 8.133001651125108 11.59527603380545 8.947862744717835
Cu 11.524459948347902 10.477770418671394 6.061411800601083
Cu 7.791022456405207 9.546543996505655 7.642511494174547
Cu 11.144382270748727 12.872060733154942 6.275020049489267
Cu 9.333715211857005 13.450158954920497 7.915496593781258
Cu 9.082680004695238 11.261193422392273 6.48045402827666
