46
Energy = -136.62253025 eV
Cu 12.95984941148996 9.25744123974441 6.949104687090971
Cu 11.230565110426657 8.243096923726382 8.430962827355504
Cu 13.53434722638266 8.346642918733567 9.15046098680812
Cu 12.053695854759832 6.580385459335932 10.168894444665323
Cu 13.974475524607321 11.052308541179091 8.180325457258993
Cu 12.66395169596209 11.596531036853545 6.097103375828125
Cu 9.115048217418286 8.692189365086161 7.345411767333114
Cu 9.169624780587553 7.612974116262226 9.64883906074147
Cu 12.036137485095827 6.5882973219097725 12.640782940019829
Cu 8.536781644425705 11.069906123584461 7.147497902704353
Cu 13.482438040113149 8.189552938958315 11.585798157452707
Cu 10.909718289723397 10.462849797382752 7.343436377333467
Cu 7.225529348177316 8.963264525095774 8.907059813559107
Cu 9.77913734126853 6.558127052049181 11.786632361826179
Cu 14.484037848494655 10.150302587228142 10.427652976261907
Cu 9.37621915688997 10.116382399572371 9.310754516304373
Cu 12.53090957880849 13.038485944142632 8.001437831078876
Cu 10.422192598534282 12.696614071876294 6.65273693905004
Cu 11.122144757181811 8.577405658349992 10.910100084597548
Cu 12.092506620825093 10.424034164057414 9.57997729866381
Cu 6.8884546718209485 11.401096889046414 8.900672843627994
Cu 10.230866140997545 6.910207745244613 14.235885159191962
Cu 7.134546260176372 7.626399523064606 11.080291190369131
Cu 8.934101055619061 8.877289443683983 11.96328093830161
Cu 12.671285600732633 10.478249844886681 12.021903736546188
Cu 10.59812661466505 12.362170149471984 9.387780860234741
Cu 10.586317540997738 14.598986038247217 8.120002292272341
Cu 8.547268227456685 13.186406007671014 8.347406536227085
Cu 8.007354635902502 7.0872564790725585 13.421613402417119
Cu 11.372387794397193 8.874227060320584 13.345604370461128
Cu 8.310104752036779 12.223698254312366 10.667427691786523
Cu 13.474240489162348 12.395195631181624 10.292294499534007
Cu 10.252465104257098 10.84007043917892 11.426262465740773
Cu 6.991281652624948 10.17066598561184 11.014344820955648
Cu 6.819158613133637 9.149525218261546 13.217098362310189
Cu 9.539186671521716 14.332973642228268 10.363607473124382
Cu 9.141906851761386 9.168031031829306 14.37967198413228
Cu 12.093065798193717 14.45602091559588 10.0138145561287
Cu 11.591858219880363 12.777265404242842 11.775455690070116
Cu 13.230600973849839 12.234386918722869 13.534739853757795
Cu 10.79962211631406 11.274668651268303 13.754140384130599
Cu 8.316364753644448 11.080243177479844 12.952750033545788
Cu 13.321206068027138 14.299459730820503 12.188570105361855
Cu 9.396967220504337 13.2461229276726 12.64309583189347
Cu 10.96052803883926 15.164990940296118 12.147613813699413
Cu 11.417269152805105 13.72329576900979 14.040220979430018
