48
Energy = -143.63159178 eV
Cu 10.004352568375381 5.40517296267353 10.672068688352132
Cu 12.816781534676581 7.640460987522047 9.527559216379876
Cu 10.828236706723235 6.617138424050018 8.685132868863144
Cu 12.875873882012128 6.686946125529474 11.82504889108022
Cu 11.952798873650481 8.730537114993858 7.48670496283905
Cu 10.65649470426159 6.229792515673071 12.945818357482718
Cu 8.413573527956684 6.79630792956383 11.93791895574945
Cu 8.566741939293255 7.104278678556807 9.501065957066968
Cu 10.834772913933982 7.63471285707678 11.048415521316194
Cu 13.19366600285185 9.179989174206456 11.366376812486854
Cu 13.744881665422621 9.818486929948833 9.05272591378283
Cu 9.47405905630617 8.248746566139761 7.555273072967226
Cu 9.581364844301042 8.42001482048469 13.479765380855424
Cu 10.791001600474647 9.49261864359837 9.452464526212463
Cu 12.046300727403379 8.391101798801957 13.435189804570628
Cu 14.309560143639272 12.202251735936223 8.822601893922252
Cu 12.29757007492166 11.247845363264961 7.703514465093768
Cu 10.973874344394238 9.995395670115244 12.029721991354668
Cu 10.894272309952825 10.51904338047655 14.380160593580461
Cu 7.069418619371742 8.426757889614475 7.976965695897548
Cu 7.11518976881554 8.71560080996437 12.79300512152714
Cu 6.678197383562676 8.498293075425433 10.342725734264588
Cu 8.861267809331615 9.077799691785783 11.159671198740488
Cu 10.138876156120743 10.493267662420534 7.0062540996971325
Cu 12.17135996139906 11.353874993399456 10.206884702816353
Cu 12.920642966361807 11.02261348293749 13.0665259050811
Cu 9.474779486088748 11.449651575448737 10.974875508534959
Cu 10.166591567417179 12.195228031087131 8.853878103304082
Cu 8.583421364811706 10.658263892441552 13.208566878112437
Cu 8.492700925090253 10.150070732431002 8.933645692962587
Cu 10.711999682270825 12.944827513029589 6.716118468038404
Cu 6.984959270037002 10.785661225043945 11.280838274631174
Cu 14.424336701312166 11.380759176778994 11.08295960391807
Cu 6.201946600885855 10.636916746459459 8.914743681738235
Cu 14.348420200257996 13.05951127161519 12.855537934243355
Cu 8.24543111106543 12.012000703429935 7.340756383120251
Cu 12.10406429878679 13.135880394106708 11.765281875199786
Cu 10.1589750084665 12.509071742116118 13.136764186326724
Cu 12.304585161165335 13.546583724887235 8.781556265744438
Cu 9.801978737033862 13.843502940837649 10.820678436769882
Cu 14.050480949297333 13.943305768582173 10.528415638369172
Cu 7.906865743880408 12.891900691652774 12.175176160410615
Cu 10.225364942396315 14.673030406557904 8.562063797400302
Cu 12.238183743414545 13.176503139647265 14.196382753916208
Cu 7.747781118820283 12.55552103051342 9.679568239295559
Cu 13.177830473242672 15.156533626849463 12.564458561691737
Cu 10.784844267207403 14.87277976783744 12.821309347252454
Cu 11.813313402481755 15.255573814697188 10.467934646422703
