41
Energy = -121.00842441 eV
Cu 9.3762293002788 11.146789638208524 13.775398833956626
Cu 7.80260735376566 10.232365157049609 12.136093899960173
Cu 7.006884255481615 7.865168919521592 12.751034188289132
Cu 9.14826231284425 8.701142163874733 13.475883266402887
Cu 9.079467859519767 12.271814484766947 11.591730784434288
Cu 6.652317423627242 12.134931657924437 10.756090952111258
Cu 6.27540919333107 9.011610118840334 10.803998382926526
Cu 11.030348325255526 13.48567995446776 10.568445611891384
Cu 11.436857764780239 12.030589128509595 12.62247374228727
Cu 11.336172985404023 9.7014257694811 13.91363264839014
Cu 8.06757225517522 10.659937821679641 9.632249914313308
Cu 9.008231739599777 6.482999976530154 12.45976628505617
Cu 10.318313741005282 10.190342427066149 11.64427055981511
Cu 9.05361197463292 8.507709012877196 10.459984211307741
Cu 8.55398988323223 13.263868392634365 9.516505836957569
Cu 5.613418689038265 10.426477449242642 8.98364364976352
Cu 11.00316482436603 7.851217680317892 12.144298460706516
Cu 6.6502816943797365 12.480934522138108 8.23988018881539
Cu 7.5157115405363655 6.7335405244614925 10.525238861800448
Cu 10.48014259024214 11.419738179874381 9.375599773336253
Cu 12.733992247531601 9.507244263037917 11.997411514056443
Cu 12.675562040029513 11.461611171329249 10.602701964226693
Cu 10.4298499765877 13.651149409355108 8.097372541004718
Cu 12.604074121176078 12.913245904127509 8.691758072760274
Cu 8.904175426212149 11.872874523806445 7.4456670050740295
Cu 7.1957476643638945 10.290272326388818 7.099290222064547
Cu 7.127257347014246 8.448703931210254 8.686514789303322
Cu 10.301119678311082 6.385371545331862 10.362214191229576
Cu 11.494228384263193 9.148438389966033 9.707834767502513
Cu 11.22403992015242 11.470643783052498 7.023367404905005
Cu 14.199725238825222 9.473561143717594 10.142715041554526
Cu 9.515561874381547 9.350838106203517 8.118369010333893
Cu 12.732684149105323 7.279816902850852 10.434643780030505
Cu 13.053350188484846 10.556907628879696 8.320129062487737
Cu 9.512929209226014 9.942387783978312 5.845975609492814
Cu 8.93833450373381 6.879389666424362 8.370995970053281
Cu 7.889919962738059 8.063089014117681 6.416825773415944
Cu 11.399806650755036 6.997544602540183 8.289531270723662
Cu 11.686218556298451 9.083143285968944 6.913947583847759
Cu 13.52589086760247 8.142862673946922 8.22736195159633
Cu 10.16446841799368 7.362098622667652 6.239191229234957
