41
Energy = -121.34765029 eV
Cu 7.529317273215564 7.231842855611845 3.6293206983910467
Cu 8.947805992377987 8.948215484908381 4.663109721677679
Cu 6.466277240064454 9.608336347290784 4.385049218043196
Cu 9.517796064664013 6.598837773589088 5.413349933998895
Cu 7.516835611759596 5.3242457740972755 5.237430327248568
Cu 4.638059979764876 8.013094364813487 5.272663138438425
Cu 11.530257637818288 5.353969224236164 6.562617274749418
Cu 11.384753363195546 7.939355714415244 6.476623160872897
Cu 5.374908841837125 5.815803636039509 6.283659203844594
Cu 6.922556555621895 7.795131181711627 5.815399706419293
Cu 6.37962055641431 12.275297065896552 6.5033710469616235
Cu 9.048484323700627 8.413581121725578 6.978921979510963
Cu 7.8513956947262225 10.4484484945324 6.29214749932507
Cu 9.21959075681677 4.490686584782948 6.9349804387868845
Cu 10.39910423858875 10.409843562202422 6.818568060331608
Cu 5.352502926922831 9.971377655704385 6.682324203750384
Cu 10.020844985200021 6.484662629834056 7.979127200088586
Cu 12.310888333275486 6.668833486189457 8.553295841454577
Cu 4.833170080227417 7.620348655341004 7.749859558246515
Cu 6.850343608449308 4.028304290836796 7.2187916175591225
Cu 8.672087195805721 12.328837303440277 7.748130877973965
Cu 7.532980897074795 6.320626844701756 7.631438039372959
Cu 10.85011708069877 4.581111609350084 8.980397599849962
Cu 6.919860405439746 8.837846814151877 8.06479133733928
Cu 6.578285336540931 11.189872860202167 8.669197713921665
Cu 5.468009365177592 5.3021639101409095 8.786091663615226
Cu 10.998890899799411 8.806904972056863 8.780166695020469
Cu 8.847973973795883 10.166068825384565 8.676404546034234
Cu 10.775870780749948 11.33373987858641 9.20342660923061
Cu 5.034697887967822 9.288653982221277 9.570974473052942
Cu 8.735917775479757 7.871894073566157 9.399830568547394
Cu 4.172800973000438 6.928841634025712 10.170271578494363
Cu 6.469010855675757 7.228030696908116 9.74605789594662
Cu 8.355316429468793 5.416436954079373 9.769820227622153
Cu 8.525309941634015 11.797753297008056 10.306911819183403
Cu 7.283488792827531 9.582106700137526 10.587499667887009
Cu 10.539793597111055 6.7283914667534725 10.419936956578239
Cu 9.781864655196626 9.49497075420639 10.877108686167576
Cu 6.142634071318821 5.564082028158995 11.317210878479841
Cu 5.675681062220117 8.07955089236184 11.80301857718608
Cu 8.112380311393391 7.279384951817723 11.608190111815395
