41
Energy = -120.99750893 eV
Cu 8.681262739838282 13.175149384872167 10.348504012345964
Cu 7.546216537851724 8.212449213019898 9.359202532467833
Cu 10.961054064502282 9.929315526389777 11.677719735247601
Cu 6.139189395677013 9.655407073734033 10.938364833228444
Cu 10.932694621527018 13.530728790989686 8.997755816678003
Cu 8.33774634249718 7.524341386229089 13.47581294347928
Cu 9.618680469798662 6.727352373546142 8.848597583286931
Cu 13.38992057580077 9.645701056818702 11.55287326055752
Cu 12.703137827236535 12.188921449927625 10.337468169962893
Cu 7.04392634439739 9.64860663864606 13.257895459513785
Cu 11.519406045522855 8.828570558008153 5.666145487877894
Cu 14.368211899836794 10.608672359365798 9.379902607754458
Cu 7.853820266048645 10.8544800227647 9.828272893781273
Cu 12.124035157356175 9.883495880348109 9.463840193052787
Cu 11.450377343970004 7.6122976909258515 10.486300855825213
Cu 8.929200447396575 12.241893629675898 7.9692258764066946
Cu 9.464400275956733 9.682100003552225 13.881790302692643
Cu 12.665748624523836 11.76813395258385 12.674681595111332
Cu 13.71493633129852 8.17073836716676 9.446600602599386
Cu 10.852233405083858 13.150954108709712 11.609998900843795
Cu 11.657388287474447 7.875000753895501 7.982282992516254
Cu 10.775641112298095 10.400122605272351 7.473604929373859
Cu 8.094967750824448 9.984982734222294 7.596291641784591
Cu 12.677902584940902 11.954803271844744 7.933163890315689
Cu 9.160287071370428 6.678578134017301 11.200345448465711
Cu 8.696002780058109 13.54705070869108 12.834602119176294
Cu 9.503178263044955 10.564444418230442 5.566184616123301
Cu 10.69907090033877 7.780430715360689 12.824012165457495
Cu 8.621138378591843 9.006198253978958 11.511101150079023
Cu 6.782984439314441 7.4167925383644695 11.598675155126482
Cu 9.50013348510765 8.219534246144269 6.8646701675878345
Cu 13.271376727892884 9.61924531759814 7.273948744181085
Cu 11.990862430706974 9.721821675038822 13.776375586188259
Cu 12.242859812854824 11.118322196901872 5.5877332067213406
Cu 10.305848102838267 11.4269427236805 9.812204824807582
Cu 9.774114978661421 9.087123205396031 9.299524363592193
Cu 6.778345879795831 11.895753587802737 11.93629098260244
Cu 10.817166642312323 12.775946546148322 6.5809134100114886
Cu 10.52774833073024 11.930186326836335 13.806884549057008
Cu 9.037978224625382 11.351419236962837 12.011601742695063
Cu 8.008147918600702 11.663764835685896 14.258739229802021
