42
Energy = -124.12441871 eV
Cu 10.204873559853267 8.075738052968553 6.6799024496990445
Cu 7.922673001481645 9.057055740234924 7.068123103862401
Cu 7.5413952715049195 13.914890465213691 7.325659053884011
Cu 6.013273254670496 10.29925949336497 8.076960014814421
Cu 12.180804059470434 9.482413700428216 7.283049005917822
Cu 7.67326172533757 11.48111185357033 6.809287409911836
Cu 9.950923497336232 10.438274217182418 7.098408307406307
Cu 11.72445485592338 11.816577713114462 8.153899078448783
Cu 13.945583597565337 8.143454292321238 8.333871341981718
Cu 11.593413592141554 7.4481431212248435 8.647756981293403
Cu 9.197379876575724 7.894863854172176 8.883441128031292
Cu 8.479167296616655 14.124226927531803 9.650889621317491
Cu 6.803721833750567 8.34297104735973 9.1482327084229
Cu 13.501422278002341 10.421391106011031 9.125306188793651
Cu 6.914826700199563 12.332734751589214 9.026736657576105
Cu 9.415867887046947 12.607847851621534 8.045644060894366
Cu 6.450076960361938 10.368712404592134 10.569494187393156
Cu 8.5168141013226 10.38837444261823 9.267336042190275
Cu 10.959921361875862 9.71726938833492 9.465895859361781
Cu 10.979870255793116 14.01057292291386 9.347560240273763
Cu 15.205271800774332 9.02024717293815 10.232557620900343
Cu 8.017886026055216 12.185910018157747 11.22116737826557
Cu 12.904818465141496 8.244785892331192 10.562105034599856
Cu 10.510490219563627 7.718284688742995 10.968996499206868
Cu 12.334870537694798 10.534254112392128 11.457572656645628
Cu 12.844988978029287 12.608759199604268 10.18549188948785
Cu 10.364640328865947 11.961034700985383 10.351243503110815
Cu 7.666994145615344 10.279581832005533 12.75513339186112
Cu 9.760878434400391 13.961485526568019 11.668153567436013
Cu 14.678666053172828 11.240453702227788 11.141960415011646
Cu 9.95057082277967 10.079567412671503 11.835407113659185
Cu 8.160654196029407 8.529013741063622 11.102115279191686
Cu 11.900704592025601 8.422353583989574 12.869649989779655
Cu 9.433590056030308 12.100275349565251 13.230897812230415
Cu 14.251796682190768 9.204413929998301 12.477867688856058
Cu 13.669247322789888 11.40951843879408 13.381084941660978
Cu 11.703848598094293 12.678875794864624 12.440340095356987
Cu 9.428466434738077 8.215389768589294 13.231981143999803
Cu 9.139121123154961 10.154142526924733 14.670703038675304
Cu 13.292600153690147 9.32750578097741 14.698966514443661
Cu 11.389590209813864 10.715522300498082 13.933480515437873
Cu 10.98933727181434 8.611498599037288 15.14442788800257
