41
Energy = -120.45326281 eV
Cu 12.221597125989454 11.08237029160448 7.287875697897065
Cu 11.577649178461117 12.568709233761401 9.044449569608837
Cu 13.377697730888777 10.865787660660361 9.388923516442592
Cu 11.976247777081877 14.953141511156893 9.866343854327363
Cu 15.692082784333758 11.668119300747394 9.836786692319375
Cu 10.287235916401345 16.49177387400764 9.014171999026013
Cu 11.050385984543386 10.083663601571876 9.179788763109121
Cu 13.85536985933821 13.289851611323954 9.695880377194324
Cu 12.419019605512492 9.021863217491578 10.915684117478364
Cu 9.980061095849411 9.57527699718134 11.481378031492666
Cu 9.429934027593559 11.741440786328653 9.940857992999804
Cu 9.66894056671012 14.1835749842196 9.228019312866813
Cu 10.667923909432696 13.422633512216674 11.233888340022574
Cu 13.94543499773753 15.225298845201756 11.237955198486985
Cu 15.5680850414132 13.409425910947173 11.543425834155148
Cu 11.690418351271772 11.227177015255238 11.325896972453373
Cu 10.135757725770574 15.836227110847105 11.328200126667742
Cu 14.329503270163636 10.72475199481684 11.618795988574941
Cu 16.65725336470354 11.270375372248532 12.10611614538038
Cu 14.010150372810017 8.467783213700224 12.563669664767342
Cu 11.963540655391782 14.967574741638222 12.769644219183977
Cu 10.410705829426886 16.384356208030145 13.888199410807207
Cu 9.059110782928162 11.801253078509959 12.324129346294415
Cu 13.723213239450745 8.604588680116102 14.948283565128769
Cu 15.397714263174942 9.971777657447268 13.840837019325248
Cu 13.155892492172516 12.991663898320118 12.06863577328556
Cu 10.121800001666138 10.275699609890115 13.895985413807919
Cu 11.630883614147068 8.453781401575213 13.236574812099436
Cu 11.137532857721071 12.510143632591413 13.417630018459159
Cu 12.788318906209367 10.620039331734478 13.562652580826517
Cu 12.70279061654765 15.764313515545048 14.897175835826477
Cu 14.518211942133473 14.69682184830887 13.545029259894314
Cu 9.389924066020663 14.286735794519187 13.132752062943139
Cu 9.106482944338914 12.40896595528139 14.766208879912726
Cu 12.996375220660159 13.278126023437745 14.783005424145703
Cu 14.996157806627759 12.274401870535268 13.639222793577195
Cu 13.857186477979008 11.091448094940962 15.644683236907388
Cu 10.760242146889539 14.267936027467407 15.14969710522342
Cu 11.629834088557942 9.419064936964428 15.581960222654887
Cu 11.322532961492291 11.772902840725717 15.703225278313845
Cu 15.148166118720756 13.406524525394424 15.723725264374202
