47
Energy = -139.88872675 eV
Cu 11.498762962407067 11.89217340285217 11.16128670080259
Cu 7.442463967091461 7.53558885572405 11.710605826902766
Cu 9.288808537196687 5.947902447562359 12.213881255618471
Cu 12.441454285107039 8.124999837761548 9.169196399215583
Cu 10.64752832099897 10.075482132719602 10.02917738065564
Cu 12.98811040319289 10.585956174664881 9.424002187303433
Cu 8.808048551862715 12.786415430525457 7.139803769957082
Cu 6.835378348025433 11.305872019675295 8.226364716147842
Cu 9.689532039964865 8.243460429162425 11.309659607127536
Cu 7.715384244730211 10.02924124174249 12.424210996652787
Cu 8.690094836099073 6.6821280472706945 7.077043223389204
Cu 7.1856307636496215 6.016283900948718 13.520890716428799
Cu 8.92670707405183 11.609234242034644 10.701602025905009
Cu 6.307465389538273 8.362063635386777 13.66731312754295
Cu 9.61671237074213 8.929818898465223 6.489932055107231
Cu 5.257899135489163 6.688533273261432 12.083682701952371
Cu 13.559570522939191 9.007459226025615 7.121250475952147
Cu 11.449815487581834 9.818591783725328 7.727328921010828
Cu 7.919467277426961 10.753826634157068 6.123437504373348
Cu 10.201588155426341 10.22000896660275 12.554427458499093
Cu 6.996279618782809 5.219290749074848 11.06414525877019
Cu 12.885857485750606 11.414507426449767 6.813627199738303
Cu 10.042132022244198 7.452715939629409 4.763283346129755
Cu 9.148206469812868 10.657206835281954 8.262616067821556
Cu 9.46953966296897 9.868026423867516 4.265677153656399
Cu 6.091920658057056 7.138673055924996 7.073562925717963
Cu 6.406811209214674 11.20306259913091 10.61108923322709
Cu 11.492251515470189 7.4199257796178 6.912535325700479
Cu 11.771931675809016 9.378596404384096 5.3128367697848295
Cu 5.57677210316711 9.04391611855215 11.335455653002574
Cu 11.194808634440967 6.585423903129045 10.610450425391214
Cu 12.194991269570822 9.016647548774118 11.451422581926545
Cu 8.709552851561957 6.35451537008985 9.783996962796921
Cu 8.820516695154295 8.145099994745488 13.665538490828002
Cu 10.5030687424745 11.416371825217112 6.0903601625971024
Cu 11.073086866624564 12.130512296222374 8.591663789004757
Cu 11.100741160292202 7.466352407157182 13.0535332654314
Cu 7.894646831875817 9.364287105647042 10.056517430009182
Cu 6.19591795182564 7.219487687124319 9.612645756539687
Cu 5.776193293606704 9.623766112922633 6.3486090302977205
Cu 9.939755869189757 8.093692206069276 8.78295507788144
Cu 8.78990969668627 12.242452309076821 4.5344351973048775
Cu 7.029308453223277 5.298705892901399 8.449087296221565
Cu 7.601842493950086 8.261995557957487 5.288077478936977
Cu 5.457289583433249 9.434808405456435 8.87143844162265
Cu 7.563108756185827 8.797508071069515 7.768845509221808
Cu 7.044859421287688 10.379135060439248 3.9922207860759964
