43
Energy = -126.88736166 eV
Cu 8.320687909013246 10.785795176135666 6.664894283296984
Cu 10.798454498969889 6.79976085689664 6.160178012023545
Cu 13.117932358843172 6.317783820450112 6.984463849382827
Cu 12.49472458364697 8.52179137380691 6.3078726743753775
Cu 8.967954712135686 13.220429244465922 7.183510808219226
Cu 7.886908492374159 8.480398185773065 7.75330679295914
Cu 10.174374987965319 9.211094358062953 7.190104058121048
Cu 10.50875425820614 11.567274125621271 7.909646826605859
Cu 6.160597167620337 10.087056711621516 8.10436970252682
Cu 11.181199004706833 5.067374520215527 7.878616605638821
Cu 10.596542915226886 13.827791070978591 8.96253327312708
Cu 9.218052178924346 6.47092251080483 7.997436760760266
Cu 8.356747950098766 13.071523430561804 9.608777892568542
Cu 6.867651746123283 12.316100353830857 7.891462972218722
Cu 11.439469418046473 7.521739693098993 8.399771574870734
Cu 8.550413034475724 10.486756802789447 9.071571204106283
Cu 12.541163166093892 10.193861616557928 7.966697809642543
Cu 13.753271562672959 8.197463356890115 8.648419674411205
Cu 12.974043960945746 5.858001436886195 9.4005362463902
Cu 6.849743250178241 8.966317102032413 10.171339790103831
Cu 12.501123076155157 12.18113164678889 9.362016778128966
Cu 10.569572725715275 6.013155260702848 10.150796064100074
Cu 6.546605095686681 11.400184928889496 10.208254241959011
Cu 13.255711854594402 10.035597536681927 10.346033947587642
Cu 10.879601425328959 9.650833596892891 9.66530222780454
Cu 12.305818585480555 7.80912485906367 10.708535153703997
Cu 9.038710384699426 7.936128772535221 9.891736327381006
Cu 12.113487791573435 14.068796470358146 10.842506031068847
Cu 10.372331593048472 11.902332767114789 10.570094597187024
Cu 9.079220474253148 9.950642366111758 11.444235305045543
Cu 9.706496154861515 14.083115206066262 11.453977994322196
Cu 7.8521974926037625 7.955910514985341 12.233101909572357
Cu 8.100886569660148 12.25979519526898 11.914333263262161
Cu 10.251616599562192 7.628190965821428 11.97618230483699
Cu 6.759952163643921 10.168822504928752 12.35613167973453
Cu 12.547674702248411 11.904688756608348 11.871578961515308
Cu 11.518938074573262 9.711448146204797 12.150004814970895
Cu 10.319248298660014 11.556178165121898 13.136044411124255
Cu 9.529744296013838 9.222474258713294 13.714561084900511
Cu 11.401899536938924 13.714699002444398 13.149463748072478
Cu 9.026452075895305 13.498753580358676 13.80171286167588
Cu 8.10128324738699 11.203665888017161 14.140040647510109
Cu 7.2073281666040305 8.919681404296512 14.402432374643066
