42
Energy = -123.5304733 eV
Cu 11.27024498046833 6.989156844752987 12.371898863547584
Cu 13.561703797981622 7.824195081989313 12.186957921956894
Cu 15.822082878474069 8.86880331041377 12.033838119249971
Cu 9.28489063217636 8.280039178315452 13.068562882965812
Cu 7.34031283679032 7.6688245155313375 11.653051999108584
Cu 11.901432066852161 8.370768113332364 10.438972700587271
Cu 11.617042220758766 9.231100334223353 13.159165423600253
Cu 14.296106535953534 9.02884503738031 10.185898651467179
Cu 14.058648411531516 9.89578511999921 13.301269959209113
Cu 9.462408406159064 10.57679068886641 13.89209411819974
Cu 9.567426035679587 7.554787692892732 10.758882513401666
Cu 12.850398487337163 9.03952708564912 8.213922432079992
Cu 10.224535180549758 8.482428543428476 8.675575757412389
Cu 7.646429957410702 9.955919899265817 12.368078262308844
Cu 10.999139899772194 9.69131009567848 6.707544074487218
Cu 10.125521153548316 10.129103726600846 11.294888156299422
Cu 15.020100598969835 11.134798106041963 11.365721742959245
Cu 12.464150125684462 10.786806886046897 14.875323718717363
Cu 5.820299009848635 9.378126862608207 10.842582354595013
Cu 12.612896645516233 10.673774729790653 11.242832464467291
Cu 11.292962695287143 11.738871489460438 13.017550210783739
Cu 8.068449365895983 9.318399102036857 9.869170853095142
Cu 13.679276338165254 12.289105993422796 13.150926800890073
Cu 12.13824822722983 13.215322974560479 14.859650180877345
Cu 8.793338553889194 10.124231195835458 7.629199409282404
Cu 11.29200640458482 10.658982249305117 9.051611268620217
Cu 13.838286602969173 11.21142206650028 9.138591127157271
Cu 8.799039784397442 12.16042958147973 12.096324515638905
Cu 6.938119656746108 11.49418358768104 10.597537368376193
Cu 9.829273268214514 13.349328411318185 13.997433872078888
Cu 10.949183217967466 12.537304634106844 10.705291216918996
Cu 12.771862176216422 11.286510162501715 6.9689574013160875
Cu 9.023336494024528 11.652063127387358 9.433037480465932
Cu 13.390787314900908 13.048243165755585 10.794448242335466
Cu 11.972476445235197 14.068317395305709 12.592048961921837
Cu 10.384245962953639 12.044096877779602 7.2498889304157474
Cu 12.227543306438637 13.047634108733776 8.593259513380637
Cu 9.702565388665466 14.505262692635984 11.86839473192165
Cu 8.031564958801555 13.731848523863098 10.304391856385227
Cu 9.910406047753751 13.899818805691188 8.750754937986446
Cu 11.597472452337977 14.867736632295692 10.272424458096113
Cu 9.283749374023838 15.87988812831923 9.963531587213145
