40
Energy = -117.75283819 eV
Cu 12.092527227717593 6.237769758035957 7.595516218497615
Cu 5.936019406928906 10.282948094365764 11.456583781634384
Cu 5.537477487539645 9.179074205973148 5.122009791394459
Cu 8.100518176802689 6.772505754254224 7.1898772474116415
Cu 8.142574384327562 10.883883448040942 7.994687466754267
Cu 8.267542769334959 10.373264984018242 10.541422971424527
Cu 9.986193572793809 11.868953845053884 9.411686057616762
Cu 10.6894538932135 10.103687863932137 11.220981414504704
Cu 10.742812861727794 8.948080362888646 4.920830241414108
Cu 10.186994045714194 9.584307940031277 8.969303031188392
Cu 10.136699099061834 7.232181441443324 8.398498468502195
Cu 12.009551979782712 8.123120869441689 9.665783345519463
Cu 8.275119878537494 6.428768066827449 12.104313596921765
Cu 10.546687155883793 10.962111392502855 7.0093279317463235
Cu 4.115308203826331 10.612945192951344 9.826793233206772
Cu 9.606376779482062 4.964771999413309 7.691327496004965
Cu 8.285071272946391 5.934007801900414 9.673471100918672
Cu 10.208609145459638 6.711773722218446 5.867672361231758
Cu 8.045755385621828 5.24061344981381 5.473212893251194
Cu 6.500532248690633 11.911625939039086 9.580256210837536
Cu 6.881051021221376 4.880527848488735 7.786266648629416
Cu 6.977340607411533 8.100947216040735 11.0628872083948
Cu 6.126261307640958 9.633535496576668 9.161162453753457
Cu 8.134453247381684 8.414473452675788 8.959537144663006
Cu 6.021796415844719 7.057047431388959 8.645376184454372
Cu 9.279995144712517 8.941444319969028 6.75351155587988
Cu 12.235763195662928 10.635447954005317 8.98909837711928
Cu 4.599650189022506 8.209973742623635 10.311677438932506
Cu 11.806103152002617 8.75159384936956 7.192751445549474
Cu 5.774571121167766 10.958135562676256 7.106474062074838
Cu 8.008786424184942 7.840425623240377 4.959096453733267
Cu 4.497007864112068 8.724288737442976 7.527240498397198
Cu 8.656509501083844 9.047129071479487 12.557285557404432
Cu 6.050446961051619 5.911167806127816 10.746272583229933
Cu 7.812563204184409 10.39738075726064 5.467549489163233
Cu 9.769449093634423 7.814741766576527 10.815670013786786
Cu 6.835994373079403 8.824109656972517 6.976899618649445
Cu 5.915090267579603 6.753410413565513 6.096003648223005
Cu 12.550653691684458 7.257878385050213 5.424342151375932
Cu 10.85392734155746 5.689183875938239 9.946581706219506
