43
Energy = -126.45042686 eV
Cu 12.311635064692624 6.5273679391026205 9.277485450357823
Cu 13.722119971764789 8.399372973295211 9.936146548172132
Cu 13.622471797139113 10.277092327684056 8.363570316721693
Cu 15.650711846052713 9.740545909483824 9.84564062468627
Cu 11.320126708869772 10.879861101679854 7.390707214565654
Cu 11.654035409746959 8.881666895181697 8.757441552641032
Cu 10.845175763095428 5.584207457191381 10.96384317944338
Cu 11.674515111635824 7.9440328720701325 11.197272309432583
Cu 14.461918487118087 11.787762106656166 10.091013649805301
Cu 12.752472544906992 8.28914561143904 13.313906903951981
Cu 12.621318150477842 12.504359436634251 8.643643443512644
Cu 9.969861481719857 7.272593582840153 9.314829788540926
Cu 12.119178701034736 10.664232789905574 10.464709668158314
Cu 9.337230345432086 9.486604089955994 8.268773474085277
Cu 13.65174102175725 14.128746240603142 10.324929612003569
Cu 10.065918163609759 11.663817311697391 9.385637983684347
Cu 10.447426888808021 13.327257441991954 7.632818312107585
Cu 14.045991526169274 9.914411428154333 11.826941867349133
Cu 9.198296936203379 7.238850591977839 11.607818748856538
Cu 9.839042866120591 9.463002470941337 10.621093698649224
Cu 10.881805009186404 6.6236280227608795 13.21326471212102
Cu 12.091904996189342 14.855669032887922 8.526133129100154
Cu 8.948321092579523 11.544214096805531 7.096217513650556
Cu 10.288319354728204 9.035890275376742 13.185453701826606
Cu 13.22840555239085 12.358266850994626 12.085066026072125
Cu 7.960882036776769 9.24521561634238 12.216705959530715
Cu 8.600028125331187 7.414912959535827 13.907862069457689
Cu 11.377286146406897 13.38530562151329 10.675894246725772
Cu 11.839592073019114 15.957027607186557 10.598447442819891
Cu 12.186659368209392 10.578580298195012 13.323833654546144
Cu 10.301800062679686 11.53379166455913 11.986600908017435
Cu 8.17449102987933 13.097680753450865 8.807018527414881
Cu 7.943996983082793 11.055875188651845 10.440478046617528
Cu 8.166332847782337 9.699278130045872 14.57581421283051
Cu 9.803257402693758 14.842768854922681 9.546683508140845
Cu 12.567605823683175 14.709281663289785 12.541537443882786
Cu 8.734960620801951 13.271222291880191 11.188802215927359
Cu 11.640317184373178 12.900075225023345 13.860330144225031
Cu 7.972900221976653 11.557784575765277 12.920404927890594
Cu 9.994360748160938 11.199024468911574 14.40948620432257
Cu 10.117936875144622 15.107132580554435 12.068641682804916
Cu 9.28517532144532 13.455616161277812 13.626630377963576
Cu 10.945815351975858 15.140093600011916 14.340904557411832
