41
Energy = -120.47419413 eV
Cu 7.967978753885291 13.21213797920334 8.960616919908457
Cu 7.286236138045077 9.048013754639001 7.518021308962471
Cu 7.901251531113909 6.8745957423861705 6.683226807894282
Cu 8.878623436059744 11.06316330082832 7.561088271191991
Cu 6.595934409120406 11.23908754058982 8.285041655696276
Cu 9.59607536305625 8.758859595578999 6.6942760620987185
Cu 11.204649083062206 10.556676813540529 7.087263690338115
Cu 10.346669364432389 12.878421547641334 8.312096282147149
Cu 12.728112965835777 12.285196984281638 7.891069859648944
Cu 9.807362308082938 13.963675359950042 10.514533609893308
Cu 7.826590327698496 7.234719965544385 9.144798323587
Cu 8.916501736548947 11.36804280004385 10.100325649012238
Cu 7.087904970708023 9.524132764797075 9.938091659446656
Cu 6.57034756574877 11.837065910612463 10.63662239687847
Cu 11.630417456134849 8.435324224637524 8.292879163014574
Cu 9.42972911987755 9.097836658213588 9.16272485516482
Cu 9.9188165120562 6.738029203187024 8.019453481626902
Cu 13.429639580201412 10.09045094114749 8.798943726401205
Cu 11.243895611289465 10.879571504382035 9.479037221972265
Cu 12.17530752011906 13.24025647826035 10.02742509079113
Cu 14.351093382859444 12.177743761413941 9.725991907346877
Cu 10.793565318533133 12.13298749286447 11.751582929509722
Cu 12.572705999178135 8.520522709616289 10.487644227785042
Cu 11.811660930005702 14.412857348900364 12.114790329571926
Cu 13.794194039558986 12.9591018331671 12.036196341652236
Cu 12.837835966284544 10.826314803086373 11.327939964294202
Cu 8.265639417874002 12.74983429663142 12.051047261162857
Cu 10.50482783750407 7.165601129478496 10.3524852713736
Cu 10.372124309562718 9.721392261607116 11.441657830718174
Cu 9.939236771929037 13.751718371945758 13.421188996336491
Cu 7.865190245465364 10.312154662015763 12.205055048940848
Cu 15.192051569076074 10.824440409405307 11.598462370257188
Cu 13.72723675652125 8.970237207322391 12.599945851838319
Cu 12.058277798461868 12.568496259861288 13.792000166182898
Cu 8.394810038017276 8.05346893337825 11.36222585717079
Cu 14.00605952379231 11.135959430126425 13.704319767556035
Cu 9.55713494305487 11.281635579393821 13.690887688872927
Cu 11.561614943962903 7.7916732230130465 12.58044927732922
Cu 11.721309078429368 10.096618909117014 13.522158374021837
Cu 9.458180524124616 8.784639123011576 13.505799021855355
Cu 9.609360160350244 6.420458273381201 12.562280103933238
