47
Energy = -139.94889451 eV
Cu 10.811118754333558 10.448169015387801 11.28083174041556
Cu 9.241108580895808 4.652239270848059 10.394019423147473
Cu 11.569689621642272 9.005365149401976 9.543608271067516
Cu 5.609404448038148 8.994408145503096 7.029093249238561
Cu 9.467586588893479 8.503922296474837 11.747374040238535
Cu 10.081276651815545 10.60070398093397 5.0192933526278205
Cu 8.217096494976365 10.20199055010676 10.35538164993375
Cu 7.565324423764636 7.546193508240886 7.415483654285467
Cu 9.424555006663978 12.324308359483782 10.702667463881903
Cu 12.491380179282851 10.685457488346538 5.168243146277684
Cu 12.741669798420332 6.853112253821107 9.658691699097774
Cu 6.619659673815447 8.32621369858677 9.51681507068513
Cu 6.776353359337799 5.456121626808095 9.15490797062526
Cu 5.588038624896902 10.569901430699568 9.153934217522345
Cu 5.418695790129411 4.136586421050653 7.642651133870725
Cu 6.923741142445798 7.402509216702674 5.178409817199722
Cu 8.637830544217666 10.69153155272119 12.609363370253396
Cu 8.010196256281032 6.748675970787843 10.789320839015195
Cu 11.927612585671135 9.783648418837274 7.320371594922553
Cu 10.416205966690962 6.775176295674944 10.310775612183988
Cu 9.087422725090605 5.8946180070083205 8.32920842689243
Cu 7.63753523095469 9.982794229931237 7.965921889661893
Cu 7.337167119808658 5.27356306219443 6.607642453781283
Cu 7.5010214344440485 9.895059537998488 5.5100872906436935
Cu 9.919196034278327 13.158952806215522 8.499894713222544
Cu 11.297861387477434 5.004924534914603 8.92020542884113
Cu 11.34060751629755 8.41045531959177 5.3469780302154515
Cu 6.192079064791129 11.519660929948364 6.90561064273473
Cu 11.109866162788553 7.319802421456501 7.738829813700305
Cu 4.825812937179571 9.27411644159378 11.099621477962353
Cu 11.800062781260827 5.240466422583651 11.349200920183888
Cu 7.571131886628773 12.205916580531033 9.015878504448738
Cu 9.03321715681484 8.442310109724323 4.331217548804103
Cu 7.016204908334728 8.778749361069728 11.981079437802341
Cu 11.878449916860808 7.978173025809483 11.760368175649218
Cu 9.37858166328372 6.666996363293599 5.950768205755678
Cu 8.697784270894259 11.8321958972975 6.698878964589593
Cu 4.3397332127677934 5.5405171964547675 9.323858090892992
Cu 9.893364702797712 10.734782354494328 8.635719274826323
Cu 9.125586955848018 8.362100884388225 9.098434760621968
Cu 5.324282408268821 6.54362197311323 7.293605503946447
Cu 4.318228674662144 8.000836605699186 9.024003070587053
Cu 5.482623679658676 6.865514838739123 11.027170486880822
Cu 11.864201882612646 11.70472686802911 9.307007014687395
Cu 9.525928532523745 9.016877900985383 6.761260715938585
Cu 11.205774162077741 12.024226683526548 6.7842327703895755
Cu 6.410745389430701 11.274821283039172 11.395095359897999
