44
Energy = -130.33111119 eV
Cu 7.209668888495526 10.232234081240351 6.57974672102182
Cu 7.532883032797232 11.072400568649815 10.719090398821962
Cu 9.14392958056155 8.982194799053902 7.377641344073637
Cu 7.269552136054706 9.426072424849412 8.932996422914846
Cu 7.5539265755075204 12.601514898713353 12.535815709779508
Cu 9.166024451205766 9.900215530459178 5.145391098435369
Cu 7.329083739006947 11.852387920357057 8.388544153160645
Cu 8.819945627371158 10.355979166143712 12.82116549957512
Cu 9.22810177513903 8.233770255788384 9.828238731092107
Cu 9.59194042589367 10.6522280843433 9.17146674140356
Cu 7.396444050084979 13.472414610469485 10.29540298176723
Cu 7.420115278671008 8.792902730780881 11.347565579057436
Cu 11.285041160319743 8.827289139732194 8.658430832672842
Cu 9.532382930322116 13.117845733426057 13.644862564503113
Cu 9.78969010118348 11.071485441690411 15.048331201374483
Cu 11.137293336794851 10.183681802098848 6.556393450737016
Cu 9.176535132334605 11.66513083814103 6.8219264353236175
Cu 9.419588355153623 7.8499281689805285 12.27977926066667
Cu 9.784771402711549 12.08756352490134 11.196303535364562
Cu 9.41524531891928 14.381753501715353 11.416402074949795
Cu 10.82591891639408 9.68663307464068 11.308376537008513
Cu 10.739140244836506 9.05986615454215 13.922796432357815
Cu 9.377849001299257 13.13435201937121 8.94740323630817
Cu 11.359479639691024 12.32556602248374 7.769771969608018
Cu 11.196423242222636 11.349256986883372 13.098424326312301
Cu 11.40050590483515 7.368662494997909 10.820577322805876
Cu 11.331517477596451 6.754529257806772 13.367177910201555
Cu 11.521676025467627 12.903944309433124 14.99117247176697
Cu 11.914198804291479 11.404771891212214 9.953701028612853
Cu 11.609815496152867 13.723358226070632 12.498554583617752
Cu 12.84797728770413 8.370502750351493 12.518881615288914
Cu 12.292030840959699 10.589555324449492 15.176124657204898
Cu 11.469130579836767 13.811290660920553 10.03142897387311
Cu 13.066370668069462 10.459689579767478 8.004326097727718
Cu 13.196235189826673 10.651475534674468 11.890318323328103
Cu 13.509691336173749 12.936122849445304 8.751291321589092
Cu 13.137646350830815 9.016769906018533 10.118933924094598
Cu 12.797236561814765 8.210180024842021 14.920676592660232
Cu 13.481828208811374 12.340871970237894 13.637489370075787
Cu 14.279584800448633 9.998424723271814 13.920990712308424
Cu 15.686064318907073 13.08728410211991 10.015427978175897
Cu 13.564553928415997 13.060393001022417 11.194851688024347
Cu 15.366640798760256 11.650421173785439 12.172228538936876
Cu 14.516372813764033 11.03713647575429 9.893631387053897
