49
Energy = -146.01708857 eV
Cu 13.279748806683306 13.160734975538194 7.069399938997198
Cu 10.92522247928242 13.87318106600774 7.1880191005030065
Cu 15.755651373077885 11.042249074787076 9.337909685717044
Cu 12.571102766898056 15.132137975476015 8.515734993194009
Cu 13.584111508392839 11.088769686157168 8.380169943570394
Cu 10.309448402642746 14.56570216807773 9.462192890140082
Cu 11.836055410780745 10.47156931685228 10.156380151261386
Cu 11.75600266856553 16.335397458086604 10.831789655514596
Cu 14.075452305324147 9.523572448524172 10.46963325329086
Cu 14.57012632531878 13.621133862966772 9.100942304005565
Cu 11.894982140856998 12.648200890072294 8.97138800910937
Cu 8.285739888258645 13.788265672915584 10.778118702151051
Cu 9.906053083965334 12.172711916902392 10.260992502228593
Cu 14.190803928214514 15.895999667937424 10.250606145129954
Cu 15.884533352686354 10.750060738591756 11.778146687323131
Cu 12.639089732924282 14.141642208098261 10.740280546469426
Cu 16.34795377318496 12.909872689225548 10.74881278038497
Cu 13.887952569549268 11.940317190404441 10.729515888164508
Cu 10.04779665846401 10.296424957833414 11.933639462258444
Cu 10.371328147123155 14.481027472003733 11.865364954511417
Cu 12.051892346238215 8.788826743882408 11.945501212412282
Cu 13.590695253594781 16.201011075679826 12.697364534876927
Cu 14.21912592142317 9.36626733687985 12.935863744281887
Cu 7.835955020196464 11.34332394651616 11.41415015787493
Cu 12.526697374866018 14.092102967231616 13.151594500617755
Cu 9.267151773088985 12.559844077260577 12.809510329432712
Cu 11.726100600698595 12.186952444318822 11.945292079382353
Cu 14.786532462288827 14.188958443222255 11.948538745515114
Cu 14.103786621332754 11.968600243024435 13.236419742146959
Cu 12.088893912952642 10.51454571330243 13.613188257698797
Cu 12.562506931600304 8.260807031720041 14.45318175463843
Cu 10.437661711415135 14.00504110516697 14.383046582099244
Cu 15.985179659388535 10.51868518477034 14.200388940629546
Cu 13.864790868611196 10.141445563117555 15.349669241504534
Cu 10.281375734317638 8.971905405903145 14.015243473566002
Cu 11.20105649024988 16.202981931117584 13.321282095811595
Cu 14.601271025082069 14.329573079460275 14.407818452313418
Cu 16.35555827252286 12.794071763598609 13.287307103676703
Cu 12.533290946282186 12.465262816518319 15.019612462877454
Cu 8.319920690106082 10.474234550568358 13.70090078784207
Cu 15.037108601869427 12.250624535367532 15.638346793324352
Cu 11.531152668520019 9.946643471589248 16.05879117098166
Cu 10.117806997408035 11.646942390373315 14.954935874496204
Cu 12.321343653723185 15.232291440719363 15.301152765167584
Cu 9.07769685668493 9.68248099278189 15.93162152501751
Cu 13.065569016417143 11.597501893955215 17.192432325107802
Cu 14.44745708984205 16.130021113616632 15.9350772369551
Cu 13.69281823091497 13.944322351785122 16.816002382365443
Cu 11.203599540351238 13.308910544275696 16.719879727643125
