46
Energy = -131.64918863 eV
Cu 20.02325760328424 13.17371332893219 15.413100099763978
Cu 17.512499362098954 15.072586169988165 20.549404363998182
Cu 18.319663402273243 20.528352938674573 18.318706256314982
Cu 16.29291118989022 21.781628679613213 15.535051804889063
Cu 18.385061010262284 19.495131339296552 20.53798264635273
Cu 16.024740876438873 16.587909042514752 19.271134126514404
Cu 19.869414993191604 19.343263196789337 16.623655694872767
Cu 17.826573623448176 18.138121515098064 18.48289577644631
Cu 13.848165061483943 21.654370374512652 16.062363158250836
Cu 17.253903742552186 19.7330193268815 16.289300244236163
Cu 18.36424264533496 16.757539407083893 13.690734362290277
Cu 19.284210704948034 15.089863916609245 18.936638049899674
Cu 18.848765797527815 21.430924645995503 15.788589030768374
Cu 20.244055014019864 15.206936678898499 14.010603260657675
Cu 16.09885373930093 16.067900957056825 15.035515988126454
Cu 17.518727230297976 22.648474867859466 17.45317528220425
Cu 20.45070437573912 17.39711624642988 15.128893705479436
Cu 18.246174543534227 17.470037835080213 16.024124042576876
Cu 16.519975926328694 18.289256675641326 14.298544883149535
Cu 17.29118858084523 17.397562513292005 21.109398610994194
Cu 20.17595423867152 16.86217631978569 24.07674904154579
Cu 19.029755146217013 18.21711543028656 22.534388744275574
Cu 19.56423537274874 17.23740560504837 20.220384269925027
Cu 20.40552253585575 19.312426728683985 19.074323944253642
Cu 12.830205588581823 16.990201272089585 17.205701017962866
Cu 17.366511692505526 15.76505171164845 17.34921545207303
Cu 12.931086658367287 19.322082036295473 16.391373540872053
Cu 16.34314428193265 14.104166088921888 18.68097274503433
Cu 19.85335429776107 15.338703029505796 16.432268468510966
Cu 14.135659451702365 17.504648773095113 15.248778435480377
Cu 15.310781619786292 23.39802494254421 16.952437755158673
Cu 18.257842877996044 13.473950930914091 17.16539266339213
Cu 15.93485010169035 13.95408406979959 16.204706874819635
Cu 14.820820992833173 15.712456493236061 17.418007207225383
Cu 15.83872584702208 17.904858801235438 16.970176149892485
Cu 20.08836125549017 17.22793560919708 17.815836496688327
Cu 19.810377226096556 21.48208099176842 20.08334194202637
Cu 20.640216469012437 19.219454941589284 23.92110266281391
Cu 18.79041597414708 19.257848906886093 14.398543946046665
Cu 20.653828129044914 13.48105869133997 17.77362642552203
Cu 14.995860430621876 19.74191505762456 15.321767533956699
Cu 18.04352570592043 14.584735202469881 14.925712183766146
Cu 20.57394367765374 19.766231597023676 21.573289642226843
Cu 13.794214429595792 15.12214582724872 15.384621474317235
Cu 20.407823607494393 21.485899403451874 17.716523815564624
Cu 19.09543185151788 15.825182419279 22.156904464225743
