44
Energy = -131.04705682 eV
Cu 15.145914419316458 10.100790238642416 9.770867815482061
Cu 14.512369481806303 8.721873330974287 7.8085007986439425
Cu 13.670592596342168 11.120747817216317 7.925714359654389
Cu 14.462344768457168 7.709246408868012 10.005387855069719
Cu 13.391786935012089 11.685873295360787 10.390810847717862
Cu 13.653544242211332 9.41209424052586 11.719502982266144
Cu 12.273585188143418 13.090519006276645 8.751754370928822
Cu 12.412353066903714 9.21486655369008 6.760858483603915
Cu 12.808710578277461 9.45731298871562 9.467678542152095
Cu 11.332263663907588 11.426677157808841 7.216258867106148
Cu 12.373246655880662 7.315011346669204 8.48706898564849
Cu 11.892419141224273 11.100402788708625 12.163891562981206
Cu 12.336491993570519 7.319041453254884 11.08559162963917
Cu 10.955840756607593 11.26343089587321 9.728999497179077
Cu 9.905943291714141 13.333083084786965 8.26576863763281
Cu 11.773241334413127 8.750317844615115 13.204359780702205
Cu 10.530712176692818 13.3805577893915 10.757549129335283
Cu 10.175896116866285 7.236637727495805 7.173101629081027
Cu 10.636902524550706 9.234795685831465 8.36657684612447
Cu 10.04707842546297 9.562932712376064 6.051868827978222
Cu 10.81183098360694 9.136584803223437 10.99075872076178
Cu 10.108140274797902 7.148311435380517 9.697841245778996
Cu 8.925997592507436 11.164511478958936 7.5689194496609336
Cu 10.121937130515805 7.095889558157301 12.247198551961164
Cu 10.472791165872971 12.831810379294074 13.144415717490723
Cu 10.929034691781984 10.784136179304067 14.366931194822051
Cu 8.54067295775591 12.129034406308188 9.8811990352654
Cu 8.351208751921602 14.490829804599505 9.893590141579072
Cu 8.19412549502818 8.778437054200669 7.543397829910336
Cu 8.140572206479963 6.483842116655607 8.379800606087377
Cu 8.80134329806987 9.780161246536212 9.768303078171899
Cu 8.133461266388855 6.311346960680918 10.81754713766233
Cu 7.3547240084825924 13.105058430803158 8.063043217308916
Cu 9.40122702925836 10.92404283213775 11.933960929827828
Cu 8.285780772743141 13.204381940604677 12.066023654187658
Cu 9.392311399329351 9.048763762127566 13.798044721648353
Cu 8.237808613069221 8.52035053434785 11.753675791083737
Cu 6.799358263625667 10.709080816014364 8.68645410674989
Cu 8.548511387833248 11.588472630661906 14.092702872718606
Cu 6.346045783959799 12.924019099406774 10.477937958164224
Cu 6.961616188904513 8.255422482196792 9.642269812409861
Cu 6.899472093792132 10.567480974616117 11.131059754308303
Cu 7.079875809224072 9.837925601201368 13.444832338042884
Cu 6.300806066091937 12.112148549515224 12.89339755924464
