41
Energy = -120.92315961 eV
Cu 10.373340795047673 14.89247635212447 11.36006550143801
Cu 8.398127423273577 13.308405431498596 11.251018945530937
Cu 11.961013292487008 14.815969064924188 13.223276946037885
Cu 9.907424212053197 13.314415124792466 13.268787670390516
Cu 11.955933812146341 12.404607553564501 14.369251462060257
Cu 8.99050649688617 14.717020553666833 9.280715095619934
Cu 7.581907107106393 11.001782353165517 10.85824644327159
Cu 9.612758287653573 10.626285952719622 9.397424908875406
Cu 9.875224862532125 11.381664847673017 11.769033243418905
Cu 12.569318462583729 14.456544097527518 10.25906212078871
Cu 10.03092077229529 10.864333633766147 14.085796848038942
Cu 8.539106365445148 9.466606264605058 12.554314634031678
Cu 13.855307156083107 13.897261492054469 14.504601656981103
Cu 8.078670714149021 12.494011988332808 8.891206186820424
Cu 10.498702032854261 12.94561713380151 9.897628863511942
Cu 14.074328930014499 14.204314695012807 12.149579649968121
Cu 11.97559245994233 12.784266634475955 11.957326747643025
Cu 7.325086643884635 10.197614561991129 8.521582337047818
Cu 10.590774285368667 8.46358354788233 13.53993701671861
Cu 11.169136270670053 14.580749950114487 8.253476968450423
Cu 8.170979202377815 8.630199607564343 10.207863123236269
Cu 10.217149720379377 12.31878918622727 7.542145652213489
Cu 11.930705730909825 10.928958367011436 10.350960670349668
Cu 12.566877492685025 12.563979286114538 8.503235953586191
Cu 9.10711395501263 7.099865429181345 11.909725517576055
Cu 14.046094117140203 11.868912854270937 13.053836170356423
Cu 14.029467068323166 12.361282131829414 10.54193456424775
Cu 10.530289116623111 9.022381005190535 11.132207252959494
Cu 12.171133066405412 10.292785463457658 13.052161043215955
Cu 11.147850955730442 6.147899479399265 12.80838214316138
Cu 9.320462470114881 9.998287646408025 7.100236298195884
Cu 8.047378397024325 7.945477214016062 7.832931084488331
Cu 11.651828562642029 10.268202807786649 7.918991504880595
Cu 10.291323319161204 8.276183426174695 8.690851240159946
Cu 8.875354740519063 6.359744434002609 9.52813294873275
Cu 13.893114475426827 10.517618559066177 8.961068223571576
Cu 12.55697086289679 8.606643828113615 9.676391753807156
Cu 9.786263006462661 4.843745722295365 11.225262703083333
Cu 13.96735210478968 9.977205889180475 11.400086870781935
Cu 11.159869397880993 6.703718211617242 10.44645354445795
Cu 12.589711557919408 8.043598478181925 12.113873743397843
