43
Energy = -127.61160315 eV
Cu 9.99738269989227 4.209453873386374 5.994899784591837
Cu 8.2059268670785 5.502376666869368 4.660872676629119
Cu 7.536173272768332 4.179876724303507 6.751475751790985
Cu 9.3377787526364 4.433919623289056 8.55409041195179
Cu 10.517733903940234 6.63221126827127 5.119369920312563
Cu 8.877020918882032 6.079897229329073 6.8107361916691085
Cu 11.298214829026524 5.847619812163959 7.421135897421685
Cu 6.507782375308979 6.558845947492403 6.389200296931197
Cu 7.1929492033135105 5.840766861711125 8.82785103884711
Cu 8.336585183467756 8.034922261980643 5.275706149580196
Cu 11.195504907934538 5.438909626642259 9.952110182086246
Cu 12.376973759274298 7.916772502199891 6.29347745129311
Cu 9.574746350273678 6.838418457926621 9.029603676458859
Cu 10.234810896102399 8.154654303718003 7.084511208826358
Cu 8.645623052743444 5.66888552757761 10.848926503809023
Cu 10.387615808696813 9.663680127293686 5.219260586599261
Cu 7.865765090332639 7.957639002391933 7.812895837217432
Cu 11.821303594925057 7.830527419735749 8.916342500463253
Cu 5.6432799712551045 7.920689316698628 8.769158439982096
Cu 6.854840560607283 11.62478216342004 6.835199871260147
Cu 9.5230822674048 12.015168795039326 6.0951031726032205
Cu 8.558063780362676 11.695868065736452 12.754908563167614
Cu 8.091445589171698 13.116873030525593 10.752620955249313
Cu 6.203298978348519 11.799415039359662 11.91823604099457
Cu 7.102428110857286 9.473132479810172 12.540142290336936
Cu 10.16050703195656 11.643689825637997 10.63389676599114
Cu 7.932137987398825 10.756717305401205 10.677674607680148
Cu 9.622570229186286 9.565297933269521 12.010069687780101
Cu 6.233641512479768 12.09811502253132 9.410788068776874
Cu 5.598738424119652 9.686774640849798 10.565655546431293
Cu 8.771730480441411 11.911700174993065 8.54676849302261
Cu 8.420248216287746 7.423224533032171 12.56773469729994
Cu 11.652499127470298 9.70237167686227 10.489931846797157
Cu 7.859476088072518 8.193255565089078 10.342713101642735
Cu 9.6057043370831 9.457531722391439 9.276076355153496
Cu 6.078078608925986 7.233437275200169 11.388390927915127
Cu 11.04084830661151 10.513315634105348 7.675890948877589
Cu 7.049602551817615 9.990176854701694 8.638913459986712
Cu 10.50314599416878 7.528511481921484 11.13388621050883
Cu 4.824945924148784 10.355125388231999 8.115460010788137
Cu 6.29553250423298 9.172577347967254 6.36604078488849
Cu 7.914995911929504 10.480614178732827 4.784178080659986
Cu 8.724122971030468 10.027114244175301 6.92295193769262
