44
Energy = -131.1519625 eV
Cu 11.008338516515359 11.52800533665702 6.568809225028883
Cu 12.443373360433984 9.501878697656604 6.93905168539302
Cu 12.904472984950663 11.521048889110315 8.193169110880689
Cu 10.841362254362902 14.93490409406103 10.313876802980582
Cu 8.884756484118137 10.269383344087231 6.0294908478962865
Cu 8.824192296871647 12.1763325127172 7.607366658505611
Cu 13.057859233311278 9.159298973506516 9.28390064207801
Cu 12.788016333855385 13.269245882695209 10.156326707243052
Cu 10.880706008975526 12.929940385572941 8.677529902007759
Cu 14.068000007089264 11.13633303897332 10.349630389580085
Cu 10.367338358057419 8.402878180743423 6.282564840446894
Cu 10.331180214556769 9.990344776522448 8.261004302338897
Cu 8.805102818647647 13.836265381691312 9.601703703928028
Cu 12.228845842203718 14.46437633571533 12.243067587682534
Cu 11.682491763389447 7.467790398981657 8.191804516913805
Cu 11.635398643395277 11.017141035425952 10.195778591637067
Cu 7.688049140738695 10.031010437325698 8.067638019460935
Cu 9.151535059748246 11.465226946313527 9.905303939829755
Cu 10.56584279567005 12.8115419984235 11.438509845797743
Cu 7.891703494792317 7.931891557596268 6.494489920965789
Cu 9.925544712594798 6.102379920407166 6.912228293887983
Cu 12.867382627990448 12.023904783179916 12.292573733871777
Cu 9.673335674260112 14.454987813534292 12.806168731262023
Cu 7.864313998462712 5.864049807922537 8.167921416890175
Cu 11.457651616090638 13.042146129186536 13.995115746233209
Cu 10.703744117599468 8.508351435838206 10.339216267937061
Cu 10.24875773823434 5.819442974602044 9.362492250128412
Cu 12.719982752487548 9.480034550275972 11.764946938003828
Cu 6.767345198075783 10.987083109375689 10.230826144158204
Cu 8.016995069408257 12.754084606878228 11.6963457042489
Cu 10.108887994217257 10.311376362271403 11.95714519242979
Cu 9.206590496149252 7.823059654913502 8.444258005520368
Cu 12.479365594444747 7.092258038731225 10.726329726078514
Cu 11.622525094471492 10.594599453561408 13.831029617385166
Cu 8.406578323070143 9.209858883324697 10.275332251614843
Cu 6.7169968178966695 7.922825138791328 8.868462730988796
Cu 9.324236500576413 12.026243048872661 13.58769983015796
Cu 11.103216565130177 8.218052609189552 13.039768301379072
Cu 10.303977516763727 6.37818054529707 11.711571834889678
Cu 6.434560301638528 8.495867008280058 11.281529077531115
Cu 7.692227724842678 10.401976534863687 12.44771650487805
Cu 8.162127585633181 6.708093867930651 10.485362836444555
Cu 9.376627168240368 9.62531113668869 14.194674065513489
Cu 8.68585200755175 8.08278690428867 12.458431341616414
