49
Energy = -146.90243413 eV
Cu 14.33728294170436 7.408697636162055 8.895604874097044
Cu 11.425499219690495 6.201220152348128 5.980819299886765
Cu 7.338097091164059 11.16342695420823 6.249365495207755
Cu 11.649384573068579 9.902337947761934 10.742205237525319
Cu 11.688296287959496 10.7337774356264 6.5596577062788155
Cu 6.557748864457935 5.902764724333619 10.216814308983558
Cu 8.642755723017691 12.830242572680074 12.185112878076513
Cu 6.718537553530099 10.091567418021087 8.822435571055758
Cu 13.639447524799406 8.33970176680416 11.155177872739786
Cu 8.947120222481816 8.140200964125812 12.683892763259932
Cu 7.90222051441184 7.770016130822346 8.76329758094244
Cu 7.172834794351076 10.117667625226272 12.898207318021436
Cu 13.284747018378384 9.763617463769105 8.847704233070727
Cu 11.24502469191684 7.159464306570622 11.840577816473079
Cu 6.304083122835808 6.263736503738313 7.817969449417164
Cu 7.663604017817951 9.01516648004137 10.807027261434033
Cu 10.516127682054943 4.59390318619963 7.640880811292764
Cu 5.592138053624907 8.03479924384748 9.567762891876137
Cu 10.904548239640167 12.217356733484877 11.254589213804424
Cu 5.4121249424346045 9.939034179408456 11.153594882134467
Cu 10.47646052609609 8.486381620719499 5.821338327819976
Cu 7.227581930356274 12.449038189118008 8.363322298196916
Cu 8.51444058218775 5.414970167350386 8.780755679704557
Cu 6.287751186835988 8.618143032905405 6.943738948079429
Cu 11.44708346389716 11.67560772742761 8.943411454114933
Cu 8.325118813763531 7.051795986803947 6.457268172965687
Cu 12.089138736055801 7.6852613870604705 9.556028905536042
Cu 8.725099708577496 6.288262417525591 11.170790141239747
Cu 9.844967273307102 8.230940217365463 10.220446526452141
Cu 10.938632507602529 9.370327368285249 8.277703038847005
Cu 10.771174580827111 5.552937983473536 9.945161223212558
Cu 5.230292261825269 11.984190878134187 9.7403257019843
Cu 9.584676887895514 10.741601501956552 5.261102071997325
Cu 12.598828584232045 5.74234432738747 8.159741726525139
Cu 8.73981952494652 9.44856167679943 7.230924444587966
Cu 9.191455691241103 10.521423550439177 9.455269585967669
Cu 9.466046212483336 10.409418795954545 11.930542997961657
Cu 13.1754286588558 5.910230919245123 10.65329635465071
Cu 7.4039008947777845 11.447192350292266 10.764793159774817
Cu 5.4940865374624845 10.047279461847161 5.162187583036003
Cu 7.805990504193437 9.032742351834946 5.008600030251806
Cu 9.495176162258543 11.870178601560198 7.412783036581235
Cu 10.270344517574644 7.0185568443166515 7.93561387208699
Cu 9.223424345647423 12.98587136712509 9.702098180712483
Cu 12.636243280462958 8.04892125615237 7.0906424166926865
Cu 6.927336325771539 13.741164423985138 10.529796793243259
Cu 6.466755526022679 7.517064132992356 12.090162443230366
Cu 5.192419460131629 11.17707668997619 7.340255999700745
Cu 5.769006416112872 12.2041195275302 12.229505600011564
