45
Energy = -133.6634933 eV
Cu 7.906504147919724 4.240813055480854 8.034331147441534
Cu 8.634169530971047 6.348408156663582 11.923690519488932
Cu 12.666707810844274 7.323792042787218 11.68426624730491
Cu 6.9688594535633674 5.4327146733733995 10.161289021903128
Cu 6.690071290193745 9.834139087388088 6.558177429233494
Cu 4.875940071554846 9.294010879502133 10.111131601018196
Cu 11.069040867536502 9.747712876899707 11.688046158194336
Cu 7.332116996300338 12.133033605669851 6.937373706537343
Cu 8.447579273154128 8.097395388990202 6.677084952977108
Cu 6.482848202435073 11.076908590642558 4.542306421378518
Cu 12.409394348177768 9.492845915606747 7.360481616170515
Cu 9.57179928487508 12.671800527791374 7.82454547483393
Cu 11.634137721393024 6.265293461768852 9.277852433482533
Cu 5.156131629043961 7.107003436980609 9.003712797805928
Cu 10.509005118123266 7.63568364954806 10.860357969047657
Cu 10.416873175351583 8.359968380238886 8.344679454552914
Cu 8.756561726494057 10.45829298034128 5.275947440489753
Cu 8.653335586793439 8.804929139784361 12.268744562143498
Cu 6.934481056046944 10.256341125784365 11.001423625754223
Cu 9.677136692461971 6.002587050377891 7.570372867080352
Cu 4.582383024860079 9.239598250729516 7.6593531969768724
Cu 9.45185914316659 5.039977999599905 9.85231341791525
Cu 11.818359583649118 7.071697623803019 6.853160428423659
Cu 5.551472331405373 5.051075938006199 7.338355822272131
Cu 11.018112579398812 10.797253725944255 8.9905808876425
Cu 11.028994362422031 5.459453157362192 11.692415498579805
Cu 8.112987953438672 11.837771938762863 9.523497142122787
Cu 7.211176105371885 6.483400832170122 8.022051699495686
Cu 7.667161990612025 5.834254783769137 5.808587961463588
Cu 4.817578934549987 9.334151637756364 5.134682242110571
Cu 10.601091907114537 7.4768718988064355 13.190639035846043
Cu 9.900353249658668 6.702733957181497 5.238539194901399
Cu 6.650216612276425 7.760381162644137 11.057165634858196
Cu 5.895260643911083 11.127699334170499 8.752677486392669
Cu 6.956094758824191 8.895166177468731 8.777787524594856
Cu 10.616356427522685 8.946308480508192 5.776856604959523
Cu 12.399788266104512 8.760688509452644 9.708239268751948
Cu 10.900779665982894 11.206788255275464 6.46412087702958
Cu 8.902535363010724 10.323373936705885 7.692181581119419
Cu 4.931273246037856 11.46519172538705 6.455319153390972
Cu 9.051676846138681 11.249608707929381 11.823576292809705
Cu 8.60039230382052 7.304837819068066 9.619227459245804
Cu 7.184464342361627 8.517839783668768 4.580928970355061
Cu 5.763161096957951 7.4369373218222 6.387858915254721
Cu 9.155701239884143 9.655188978102501 10.05599421836258
