40
Energy = -117.86613595 eV
Cu 12.943409357633213 8.513325160924884 10.262639858312038
Cu 11.407128669111104 12.55275746997533 9.058508830075755
Cu 7.226943314927057 12.404324562632707 10.318921884359819
Cu 13.80137588521207 15.108659001165488 11.626566905970662
Cu 13.239510399915876 10.907008943836997 14.049509579986523
Cu 8.857257831483654 9.088950623550488 10.273900032500197
Cu 7.031027935889964 10.265484640423866 11.514918942268977
Cu 9.808206930277427 15.66535721356335 11.653819844071132
Cu 10.80972663791503 8.184969273423507 9.034559009655652
Cu 11.702699410837068 14.69170544303683 10.405394023091574
Cu 9.489731849584727 13.645184662641505 12.946937282664686
Cu 12.908947733825668 8.66676639188625 7.848167527481934
Cu 11.41747368295485 12.566031127949982 11.604461962579308
Cu 8.918639895369184 9.199181889351848 12.731926894144683
Cu 9.177758151319734 11.434250923579636 8.972223665766899
Cu 7.640850475334012 14.512750133398363 11.574749439620236
Cu 11.434650466057095 12.61622340866882 14.158546919679827
Cu 15.020925180844026 9.161395110717395 11.494029941796128
Cu 13.554330986091161 13.047031355695527 10.22815725128787
Cu 15.31793702408325 11.308172193092796 12.741102042700097
Cu 11.116506869279393 10.377608721688219 12.832075962302751
Cu 9.191591435355274 11.404599158022696 11.551149782421117
Cu 13.24531741180339 10.84382600912522 11.53621907883037
Cu 11.721341473425532 14.740038449742851 12.891052736132172
Cu 10.807647079656759 8.12570179036357 11.514835488849192
Cu 9.47838294916095 13.610548975454767 10.248043281398694
Cu 7.322242653820786 12.409330608020591 12.766532109057584
Cu 13.573704493979449 13.089273221656583 12.938675495550365
Cu 11.112180762749585 10.35751849498773 10.303120527231338
Cu 12.918661902100887 8.657660086776525 12.722524056494706
Cu 15.572918639450938 13.412176994023536 11.538102309056082
Cu 11.100471690712189 10.345987348921554 7.840456758386673
Cu 13.256591119985144 10.867453066886029 8.959239747877056
Cu 9.229347087905163 11.458410863069519 14.06043787875582
Cu 8.91034066958924 9.208298627060495 7.861452527178363
Cu 7.048944535276712 10.252716239768482 9.084580829193445
Cu 14.992903440684485 9.153810919365828 9.060191961929824
Cu 15.403284224367763 11.270259583722773 10.294568879880034
Cu 11.1377015619934 10.439852902004041 15.260176996674263
Cu 10.822423270821107 8.231911270022293 13.960455036190341
