43
Energy = -127.17333592 eV
Cu 11.455600114617587 7.789465023223554 14.654354048745038
Cu 13.360251727852335 9.002487805730059 13.689079549411318
Cu 13.191752456840307 6.657562277209516 12.831489834703355
Cu 11.224723359620778 10.292463507076084 14.051272583509409
Cu 9.247184861107046 8.890454750266706 14.077050514971528
Cu 13.892874382663729 8.617891573725535 11.352778959114444
Cu 10.899995240284936 5.932076143067834 11.972352581065001
Cu 11.496911919416052 8.200820624438467 12.352248235543275
Cu 12.506679077719326 10.607934913849162 11.924355701142657
Cu 8.865632230666492 11.350068735884344 13.664194401412662
Cu 12.568413213106533 6.8297520069219075 10.326310344350823
Cu 7.6065895382326 9.71992107944446 12.288358347773357
Cu 11.598977951050363 9.064600870255864 10.095615527156587
Cu 9.04382107221642 7.6541672189865 11.983883740516927
Cu 14.145465764840104 10.78251562667452 10.18698913598677
Cu 10.004186311995204 9.999870378707225 11.97172004128142
Cu 13.667769863329127 8.777878154665226 8.850826862753356
Cu 10.112728042743116 7.055164231070052 9.894771282039827
Cu 10.824818388794029 12.330720562865183 12.368425698652043
Cu 8.813356812403688 9.216405067232472 9.954671329594046
Cu 10.645515966412253 11.274575144299837 10.008523202807858
Cu 12.471557859995698 12.702789575213455 10.37141426488497
Cu 8.814471701254853 13.620162381259004 12.780650137799105
Cu 6.625482567827732 12.174740659909538 12.23033816480564
Cu 8.55373932550166 11.865944743243949 11.060997419656072
Cu 11.61655661969308 7.599599382630491 8.025703952005241
Cu 12.685291994078742 9.431528928289861 6.7135518245730275
Cu 10.504394083239015 9.835880310243313 8.041726303638194
Cu 7.078634415514746 9.362276704659063 8.06214530482586
Cu 12.610901918611123 11.177800210871427 8.356251572653074
Cu 8.56454414701177 11.336870522825931 8.638096452564708
Cu 9.022500602347883 7.931937226004241 7.774538070856916
Cu 6.516088518334257 12.709006848149055 9.559690235505343
Cu 6.6566586184104075 10.444014625993784 10.195333559577797
Cu 10.120709974115249 13.723873130810006 10.404230089493737
Cu 10.51725421377829 8.666999783415823 5.93716428977768
Cu 7.735940686579728 14.314076390579302 10.794366197200699
Cu 10.724649953777819 12.796924148386847 8.139016608905798
Cu 10.982825382767427 11.214535200569678 6.177344592846299
Cu 6.718803156236038 11.772538853947257 7.278658868949969
Cu 8.615545943207096 10.144256550799184 6.366039710706518
Cu 8.43419819754195 13.771172324968463 8.48905484603868
Cu 8.932521784584504 12.558726176274565 6.426933203511517
