46
Energy = -137.29884295 eV
Cu 8.0559541366207 6.663370160533963 4.914515988714528
Cu 6.709477518864035 8.550968590948141 6.137142732691797
Cu 10.090219622498903 6.047128827157558 6.42035110422241
Cu 10.656265428387535 10.314066634758184 6.080606095478196
Cu 8.139356511069014 10.562346439962306 6.850863882047757
Cu 11.559698032522428 7.950874696001036 6.971511141930472
Cu 9.186138689046922 8.377065763656597 6.239238212724988
Cu 7.567110436851128 6.442514541575547 7.235139689772857
Cu 5.963498437600228 10.205080818397027 8.255810379195694
Cu 8.306587681722208 4.482048301419529 6.062140062725982
Cu 12.093250053897593 12.24505570527796 6.36172568808714
Cu 9.68098752459129 12.39102281565775 6.98084942719106
Cu 12.635734335628026 10.144102152713597 7.554237905221892
Cu 10.228076803365154 9.495144095005166 8.328014745150826
Cu 11.626617209588852 5.983827106093644 8.57869046821754
Cu 7.254081708668096 12.436074621951198 8.274993585931927
Cu 7.751113649842378 8.671174429309822 8.305846746706896
Cu 11.448634572727302 11.974929645367917 8.658696463137467
Cu 9.055899720153974 11.384256325060376 9.26499507833149
Cu 7.606627455146378 6.554809480117724 9.720905835636616
Cu 9.628857318192894 7.19045453292011 8.553958630112293
Cu 5.596428182549632 7.66886239355942 8.258652663619324
Cu 12.482289113189971 8.373868286028141 9.280239909055513
Cu 10.949608703483635 10.317178155695801 10.548319385255288
Cu 8.655303762158733 9.171901069909104 10.423695306920274
Cu 10.58602040716666 7.855392190316542 10.67196675076681
Cu 13.194690558266146 10.632382550490483 9.926799319460663
Cu 10.648896155008828 12.77763648516665 10.847701043619653
Cu 9.92240473910113 5.581808159377917 10.58944233037004
Cu 7.959131610459671 13.202060342589608 10.738646034230742
Cu 9.493829359998374 13.814448641499158 8.916863922412468
Cu 12.466113566830158 6.421947507904246 10.884575012203795
Cu 6.808073758250041 11.022173078585576 10.441707049777586
Cu 9.142204230555256 4.828926154101114 8.378497716058693
Cu 9.602736847474965 14.946107362390272 11.082780634273819
Cu 6.295650845398431 8.605705769532426 10.409868635011273
Cu 12.382738938630254 8.88229687750418 11.879847312468891
Cu 8.968141691535521 11.172930810562416 11.746009440087231
Cu 8.448599447315063 7.255571581085115 11.934359489330019
Cu 11.150756743923369 11.222447330588736 12.841956819052296
Cu 9.301704183400968 13.230376082736798 12.907135673915203
Cu 10.812226356978659 6.729428420012405 12.727146855971036
Cu 7.0358330638719675 12.043869231825422 12.810322861010453
Cu 7.383345349333287 9.515882961165321 12.54871732923338
Cu 9.938565281283477 9.0775371619193 12.777338184800252
Cu 8.94773385963656 11.000159314356909 14.094390060652088
