49
Energy = -146.79932901 eV
Cu 9.09063105622686 6.9028944445799825 13.464845652719108
Cu 11.597554320790792 6.291095547306191 12.776168959355335
Cu 7.730865835824509 6.783184473792346 11.093337984056895
Cu 9.802105819791098 5.633293005174767 11.327642596459905
Cu 7.306982633566778 8.951591057663636 12.157201625397777
Cu 11.089688403687719 8.34503584053153 14.079446777684812
Cu 8.965297310686429 9.4482115671452 13.844717224764278
Cu 13.509717307026559 7.791886438157857 13.75875766754551
Cu 9.7069687645828 8.112002246147112 11.608830578793537
Cu 13.736415947874553 6.713904827287476 11.438973820973173
Cu 9.31355439212173 7.5259171206394155 9.102953092609631
Cu 11.586159577038055 6.8415439010272125 10.148459873709673
Cu 12.208038620166981 8.467514787115727 11.929796772181115
Cu 8.767857814958044 10.302284146422348 10.646079943351362
Cu 7.786952410633888 11.335603957413657 12.780461805161663
Cu 7.112617880596647 8.679257168134518 9.733570866225998
Cu 12.701445331818197 10.247010482930639 13.566057012683544
Cu 10.611825676105232 10.391821935681278 12.288940183168252
Cu 9.717145083421986 8.198101745601456 6.503142763794336
Cu 14.565175410020078 9.092695016670948 11.814872617620923
Cu 6.443772573380976 10.894259058178525 10.71874581627362
Cu 7.541751615215783 8.403397510810112 7.38891729436535
Cu 10.995909012216442 9.342349446392594 10.036534953724713
Cu 11.63155033782544 8.270386844490293 7.986927623311449
Cu 13.41467696654101 8.48857897430035 9.678824704180615
Cu 9.929195397864708 11.791561187750146 14.046497370844678
Cu 7.039340803725609 10.633959418456119 8.241223154202043
Cu 9.477355999567846 9.900491796068163 8.286646369023737
Cu 5.8690527859526815 12.585106162374421 9.026663953537868
Cu 8.489853622787471 10.532128449030862 6.217053592407574
Cu 12.822981501593313 10.67460526883728 11.124717335269935
Cu 6.985178337745413 13.284287830997553 11.286914823128372
Cu 10.680791781896854 11.846194739722481 10.029332252879485
Cu 11.814918326256848 12.542699970995287 12.311715109219383
Cu 9.406575420604252 12.862848722014705 11.875571879100066
Cu 13.732311062107275 9.535030066846291 7.366484327839556
Cu 12.178185216786256 10.851235456729416 8.497249721407094
Cu 11.169273888237608 10.165123530443676 6.406671961918472
Cu 8.328448130501872 12.421212155322015 9.499082070229296
Cu 14.602005235051989 10.618346007638227 9.551481563682332
Cu 7.664676881702754 12.800034640020199 7.19163928820889
Cu 9.994986626590473 12.113387318574825 7.409251481960298
Cu 7.2060314145583675 14.561748284812586 8.982868227240175
Cu 13.17028719253105 12.743941699483177 10.05210457722681
Cu 8.811882344417315 14.918335960087713 10.719754933850076
Cu 11.868566566894296 13.400215400806468 8.159567718923482
Cu 11.134669054897136 14.202164185119095 10.47203313708002
Cu 14.00792018848399 12.132944266000928 7.736659002494091
Cu 9.59902212715282 14.29239622903209 8.47499103204457
