43
Energy = -126.69457509 eV
Cu 5.2995224939473236 5.408571342885514 6.692301171684528
Cu 7.825694831597552 8.776446195514032 5.8094314065662465
Cu 5.2704298687666995 7.977610232903405 6.088121374287098
Cu 10.00750906098048 8.168060248536065 4.667123819551535
Cu 9.332472175420648 6.636511192304639 6.528522692872236
Cu 12.01291067353317 9.6570366936137 5.4234179052878595
Cu 5.898861436723736 10.601270643029238 6.150120713604398
Cu 7.229420435427605 6.373124767442899 5.156548924261605
Cu 9.54922353386996 10.970193269947595 5.409412930735472
Cu 11.79839490613957 7.245067699468462 6.459349243708446
Cu 7.5161904027218664 12.402970853343655 5.965146092767685
Cu 6.929011810463876 6.836233215606833 7.413117267292839
Cu 8.25366521433694 10.743644345272447 7.48260185969735
Cu 7.829962730996308 4.614859854381797 7.281234999919236
Cu 6.316113943551642 9.151572316824167 7.924989777802358
Cu 10.229417623100723 9.1324649093483 6.787035213387429
Cu 11.298928866400948 11.226385376598744 7.217946518819803
Cu 8.537263781481608 8.41639176122509 8.188955734325015
Cu 4.113756392669275 9.747741039921596 7.818490024849032
Cu 12.367380572794996 9.11025598916946 8.082359603521352
Cu 10.708489829490107 5.097619069569095 8.18528029600227
Cu 10.665658757721587 7.475399132726096 8.588196960851322
Cu 12.755678038397487 6.681729253031111 8.9821489622647
Cu 10.209730254008997 10.06191375282425 9.208587932710367
Cu 6.124970191093804 11.452752661174127 8.681160341623238
Cu 9.45945907147596 12.79284975567978 7.362429143551871
Cu 8.634869253805503 12.064851783725908 9.654672452031132
Cu 8.678941563148152 6.107813961749011 8.972330692126722
Cu 4.744266483300698 7.273956578721603 8.574791119249836
Cu 7.683300539412694 9.931184888485985 9.817839881780802
Cu 8.60353306007068 4.0352975993414715 9.906290485106947
Cu 6.346765530935557 5.261093000830944 9.320148208840768
Cu 11.584353000780775 8.374394821147435 10.628492070872994
Cu 6.861520564138486 7.601962875747012 9.781719430095768
Cu 9.198534084667154 8.08818242503981 10.497291808104425
Cu 10.490902144498383 5.9870933042516254 10.626620838638624
Cu 5.27562256567288 9.432371158386948 10.192934310027917
Cu 6.789587610542287 11.305075587829032 11.407642717175946
Cu 9.22525621657539 10.236131600214488 11.632129190739143
Cu 7.954196328908135 6.097036451991637 11.388008699984988
Cu 5.176398314727035 6.823833137351375 11.101251595298354
Cu 7.246154646070984 8.645399232092277 11.952553387339522
Cu 9.65800954646216 7.66797437158101 12.68358055146936
