42
Energy = -124.79016976 eV
Cu 8.437344174431027 10.41904878628995 4.18065815193182
Cu 10.571004582344434 9.08716589626348 4.558978862787139
Cu 8.17294367972662 8.040204395752879 4.943516074844918
Cu 10.376295109223562 11.524089657044138 5.257866463407653
Cu 6.641448204179932 9.864324128222448 6.057457896742425
Cu 12.353662515792788 7.619800520373421 5.826257592653607
Cu 8.001886092893832 11.9565205113103 6.112507200297823
Cu 9.131503795899658 9.844982663999184 6.377571326757956
Cu 10.080328972305011 7.539185723880098 6.406050453692853
Cu 11.530290417720778 9.686604477152146 6.868333218616375
Cu 6.133215296766487 7.156571221452551 6.146704861333847
Cu 8.306740583234523 5.836148837553528 6.6683391995198456
Cu 7.886421847864161 8.107149021065256 7.381589381667068
Cu 10.656266643812632 5.43196068121845 7.334362842228032
Cu 5.51102390446214 8.795403073968574 7.971031511563645
Cu 5.673597785068742 11.471210849204347 7.951155522295636
Cu 10.088102562950239 11.568923061039769 7.755195534930465
Cu 7.706933757459983 10.501132816905276 8.41609487126783
Cu 8.029718120425809 12.90879182406324 8.296328627153853
Cu 9.650577814546356 9.18192394890493 8.933395914623986
Cu 11.751923373152744 7.613850262676275 8.210874086401203
Cu 8.748879232613287 4.58607714953488 8.970416352170423
Cu 5.2061412218191645 7.389796166542367 10.110439372292483
Cu 11.324995559555715 5.488102761112998 9.609119662831683
Cu 6.667869502841468 6.175681456855705 8.461150500921617
Cu 7.3211839978569575 8.31241320945762 9.664913612658937
Cu 9.364502891107824 6.802506024729514 9.009363801832079
Cu 7.473422774172909 6.044806033442645 10.78157881041524
Cu 9.426136498070893 11.637985872385624 10.063498402662203
Cu 6.879398940974259 12.09530769332327 10.199721099197022
Cu 11.676347574484089 10.176891562207508 9.369244977891412
Cu 6.634564644302113 8.197827417535674 12.025585456681648
Cu 9.841008517897839 5.720342489849492 11.456587412971706
Cu 5.615493244600747 9.9671728108713 10.120821016214167
Cu 11.310130990239212 7.81893706546941 10.562017917092692
Cu 8.992714107972278 11.749677078586082 12.484697754155345
Cu 9.013546841816805 7.976183907314423 11.269740161277971
Cu 7.826322969129788 10.168454252201597 11.202151902996311
Cu 8.31910773795496 6.7419812945223825 13.17978167666496
Cu 10.423205832676034 9.956662946939371 11.57928248915332
Cu 10.619206122190333 7.644020452425381 12.973876090039418
Cu 8.686868775141189 9.256457208032224 13.314019146841472
