48
Energy = -143.30016211 eV
Cu 9.845166992477834 9.906372299694125 3.939317181645747
Cu 10.749767212111255 7.986548889300006 5.195090256261569
Cu 11.79489042004963 10.288193800248319 5.280235950883212
Cu 11.998810433584751 12.589236700043898 6.086660530173089
Cu 9.718333921736686 11.589232453334176 5.682258718444585
Cu 9.028312029169731 6.844753794734109 6.7183434053592785
Cu 6.61888986492449 7.7507599027072 6.735163768379119
Cu 8.513952089499922 9.289607647135576 5.907193518756151
Cu 10.424538862326287 8.74471136419805 7.422263990671963
Cu 13.664278346159708 10.89551457623087 6.940973782248243
Cu 7.669530150501755 12.569081012033974 7.047890661564854
Cu 12.750801821418888 8.605912135372627 6.705970770218396
Cu 11.459916633522562 10.875234458491681 7.74239129567049
Cu 11.431878240465672 6.521821530166818 7.315461782888075
Cu 10.170414197811134 13.026516242641724 7.685249220529913
Cu 5.865749988944507 8.114208041399536 9.124684205740685
Cu 9.7622587133008 5.110331094100091 8.407903794384055
Cu 6.5112755767781865 10.14902635678743 7.584332687459923
Cu 12.741327161250718 12.718970576455664 8.461283877506892
Cu 8.99833627394031 10.850431660939604 7.899996227746041
Cu 7.523630509046883 6.233134065893046 8.546956026648253
Cu 8.174256107917287 8.599896060072656 8.338066239060986
Cu 6.133083981591626 12.082997941189452 8.916534821583905
Cu 12.244315822272783 8.082503526877701 9.029347583940245
Cu 12.665759235898756 10.462286870138525 9.847403623071894
Cu 8.427944838845338 12.772691219762072 9.473713801191115
Cu 10.300693090481184 9.74964203599802 9.674364447435226
Cu 9.843434102845128 7.326725618445777 9.49211684808359
Cu 11.421513312174069 5.902061683509082 10.282612279589157
Cu 7.8240016250420465 10.354646187452586 10.037566227355647
Cu 8.639760109244179 5.411954852652361 10.58175788252453
Cu 10.81329413005612 12.1635387852806 9.950168032899084
Cu 6.732350727707712 12.199107998446324 11.256500242838548
Cu 5.468823254062113 10.179726778328202 10.414755406631913
Cu 6.139406703503477 5.976033251741853 10.521478657624396
Cu 11.642380814928773 8.330025691825796 11.327515070521942
Cu 7.758336371259666 7.854784638043073 10.746114311734488
Cu 9.102792115101858 11.771752283158238 11.655783037386431
Cu 9.375377768310829 9.27516333477781 11.802746743171808
Cu 11.314952972181207 10.724066680139636 12.005768065793202
Cu 9.822274503855112 6.842512787071904 12.146800156409835
Cu 7.090817506596332 10.005980473600497 12.382767133188194
Cu 7.396666373470619 6.2426082974667825 12.607325951814506
Cu 5.579179282578036 8.101406879276402 11.787601573396158
Cu 5.003603919930634 5.921480148087162 12.617728294065968
Cu 10.796104596703703 8.664975295046768 13.648262072130029
Cu 8.295793899391136 8.206875981266624 13.657110805218712
Cu 9.174814728971695 10.558747432376936 13.79226037209874
