48
Energy = -142.86309756 eV
Cu 9.137082609922562 9.544310101451433 4.85769230178193
Cu 8.537082793209095 11.440066401913189 6.44330625294293
Cu 11.62190742856975 8.49842657535151 5.832662820654277
Cu 11.005072425695587 11.000651763825028 6.084130301109955
Cu 9.606961803308923 7.121854053315187 5.8497138097955945
Cu 7.139768653502847 9.346605359023306 6.592698513583776
Cu 13.432261517125523 10.12109232027475 6.492140806729165
Cu 11.882647637833754 6.012727396099524 6.532217029202938
Cu 9.505655143272147 9.248355998342479 7.114158561019257
Cu 7.165117971813244 5.590776717601729 8.999095742434847
Cu 10.1707372082416 13.202575781958839 7.2604114212014625
Cu 13.358208413219844 7.790646986918473 7.682907552266399
Cu 7.812886942436602 9.967461087483573 8.899898225369919
Cu 8.057816770114783 12.503292862765237 8.692716169301198
Cu 11.745962123209987 9.55146587006682 8.019380542429325
Cu 12.465576339421109 11.887392935429926 8.003598390788257
Cu 10.803040677416547 7.3748813552709365 8.056808305976306
Cu 9.602446657931255 5.317572149197282 7.664115094372418
Cu 6.011450507890658 7.966738294820138 8.40844369090146
Cu 10.011313049913657 11.201460854435522 8.438363890403565
Cu 8.29331660190596 7.382039669185439 7.939337549808289
Cu 13.925092457255033 9.942264548716347 9.027254764989488
Cu 5.468802823354663 10.494609263599921 8.631378198024704
Cu 12.397129744756317 6.021348020869059 9.163232954562734
Cu 9.900256903597715 6.226481173023939 9.954358655302427
Cu 3.935382045422689 8.68174865227583 9.662281674110353
Cu 13.483594058428105 12.017484325282455 10.353177782477482
Cu 7.813934143231041 7.447400227700009 10.327901754996589
Cu 11.640420418727398 10.58549414891021 10.134226578057222
Cu 9.831843630337737 8.91987708394658 9.731628794280198
Cu 5.430613365535493 6.7904495580467765 10.524612914918604
Cu 9.370932969619176 11.557016766736819 10.761068934225156
Cu 11.093375006377142 13.013512861855192 9.70385991095733
Cu 6.114542480967935 9.143659319322262 10.552207850668445
Cu 11.73051863501927 7.825277629828741 10.754416769817995
Cu 14.044421326281034 7.71300249677571 10.057579844228737
Cu 6.903382466898124 11.49763645922643 10.685174871601552
Cu 11.511898624612058 12.028674330421397 12.005086484174772
Cu 4.416714297486375 10.782816272778929 10.90306824425711
Cu 13.308149973842937 9.642612452014319 11.488580286215194
Cu 9.51209450539405 7.494265871040097 12.047748843128552
Cu 8.249158382287057 9.533580995190043 11.647857742241863
Cu 4.463066864770303 8.47683062589742 12.14181550961749
Cu 10.663148281100405 9.697766741002122 12.126484256651871
Cu 6.856477630154342 7.733758275445998 12.547799011142885
Cu 8.326033648155502 11.528526793630554 12.919573257229754
Cu 6.149515185689213 10.278622171039682 12.76918158890466
Cu 3.772591070088431 10.534292616038186 13.194049766489533
