40
Energy = -116.96752722 eV
Cu 15.014983126313483 11.994452629901177 9.111767337051122
Cu 12.98511110881322 10.6643886892261 8.428793927957068
Cu 12.86684762873636 12.627823898115862 9.955228012166803
Cu 12.442570939159934 12.866289851011313 7.624064840071966
Cu 10.811518582219886 11.441321702012067 9.270500461173004
Cu 13.913569657657792 14.429356705711033 8.872182879597872
Cu 11.59391771993205 9.033313236126194 9.56632606770658
Cu 10.44060841096762 15.496133847777479 11.335155424031493
Cu 9.205927889919302 9.624298259529407 9.292979079498567
Cu 14.591774168621281 9.582611522665973 9.810048766585073
Cu 12.669176590518958 10.495351790759607 11.136286634969878
Cu 14.418236760409355 8.862388912677398 12.117091359059257
Cu 10.234908390980157 9.749195537722287 11.458582584217877
Cu 13.1112887475396 12.679072559471292 12.341635108845393
Cu 9.187396026759847 12.877312206970378 13.126171506572822
Cu 10.762161030607722 13.018363232325303 11.190320582146086
Cu 12.737552107312201 14.894814197935228 11.05485370765118
Cu 14.965353104631864 13.676727433408017 11.049257343842978
Cu 15.093754107198903 11.253527489962876 11.500187925954435
Cu 11.22061116867212 14.2875274214276 9.190429625927885
Cu 8.833998859931494 11.652929248828153 10.768243023093465
Cu 14.043191120368203 14.875259427795807 13.112280584028843
Cu 12.198245641869596 16.45121903521554 12.950425737604885
Cu 11.156530261553518 11.415612944588538 13.13508124683226
Cu 11.306281542188128 14.187593980249481 13.1899982325484
Cu 9.986093675007437 9.052349035532272 13.890921370353338
Cu 15.229947212748066 12.765288105342718 13.499466137143292
Cu 12.081456614489571 8.890103758355606 12.827687597919438
Cu 8.408006238678523 10.57549834582878 12.871762492102343
Cu 13.815741023276685 10.652148314835681 13.594853061230104
Cu 12.248396261408102 15.152461033789935 15.14888776260307
Cu 12.964019414558697 12.589211046478725 14.759370900451852
Cu 9.492251695171424 11.145081824091614 14.971927798654018
Cu 14.591237228552892 14.312676737836723 15.41615724905663
Cu 13.62696122399063 8.439081321512964 14.53119451746216
Cu 12.60788109065044 13.5968476664638 16.925124647383374
Cu 11.894076709836224 10.23220647859869 15.108679108825843
Cu 10.725462762551244 13.13981093251275 15.296957064936702
Cu 14.040261627568734 16.681469746188245 14.743713569725989
Cu 13.678012947076107 15.834200309664158 17.02072514146526
