43
Energy = -127.80606595 eV
Cu 5.930379855730852 8.580791832457486 7.929004515668838
Cu 6.714488816718174 10.291754873527639 11.811796256395802
Cu 8.232528903222724 7.801113761824424 8.35579157719936
Cu 6.603742256007111 8.233882888311793 10.25715286711615
Cu 7.738358622214758 12.032261408077765 13.309847828648453
Cu 7.426802568102206 7.944131627971864 6.0723132836837905
Cu 6.324637440539443 10.620047116492168 9.299901315402417
Cu 9.146246241304645 10.201968138434074 12.588757510861786
Cu 9.1275060393117 7.438148598750142 10.618042279066046
Cu 8.418053752542749 9.764782031434745 10.064098275213698
Cu 7.503380341056262 12.352495090041963 10.85902206123554
Cu 7.718340210068138 8.19504942462733 12.442098897733365
Cu 10.717827211715154 7.844459417770643 8.777081693139277
Cu 9.475820625469117 13.319712402211302 12.177098874258327
Cu 10.175259410739125 11.906444591802886 14.115245285895568
Cu 9.723002208155675 8.700414244051695 6.564300518818509
Cu 7.720579437896456 10.020551110419337 7.267943663975339
Cu 10.093331109121712 7.8793757000088815 12.829972148463295
Cu 9.803044890234066 11.722664961210715 10.29295420314515
Cu 9.084403957444948 13.996295608475776 9.83039127154851
Cu 10.756156459689937 9.437579653337814 10.781953764855988
Cu 11.331480169086701 9.696244097450135 13.862630498750175
Cu 8.262584748038272 12.047701487055713 8.456334058884792
Cu 9.596794044931341 11.373738374582723 6.389334170902739
Cu 11.335923221738074 11.44007785629929 12.09467892499043
Cu 11.725817462433982 7.283016243710691 11.048234589677952
Cu 12.414813370962955 7.541376546110805 13.394808114728022
Cu 11.795416718146665 13.599569189935773 13.047538273329884
Cu 10.240879579598813 10.27145584748493 8.373558942405763
Cu 11.482273897367524 13.58689383645643 10.548766483974058
Cu 13.04195118164084 9.48511700218359 11.92515323472861
Cu 12.930606497127572 11.604171165077082 13.884655763278953
Cu 10.64204738963076 12.908809053506952 8.27758219946396
Cu 12.07185055891415 9.147588449641713 7.182615851799611
Cu 12.212747968021347 11.17105017452183 9.761179543673737
Cu 12.002700842530487 11.560942251421485 6.893512775157779
Cu 12.918038637466953 8.826915911078427 9.484842036224919
Cu 13.785890217075904 9.347657882091323 14.25828834425188
Cu 13.515479824228118 12.460211536012158 11.54343621980183
Cu 14.967143712929309 10.858332068703126 12.736097486399245
Cu 13.88188687563002 10.631035568049581 8.034600394007889
Cu 13.124838735539072 13.022879150891084 8.66136438600474
Cu 14.561618358610174 10.623575995519104 10.339888844715015
