44
Energy = -131.42631737 eV
Cu 12.263742120142231 10.484941214700749 5.988059489112231
Cu 14.073561381216122 8.509138121248684 9.393535732970825
Cu 13.748916316282921 10.553339035426335 8.005533202877704
Cu 12.61589101410059 8.415536137726608 7.35208821429451
Cu 10.0685530170293 11.613009276740124 6.409330857407123
Cu 10.259951278994931 9.053114344391911 6.413562122273469
Cu 12.155265931299656 12.53247105297009 7.3932161033852495
Cu 10.557127642639536 6.960241923452639 7.839964052089982
Cu 8.033773892187629 10.0906217020719 6.8792224406811515
Cu 11.380559231415562 10.403192543410974 8.237997178047928
Cu 8.255406193290012 7.616989652603799 6.995583299208069
Cu 12.894581177798939 10.527299294775306 10.375100915022243
Cu 12.817665766701344 6.402629551368502 8.771050997051233
Cu 14.183970083646175 9.057759313265528 11.800905421846494
Cu 11.603076405921453 8.297928806168972 9.651936183403064
Cu 11.3476574317791 12.474003594344126 9.756265361426152
Cu 9.13607848683999 11.445881167108277 8.758264799718896
Cu 7.8990954292784 12.602862245515457 7.068841185503981
Cu 10.775323283950064 6.056700367883264 10.195350216741511
Cu 10.016494234429453 13.624154745090857 7.996680893356645
Cu 13.039737351496434 6.985655640159976 11.167794650537676
Cu 9.3406375922057 8.9381891928776 8.736995269646131
Cu 8.48523747477007 6.693206538145714 9.317104633567233
Cu 10.455475596774065 10.271971463921206 10.492584290768654
Cu 6.691765728099193 11.130629764320155 8.717660985591245
Cu 6.867780781207586 8.675722680869754 8.7837335490265
Cu 11.09456365126523 6.557054738497591 12.518544564175574
Cu 7.888180286865816 13.519431796022351 9.375553932013453
Cu 9.523950048300872 8.132028360965084 11.206951586652211
Cu 9.900050284471638 14.425357536814493 10.418179612988352
Cu 8.01333939705549 10.084785900295593 10.621919660065874
Cu 9.206147004964548 12.244839318233462 11.171574682377418
Cu 11.727544281336883 8.974702307881335 12.216966539863634
Cu 11.454580317584272 11.656736515897363 12.179292916522662
Cu 6.914944841775867 7.5744322924314265 10.950313965146178
Cu 6.411505208776384 12.258610650474768 10.796720746312227
Cu 8.728754618963043 6.032548851840752 11.80739695971038
Cu 5.758236961600466 9.847009359876237 10.979930845057325
Cu 9.402424584375964 7.859231553914574 13.599512965755265
Cu 7.7937214198509634 13.953984355556242 11.909115947790388
Cu 9.548192245105176 10.199995005469997 12.82705142072711
Cu 7.391747833762084 8.956783292250176 12.83555108473753
Cu 9.402519757712351 12.612152785626126 13.50564356831374
Cu 7.381014767291857 11.379424228656966 12.75547922684848
