47
Energy = -140.61323312 eV
Cu 9.891267972486348 15.830800010846135 10.99379539450588
Cu 14.783887598361625 7.96134666187755 11.80682507581659
Cu 14.711481685642704 8.98910867907923 9.611683578160148
Cu 12.749596034786997 9.179407850728783 11.166556765151633
Cu 10.698417171764616 10.186077595621823 10.332858622622886
Cu 11.469271757930137 15.487756660423575 12.959556578516672
Cu 11.330853356162743 10.404134077804132 13.048370110766703
Cu 8.291737619814864 13.012487234969068 8.124127175538975
Cu 7.187394684315152 10.207047571251241 13.636764926511493
Cu 12.706391128302698 6.932098316603347 12.49053605703597
Cu 11.590912202375778 14.09489604261543 7.485585965219317
Cu 12.446142452950518 11.712991222678857 11.05001977575712
Cu 12.502551596532198 9.464379366545186 8.695581702315422
Cu 13.533167408261962 9.246816410709524 13.477880938994588
Cu 6.728356577024361 9.97966713195141 11.163574398225855
Cu 9.323528470456761 14.140162162814908 12.807503072848181
Cu 13.467927790579528 15.325258907323102 11.159574191785365
Cu 10.065660959442642 12.170731731284649 11.638574152649165
Cu 11.507118751284672 8.089638779078122 14.180040936509611
Cu 9.337849927131366 9.029534281457662 14.122319414492477
Cu 13.107363818506816 13.543498733924912 9.320798869876706
Cu 14.752345331844142 10.543285053100522 11.610133804396005
Cu 8.540767762578568 13.804527481423694 10.462749921808207
Cu 11.469912619662448 14.01543319729703 11.128274543039785
Cu 10.818518520489254 7.836226935913139 9.398019409291448
Cu 9.993960429002414 6.384932263614178 13.126657514364336
Cu 10.513479467174857 8.22994254251092 11.845792988547734
Cu 10.09407402823912 10.198754022275951 8.068815821161998
Cu 8.926716666701003 10.127192874297194 12.029477905841567
Cu 11.382815189025052 12.985508665827389 13.596724393190065
Cu 8.998712600470174 6.566357225391393 10.703114794399617
Cu 9.289041582919417 11.630512715899235 13.957272906580497
Cu 12.295510443836628 11.688119800839912 7.743508865584016
Cu 8.618663054862104 8.858450875859072 9.910089333546232
Cu 13.502029793546185 14.172195990319878 13.302731184912957
Cu 11.813035263892129 15.691879161960646 9.380041214473497
Cu 14.139717845757845 11.333518833328133 9.331733881188894
Cu 10.134135596525704 12.271627635160025 6.758276112260637
Cu 14.45197665923066 13.00513052746857 11.363737127124972
Cu 10.528344615889889 12.596227919029378 9.194050136446172
Cu 9.634851951832603 14.984735179722893 8.645995947757882
Cu 7.940360639673485 7.970452602822205 12.35542809259481
Cu 8.403273651963751 11.320146917299375 9.854718847622383
Cu 11.252192603491519 5.87539672346144 10.922518605142509
Cu 13.1471982906694 7.106134835636378 9.976697933316661
Cu 13.496203383823026 11.7179963548592 13.355950256710347
Cu 7.626328228881361 12.241747564920647 12.164845944637301
