46
Energy = -136.55322266 eV
Cu 10.219796752728913 6.179613558880746 10.31909927029605
Cu 8.282053121282011 10.456374836248283 10.125938275621149
Cu 8.03609815225684 8.797481683770066 13.216027462686458
Cu 12.555021258383775 8.486258838766897 7.526498466976812
Cu 12.852099657250434 12.444003883615494 9.335930835548977
Cu 8.170204542616817 5.09354783280554 10.963760945604948
Cu 8.938333592212423 12.684513602336215 6.60260514479279
Cu 6.39237655266038 9.083668066815004 8.746062373010574
Cu 10.76570082905164 6.749872710105713 8.035985520296322
Cu 8.842664317929183 12.874589932366435 9.058512566264827
Cu 8.624431673266862 8.076996145467298 8.677834149595624
Cu 10.73430693927191 9.068951148950351 9.194924478002848
Cu 11.882955220320667 10.520750546015092 13.58875121827948
Cu 11.849221056588608 10.866517027966825 7.6245367866013725
Cu 13.267664126413349 12.56468333263803 13.58358500219701
Cu 9.34044365565086 10.702733113392929 7.931271421835368
Cu 10.468804133729204 8.499267871571709 13.504718394663685
Cu 10.898153662417156 13.785501306175926 10.27500858810337
Cu 9.654174994681506 10.53336967955145 12.38553135989376
Cu 6.646851952550538 8.866942673926701 11.207137209647813
Cu 10.308312460681025 8.738652994142381 6.69324607536295
Cu 12.02668588600011 9.920038362408473 5.428269470333797
Cu 11.162391688641833 12.551285331456592 12.402834220286966
Cu 13.057206984914256 13.754424991314782 11.435782928566663
Cu 12.370745660377398 7.43144818906862 9.853726335571244
Cu 10.724669014289248 11.335851027463114 10.078467483346062
Cu 9.582276039752886 10.63850106826571 5.471783072985127
Cu 9.333195200829106 6.437537276885863 12.726067319981807
Cu 13.118478429980586 11.308788906496511 11.536490201944318
Cu 8.94100636952219 12.666685802091209 11.469939720058383
Cu 6.723553379718643 7.022402847434345 7.4710520209520626
Cu 7.803854526967032 9.243492619761314 6.661142646370026
Cu 13.014124118497568 9.918135994842874 9.550834680563764
Cu 5.5552083282577644 10.780260881607042 10.20824009094892
Cu 7.00093575177793 6.75532050469364 12.336012834559309
Cu 6.817998558044215 12.7490638267166 10.369767621463613
Cu 11.689181083685334 9.263915565977575 11.508980608554602
Cu 10.966796576989767 13.119720777172347 7.913947587595277
Cu 6.860797212438487 6.818055946087995 9.894494456576014
Cu 9.232802559141422 8.347284981294768 11.132665878307286
Cu 8.54332039019031 5.593147753098199 8.559630644592504
Cu 7.160172738563081 11.057123922084621 12.215341832335668
Cu 11.308183881847727 12.2978742256635 5.6872099138657815
Cu 11.656501784838941 6.872009174734359 12.123854166673995
Cu 6.989863341526913 11.425608439631041 8.155506011682455
Cu 8.861997355746277 6.849346312723951 6.442608221085248
