49
Energy = -148.87028499 eV
Cu 13.421324422369668 8.875504712051482 7.476565807611696
Cu 12.256981365170247 10.895649476534006 6.505036970220621
Cu 12.819595764717354 13.070469049524913 7.68710426071511
Cu 13.697711118023003 7.433172232585518 9.795694171359845
Cu 12.930669495192635 10.886451249923295 8.897850414257888
Cu 12.272929021318268 6.6711253049330255 7.867939441449002
Cu 11.06578018914632 8.562881888578692 6.698978762268688
Cu 12.69187129122784 14.30487599767645 10.040861981761267
Cu 9.84059931509764 10.543945916308989 5.757138547916747
Cu 10.458144067104902 12.717840397776714 6.871411406008183
Cu 11.057892704056956 14.78754859948233 8.186527118245177
Cu 13.190608066314702 9.524014363395437 11.071859846924044
Cu 11.705560546124016 8.609683797979926 9.144365108820141
Cu 12.824329710596594 12.065548388760886 11.164054399599783
Cu 10.427928649949736 10.54241228410802 8.071425478850365
Cu 11.086216967462766 12.674241233534538 9.314595716586341
Cu 12.938793041641413 7.338135852948593 12.204658755204978
Cu 11.48871602969767 6.3540643606519165 10.255999657966138
Cu 13.520511317302338 9.378381071423597 13.55239805873574
Cu 9.857860982842876 7.04737440762982 8.390445910881894
Cu 13.132147101528165 12.087969922358187 13.64139136053484
Cu 11.025071707065011 10.537020593863787 10.439775483652923
Cu 11.978187416146039 14.006509304792525 12.454831809036264
Cu 8.607425204495714 9.011391282352848 7.300766459482986
Cu 10.244275710981544 12.457059836710801 11.720039530958973
Cu 10.829719962284933 8.37080617657259 11.553342643100725
Cu 8.223646051750677 11.52880490539015 7.40035482378994
Cu 9.226838653515019 9.009941869731602 9.715182957373647
Cu 10.674997071328924 6.254179363391725 12.64247636282739
Cu 9.024344116032575 6.78503043741459 10.829503027805993
Cu 11.522450408082598 10.506640042563232 12.804812853935001
Cu 7.462705378632138 7.556807112357763 9.005195334316786
Cu 8.872807627513788 13.680165559972787 8.660141178300481
Cu 11.28869318097619 8.299865858696485 14.000418779968044
Cu 8.851397952147128 11.518354416054583 9.815455706272232
Cu 10.27739089628307 14.690422447920227 10.590734417115865
Cu 9.505602912117087 14.345579603587048 12.969291185289025
Cu 6.982351104617239 9.99345373332189 9.083222420260935
Cu 11.922989696570415 10.478411683436569 15.156939507172885
Cu 9.112421253584548 10.189475596101866 11.969810894565793
Cu 8.900707902910627 7.968856938619897 13.097838626946201
Cu 7.243157460728265 8.63869706250331 11.244047581517487
Cu 6.7405066231847 12.471301093372723 9.223421669070088
Cu 10.709854137593355 12.473309542930773 14.158278887482354
Cu 9.568713636121405 10.1691826348385 14.368755123654216
Cu 8.057321142526092 13.497083403620877 11.115050031992654
Cu 6.881617638219989 11.179163741340428 11.353654306708485
Cu 8.318744504696477 12.146352042700705 13.288253552369737
Cu 7.245694114695717 9.85064783935915 13.427906300801306
