43
Energy = -126.31323903 eV
Cu 10.786100473486403 12.091559536459968 8.970153254855322
Cu 12.623730631420967 15.451329977662022 9.994170452218334
Cu 12.988793782519444 13.29467875723207 8.948665916118777
Cu 10.105073615789934 14.616048327906288 9.357575348898182
Cu 14.715809651675517 16.65319168972831 10.399633854926503
Cu 12.792367865323566 10.910365857315188 9.733214559014247
Cu 11.473224726760288 13.421154718217052 10.820302420803896
Cu 14.746167301296733 14.272982605916734 10.849150862964432
Cu 14.624154741461505 16.06297136479537 12.792361407252216
Cu 14.937379587994881 12.113916167264891 9.680246249429933
Cu 10.830939624117773 10.992527265160097 11.31634693262124
Cu 13.421548555042095 12.324353224080836 11.696601374997114
Cu 12.573994422814389 9.257684920829004 11.55306277668389
Cu 10.706158529557909 15.824754679904801 11.509806155937058
Cu 16.203320861460043 12.187600325922427 11.720434216918898
Cu 12.692966161574478 14.6062205611765 12.563876464058692
Cu 9.12185005235207 12.646278158578863 10.646213754752289
Cu 14.75863385957518 10.191907579155052 11.208540064924438
Cu 12.093470264605942 10.580940074081225 13.460844704119214
Cu 12.740317922604563 17.12503413630683 11.7551037906967
Cu 8.5003748061284 14.888319930737076 11.289596859850327
Cu 9.606582649246972 15.057787758637575 13.542087109433838
Cu 11.765403065172057 16.356266993899393 13.864837446564694
Cu 14.134096125992468 9.039922835163637 13.538216660832683
Cu 15.192694611873396 13.764786198171539 13.288796418071593
Cu 9.558611201416982 10.992654882772268 13.518749350725313
Cu 13.017082842478633 12.789544986167572 14.209958129485734
Cu 16.5818364786098 9.8879413962561 12.886451312084896
Cu 10.830348779693846 12.915516637341263 13.108958950895934
Cu 8.306206811143149 13.053538274993036 12.864404495153426
Cu 14.726846893737903 11.318195089686695 13.454068288116435
Cu 16.177776998616945 7.982768184917951 14.33121633366371
Cu 13.4253441051262 10.744611650195871 15.554863936434629
Cu 13.70029379545213 14.991304596260644 14.916295222450216
Cu 9.19057167964327 13.083592797739424 15.099432219552142
Cu 16.99319564917234 12.060462967036143 14.09069412123875
Cu 11.113882540615238 11.68936007877653 15.430631291600005
Cu 15.845733155245075 10.139747247024063 15.292325831615637
Cu 10.496816643666499 13.205910151917124 17.225010328088402
Cu 11.273996588401404 14.381064126791557 15.238697463525579
Cu 15.080178476320613 12.65499762546486 15.604796986014447
Cu 12.866301208840632 13.08006930615047 16.61367767346265
Cu 17.12151112274781 11.737825216980271 16.501617869722757
