44
Energy = -130.48929599 eV
Cu 12.517886063114878 8.688815068480253 4.868082348620256
Cu 7.081052567284907 9.934914824528294 5.67614856385243
Cu 7.576124228622516 7.831692599042575 4.385188605962275
Cu 10.009071311979254 8.627201594800617 4.572156883708691
Cu 11.162935103612899 9.94439050862376 6.350255485721635
Cu 5.746065575835875 7.793068289207935 6.1261338470082345
Cu 4.92082955473439 10.190350459171652 6.95570539993936
Cu 9.21853042939054 10.915823146594766 5.304247284585082
Cu 7.216015368699694 5.764120035699599 5.99597315551108
Cu 11.266458354271295 7.123602062766434 6.169416523895046
Cu 9.362452393324807 6.246628403027862 4.977564459810456
Cu 7.138997972260737 11.570886604891214 8.058761035437087
Cu 6.782438906307248 9.130328509332148 7.893340422225849
Cu 7.561483070503342 4.4760309038463575 8.38243291150653
Cu 9.40453979089826 5.907849805150089 7.5196385162730595
Cu 8.59028379451132 7.981342654935429 6.531547706222414
Cu 6.811479584920657 6.6816720497845195 8.131954970893307
Cu 12.906547497632625 8.56397835512053 7.4318917212481574
Cu 10.682261164090125 8.247392381291766 8.165489194837436
Cu 10.134175472565015 12.134202631185591 7.266454613501973
Cu 4.977101187917476 5.5921400177847875 7.302683933215565
Cu 9.090849581984406 10.093261680291604 7.7548895732529015
Cu 4.584358029906816 8.013134503888086 8.379038019960843
Cu 11.52454358566621 10.56867445267314 8.702762894250952
Cu 8.563233693314254 7.8984567001825265 9.05762811739708
Cu 5.295335190896982 10.284276742020786 9.521916660786168
Cu 11.638548826397892 6.144519318708864 8.647331027908248
Cu 12.236613029871275 8.515017434833958 10.034282633040679
Cu 9.449748624504231 11.792493946908055 9.695672430159382
Cu 9.744861439907776 4.7089769692788295 9.60608712465952
Cu 5.175814509923274 6.035918852300048 9.888119256443957
Cu 7.741350455792049 10.072306067726268 9.917455861443942
Cu 6.392360836540003 8.070950288791742 10.107030457133991
Cu 10.004878526915538 9.376402528767814 10.226707466452117
Cu 7.771801203084911 5.9679832486245 10.450267717087597
Cu 10.260336810839101 6.89552205252523 10.583174554185462
Cu 4.21039324826776 8.325102585962439 10.882681235924625
Cu 6.968049509680743 12.09057468883285 10.671968896587847
Cu 11.481691874857463 10.864135128444948 11.18651454087345
Cu 8.336928713708344 8.167960354864153 11.697383805872398
Cu 6.315249335898117 9.732649620215536 11.875604540501683
Cu 8.875848033695414 10.643530460830702 11.979763634483213
Cu 10.710221426298245 8.709236381758801 12.350842211343291
Cu 6.030366577323684 7.152597544055673 12.187922214026369
