42
Energy = -124.27328223 eV
Cu 12.651946001879967 10.874650990948059 9.07665166291146
Cu 13.937120153076815 12.86110494067515 9.668921962265843
Cu 14.378950282016007 10.719407186076923 10.832767868282952
Cu 13.206590053536408 8.51553434993303 9.793034426921723
Cu 14.445015743876091 8.614049797648923 12.027484062450993
Cu 12.752145321712874 12.786655265170184 7.435925754576516
Cu 11.211122328597176 8.989877457555371 8.39534736764004
Cu 14.195597459560272 12.743984311550347 12.162751054559601
Cu 14.578235651534365 10.624658707746912 13.42319588053967
Cu 11.940676408032132 10.609801156063927 6.7340038745478745
Cu 10.243060921980444 10.598161403742466 10.164140572885374
Cu 12.749759211107737 8.865394742376237 13.830764454151547
Cu 13.23462974148962 14.707981377691137 11.135560585735368
Cu 11.741985562208658 14.025311884565516 9.271691948642513
Cu 10.646968865694603 12.483957196286074 5.907982759029038
Cu 12.473642536193495 7.252248043504185 11.904977442683354
Cu 13.89965271005367 12.739746627553693 14.590810386459266
Cu 11.885970217647587 12.34221122139338 11.091003173933922
Cu 10.622577842668491 8.017494935247932 10.502769744073133
Cu 12.195290545537983 9.756717584248184 11.531590437406653
Cu 9.53729931692278 10.186553588819853 7.059523791196565
Cu 12.32649511338178 11.40359831614528 13.34329783724508
Cu 10.515367553474698 12.165798687359025 8.223827467120001
Cu 8.320161312012885 12.123779905847135 6.618447279024588
Cu 12.937463278245753 10.674347067523692 15.51994791922058
Cu 7.088778252344226 10.036689209553192 7.529553527603545
Cu 8.763327313765792 8.922054757911585 9.017632023662067
Cu 10.51424021274258 8.183114021604595 12.968595836813972
Cu 10.841020716511233 14.850941094703364 11.399111357669002
Cu 10.150371125777724 10.617755775246371 12.6165543465561
Cu 10.654359637762457 9.887639674578908 14.877023971080236
Cu 8.259321619822057 11.474887527628974 8.978444322310642
Cu 9.574691185739656 13.13156461288506 10.239686500563266
Cu 12.134751393377677 13.855231164119187 13.228944960597941
Cu 8.585739230459124 9.008478706765205 11.475730235826036
Cu 6.7549874751646515 9.939486475768733 10.098777981747247
Cu 9.787884022579883 13.089636833513028 12.683187523095057
Cu 8.11385034378091 11.577939495305491 11.466270425639268
Cu 8.503526906112949 9.078110503068098 13.926214656309114
Cu 10.736723626798053 12.353572893735944 14.841660882592834
Cu 6.676232264118431 10.015761713853458 12.602105709128098
Cu 8.41905696489295 11.48069521827735 13.990672449493253
