42
Energy = -124.00645803 eV
Cu 11.910706417431825 14.54446647049706 12.189535657580493
Cu 10.257485828273422 13.937992571296382 10.477908233528522
Cu 13.494265968258803 12.652918375241642 12.52027846420865
Cu 12.564803490047264 13.233253805279608 10.214527733495979
Cu 11.63953363214899 13.263625932021924 14.25234579749012
Cu 8.837267955250502 14.763799453064319 8.733917023612806
Cu 9.543622161733536 13.891305440110415 12.86621083531894
Cu 14.321464664029648 11.628130677476246 10.36822553948124
Cu 14.552705759977353 10.49919525066147 12.898088208434038
Cu 10.930103302409568 13.301727132139856 8.173947035415441
Cu 13.028027983572736 11.954208309932676 8.14417975583097
Cu 12.352830892427887 10.928350683612004 13.965658577798889
Cu 11.12282131204158 12.215721836533424 12.090600257966177
Cu 11.685188671920422 12.158831329327715 6.104234596998202
Cu 15.015144198796989 10.40843703083676 8.41120951484787
Cu 14.72484113941679 9.272328852008972 10.725041642335094
Cu 7.89363678735157 13.943380224540446 10.935321244477514
Cu 8.75815791838699 12.444467429227954 9.167632521013138
Cu 9.747455471101413 11.642393274009352 14.008355088497574
Cu 7.622920415647802 12.39053691324104 12.856773281512359
Cu 10.96794689310182 11.351913630374066 9.75785072254155
Cu 9.153049101883044 10.915893472148836 11.454270728911432
Cu 12.846156346954558 9.763484966907159 9.199062478380103
Cu 12.5345358230246 10.329615944825841 11.53043703460736
Cu 6.929586331826148 11.670020911796954 10.575146779182257
Cu 12.078435227874012 9.892706550290939 6.930666423677705
Cu 10.004923922395204 11.079988573353699 7.452060010964914
Cu 12.898601196041652 8.586201422564983 13.109505203481996
Cu 5.766685918262896 10.860867149949144 12.58494311074506
Cu 10.542624459315071 9.539657540769127 13.043023873561209
Cu 7.932646033715614 9.993241999191403 13.37045994020347
Cu 10.594112723062542 9.056840994205558 10.55278466684817
Cu 12.756117695392984 7.820080940727579 10.696066184625712
Cu 8.523384469074635 10.075820292664513 9.209969827276788
Cu 12.415680257254321 7.6468276105359125 8.212236325399306
Cu 10.252279282242286 8.718946818825163 8.154151338314664
Cu 7.037380872960569 9.31288334287847 11.086733829124459
Cu 11.000265400075847 7.156935327496005 12.26509709982769
Cu 8.782612734733307 8.084461974549813 12.15550714415151
Cu 10.721032778412107 6.730524397966423 9.751259919279939
Cu 8.482808024135414 7.739002210360072 9.7681870380479
Cu 9.059498749381838 5.882361147905044 11.319937522348765
