46
Energy = -136.86823488 eV
Cu 5.788229423371473 10.795988878248599 12.537597322932067
Cu 13.398791881383898 9.561803146113519 7.918385303316388
Cu 8.87305292475331 7.047810570541701 8.392913928790563
Cu 6.0083510330266705 8.28655223899941 11.443523680175888
Cu 9.040705466605877 11.960900080593477 7.310379512924995
Cu 7.80048792958378 10.086734924762634 11.27742131489427
Cu 10.696537286754683 13.273138191646433 8.590487322736685
Cu 10.72057679858525 8.153761856382214 12.187124206800654
Cu 11.042538816350895 5.726764053349756 8.704443271002768
Cu 8.317771276726033 7.7626125278817195 12.069553149667097
Cu 8.26744669091438 13.42514219868902 9.22933869170872
Cu 5.457790580233151 10.298981348068946 10.163963797179724
Cu 13.030623086372254 10.867141137443419 12.104394548401359
Cu 9.438394824709086 11.311186462923693 9.773523329648526
Cu 11.441561920463231 6.291378050816072 6.4343237016599675
Cu 12.008486049374188 9.571229277389145 10.164814253619822
Cu 7.876788346242108 14.322275597764337 11.543670070128549
Cu 11.057884796572381 8.181946704692296 8.198972483059237
Cu 11.985432590179139 12.088900178984185 10.253840448552893
Cu 10.313252000340734 10.30569627892882 5.817803097366001
Cu 11.664384087214492 9.692144688383907 13.771133137153074
Cu 8.572773152358923 12.116090056202687 12.528965236458124
Cu 10.557079575469679 10.83309268674225 11.889338410035379
Cu 12.754819130743051 10.863552954276889 5.951825024726048
Cu 9.710588997429616 7.936819214559534 6.122114493619058
Cu 9.59499377343548 8.847980502833533 10.087163593353726
Cu 7.233540472995941 11.098797630756621 8.739557755158547
Cu 12.174909240470306 8.537354614514546 6.011249342778721
Cu 7.284904271048166 6.4695517798651645 10.259869567720798
Cu 6.45155483044659 13.08409049968777 13.140480029724356
Cu 13.128500031706736 8.441305950041833 12.189686613006078
Cu 9.155219416127139 9.716232109551822 13.50495115576239
Cu 9.737695769804445 6.407611091555366 10.626102241397748
Cu 13.029507110929334 12.211432009825575 8.003520041204823
Cu 11.15415698001875 10.732073438321143 8.067447233349954
Cu 6.855370595750026 8.929092410355558 13.644375436692812
Cu 8.893471572227957 9.545673438479598 7.771742311086125
Cu 11.15546691311109 12.625348230601015 6.2955138784196745
Cu 12.097458897024076 7.104245715414723 10.382815576538544
Cu 14.068895799180668 10.881717425310613 9.88083997522175
Cu 7.130212316947757 8.668578919739105 9.254361901895264
Cu 6.687834340902178 12.346102985135794 10.797702740549362
Cu 10.040700358152893 13.368174649190085 10.988474031281738
Cu 13.186488666136503 7.086962801467244 8.015071543811738
Cu 7.356588292422541 11.165163844062814 14.421410798223754
Cu 14.154695927584543 8.367380891087297 9.934328738444961
