43
Energy = -127.76910872 eV
Cu 11.255176419314061 10.59379253797658 5.917457372560061
Cu 8.978472075728956 10.482495016437129 6.434798557082348
Cu 12.872856280707333 9.212226282381062 7.039281193833095
Cu 13.037537357946633 11.743108304747532 7.061113193696319
Cu 10.349396358684897 8.51247453081842 7.207406472947586
Cu 10.486981223581626 12.558027234034217 7.323716473727377
Cu 15.08995959392679 10.309299058819066 7.542883051086484
Cu 14.45393710477048 8.301801242666608 8.78041464455764
Cu 8.375679193071365 11.541296207816574 8.45093500637014
Cu 8.128271271972569 9.091500166451457 8.246870287935831
Cu 10.938412067445416 10.53674567218614 8.427539827394366
Cu 11.941695875066298 8.304149020659422 9.097528284981571
Cu 12.305447810133234 12.750342846211112 9.17069026604784
Cu 14.768079796649479 12.387856634632628 8.781538065399571
Cu 13.314608808085849 10.439237246204716 9.144731414228081
Cu 10.041570036527288 12.524217507682527 9.872679295563454
Cu 9.622553105483185 7.559630251231333 9.452248463743539
Cu 6.58145668782527 10.412527158033916 9.697890441482004
Cu 15.431737185130055 10.28676569187369 10.188884554753253
Cu 13.488858063038842 8.716986383402174 10.988308951695332
Cu 9.749583110218904 11.53557869945607 12.279908351695793
Cu 7.722294155032134 12.43947240590288 10.639062297616706
Cu 9.262332962500816 13.883927499774911 11.88709019714262
Cu 5.476941530735114 9.23362097702344 11.672581834268621
Cu 9.001745013479391 6.994295149759652 11.849558925455977
Cu 9.344030678240747 9.958222856996672 10.28805612428148
Cu 14.433137327961719 10.32097857661319 12.504967489551744
Cu 13.800561315249043 12.112343563691494 11.021377698004233
Cu 7.447562672335564 8.228014393333808 10.519009825358193
Cu 11.193683960216957 7.907584745583581 11.328235049066677
Cu 11.641979451714441 13.271175746927126 11.532679551652436
Cu 11.662327681767424 10.605850083212442 10.923698788641406
Cu 5.608272094295265 11.716591233297947 11.681019988235578
Cu 7.525599508037062 12.51925982704224 13.11590096308814
Cu 7.601816607883213 10.32941921658706 11.95359044251463
Cu 6.025046032744723 10.462727158381414 13.76416226954136
Cu 9.729924020557704 9.109750515090326 12.818395590402837
Cu 12.546883663051046 11.739211495643254 13.152491103824383
Cu 12.229703799455496 9.31265052110766 13.054126198692867
Cu 8.374473468513907 10.467057670265708 14.309893966985046
Cu 7.307312662850223 8.282738920144082 13.13234873876087
Cu 10.607210362208113 13.128941246744622 13.831746704856458
Cu 10.773647954403941 10.704864851695659 14.441938429817185
