40
Energy = -117.98835627 eV
Cu 11.885892084093948 8.309999216674276 7.169641613719738
Cu 9.31120860056738 12.297725266714952 6.94399747692662
Cu 10.48245963029694 10.283435559920706 7.5411669808096695
Cu 10.85749871469472 6.09969517444623 6.943887915535504
Cu 9.415647126890153 8.098178737018506 7.313766119633114
Cu 8.051724103180408 10.141770303894138 7.34558856461608
Cu 13.25743007495637 6.604865235742329 6.208571049570447
Cu 14.139520741301641 8.107454500722831 8.039181484585066
Cu 11.273865448761985 12.43542875674083 8.4187168259589
Cu 9.195096736953495 13.921493301149372 8.866570403006982
Cu 7.302566966406502 8.01725383313626 8.61528540986504
Cu 12.941477150466564 10.58748461172063 7.850025641724359
Cu 11.71695506550539 9.317300713813646 9.460867239350998
Cu 7.123540983958182 12.417817478855948 7.954220482172376
Cu 8.948623781275769 11.640643053287976 9.340446754653941
Cu 8.751254687601541 6.008290108333143 8.301513478701905
Cu 10.666870474023543 7.079960314632985 9.272598774637805
Cu 6.639260664094424 10.312307047499486 9.287632635218719
Cu 12.756768692334742 6.191370490770814 8.470471468087027
Cu 9.136386650329346 9.195959206123042 9.698809802353246
Cu 6.713312802161056 12.579821388547137 10.326137791960315
Cu 14.183391301455346 9.664867220435651 9.841429822523976
Cu 8.603606185998471 6.982472173272772 10.649168327877856
Cu 5.561163881785111 10.817798422071327 11.432137546062094
Cu 13.03287536138435 7.556782980275741 10.435411282990811
Cu 8.57506932836795 13.662426002910433 11.276487068081453
Cu 6.7830420891192045 8.59310461402473 10.994242640941989
Cu 10.51869734003624 10.796898113891077 11.018786384182519
Cu 8.081730309022422 10.679606631855 11.502957134336448
Cu 12.755262073488735 11.618538767896888 10.170758004015655
Cu 10.775890328746332 8.09536870379119 11.503564335286836
Cu 10.877435391533943 13.223271445191703 10.701781100237778
Cu 7.111902369140732 12.322556332675857 12.884847540539674
Cu 12.66592794919084 9.666336568340594 11.791817962058854
Cu 9.673821155792448 12.293068156689902 12.877613473064407
Cu 8.69590880521464 8.520326857106673 12.65574738425729
Cu 6.577963022214796 9.673049554802867 13.238913418321259
Cu 10.678988539671854 9.907606987218081 13.28113008189883
Cu 12.04622470479916 11.941003508757095 12.522318456044124
Cu 8.527378974237434 10.630302950101276 14.145430415244924
