43
Energy = -127.19166199 eV
Cu 13.809234320761313 11.973358497496456 12.301067321986313
Cu 13.408856511544478 12.420375621356257 9.97988507782073
Cu 14.118349554136483 10.120893812481105 10.635606649481582
Cu 13.205932566032248 9.748881493990494 13.080186926646162
Cu 11.665228438384407 13.322726686284941 11.517447691961854
Cu 11.763785558415618 11.850453396190703 13.542533230801965
Cu 12.680116466044012 10.583182741989331 8.541336434652868
Cu 11.81873161290264 10.85773793881297 11.23926077107615
Cu 11.050102544787565 12.370460701092682 9.313708488376177
Cu 12.905648814818335 8.291495511355281 9.363437608391065
Cu 13.809471700560263 7.9406934750627425 11.650349501423142
Cu 10.775900563486037 9.650627435241173 13.229616251275836
Cu 9.7124009211795 11.983128972839198 12.182591546631967
Cu 10.481618777881504 11.106400783482833 7.277860834605124
Cu 9.360064446899706 13.643261279641326 10.470245882110595
Cu 11.304576447934597 8.723593661331059 7.375387887650055
Cu 10.565341305643624 9.850430413144897 9.356709378026654
Cu 12.404727107295876 6.1992636119538 10.873036868863077
Cu 11.206228107545522 8.28897787521959 11.138996021350057
Cu 8.88623424980652 11.956672051093442 5.7360454342850105
Cu 9.155923858613388 13.195322971744048 7.9216865274319614
Cu 11.938953913467165 7.459907180041068 13.201480062730697
Cu 9.19253922644476 7.82268085355078 9.559628622364599
Cu 9.506524842013242 9.414029604797413 5.653863324599644
Cu 8.489941306416835 9.51138067070457 7.8191461188018465
Cu 11.128803050007253 6.672748035976867 8.852724061467205
Cu 8.64005834324372 11.386931257712895 9.472850620010622
Cu 9.1598892601781 9.749892842835322 11.321676855318941
Cu 7.128448917749777 10.344393137899607 5.594837286791697
Cu 7.165721932595563 13.293671409417069 9.52634576995173
Cu 9.95551274621109 6.108417801583822 11.116314393874278
Cu 8.48273136061653 10.40940262719555 13.565767286119797
Cu 7.11159198133385 11.872607872172749 7.454291513252431
Cu 7.296409786777229 11.458488224758883 11.522858923025044
Cu 9.39977702649031 7.237434046209014 7.150029721080678
Cu 9.205389369609733 7.792897059991608 12.777730715241502
Cu 7.379292208134098 8.034489143383547 6.078981164247933
Cu 7.135741242213662 7.370973123195299 8.41764727360908
Cu 7.102132815941078 9.26405738341974 9.956485668545279
Cu 6.064558929414704 9.545234237701662 7.655641528862515
Cu 5.885461363323936 11.25397167877027 9.440577748227291
Cu 7.568418223745805 6.973594433854533 11.060915565503114
Cu 7.009414356533084 8.96508897983015 12.358361974700815
