43
Energy = -127.50662127 eV
Cu 12.906825471163854 13.628124587131596 11.762454346036185
Cu 11.329207196995307 12.680483015765637 13.387969388540204
Cu 13.071595752959364 11.2728035248477 12.241679436111035
Cu 14.125983919495702 12.275854685903292 10.100961197397556
Cu 13.992755632271805 9.67838366133627 10.608806570090493
Cu 13.151863048638322 8.849692678540048 12.81381097193403
Cu 10.569534632265027 14.328120824778965 11.520665079276194
Cu 11.99462501479659 13.656887720353431 9.522887976801151
Cu 11.154099401044519 10.11287756227442 13.520829049497564
Cu 14.314202511840765 10.469772291199618 8.283995590517078
Cu 13.233984637502019 12.570393050030482 7.678429002202062
Cu 10.847756995016534 11.998537941971819 11.14280449658826
Cu 9.167208107669873 11.48767981375162 13.33757807547421
Cu 12.20015106891477 11.114651529135545 9.328939178902091
Cu 12.503047526456566 7.369242964142806 10.919781865974345
Cu 11.552434344733848 9.576711373005677 11.133321372382229
Cu 10.97683694901219 7.646544343997354 12.853114815307034
Cu 12.762406132465088 8.63643465427301 8.773161189797646
Cu 8.489777436338898 12.825998265199308 11.387584413852382
Cu 9.531679950852848 13.939698611039006 9.311707483946346
Cu 10.76854917509541 12.432209428148543 7.67674076499052
Cu 11.941645900128366 10.352777344316639 7.065125426637492
Cu 9.078010383392064 11.57017393125095 9.24538818630401
Cu 8.96154925917215 8.918653539583275 13.261103045503923
Cu 10.466961996509562 9.40625185582113 8.860376936138879
Cu 9.083902161599791 10.275868169434434 11.279943117672836
Cu 10.976240726963775 6.926451010939598 9.007916182021889
Cu 10.582101027099123 5.8034476366910726 11.193420910937222
Cu 8.387259902206186 12.809834781722223 7.296774578468658
Cu 7.135604924600705 13.169333192918184 9.372672452206073
Cu 9.664602342109475 7.9990779717693785 10.763078023180022
Cu 8.382656449970376 6.574162753610133 12.152724245655495
Cu 9.107235942268069 10.372997191506554 7.0758216697638785
Cu 6.852175018738338 10.978205592316085 10.540409721139998
Cu 8.667838028436323 6.048340533556628 9.603759924772763
Cu 8.084887948507014 9.233243015945341 9.190597199430728
Cu 7.222424297205648 8.675138171818315 11.477905562579538
Cu 9.094673100394006 7.687820384821294 7.627300950845254
Cu 6.8015697415705905 11.05822794842254 8.094878834672759
Cu 6.487634594685693 6.580367007202068 10.547776450605683
Cu 7.000226524754052 8.912139262927292 6.999231269330435
Cu 5.799170584609446 8.819629156363229 9.328833176067374
Cu 6.835918433968316 6.845558372837126 8.204878718908555
