40
Energy = -118.40092782 eV
Cu 8.48719090210138 6.8382820346662285 4.248890856900497
Cu 6.457178242226426 5.303527340494165 4.320795337790041
Cu 6.14025540192295 8.009939287926834 4.556973397590494
Cu 8.245859823021815 8.917795332852148 5.7097956493776145
Cu 10.604075625738174 7.964771452825441 4.773382031443381
Cu 8.81102943353225 4.758308906846246 5.708020075251371
Cu 8.63245024873516 11.312598446310089 6.556578988461814
Cu 6.222295642909923 10.468975646723502 5.816144407486001
Cu 7.1560824573687825 6.46181420521995 6.190237817886764
Cu 6.356842219061601 4.313703442029869 6.748902068334994
Cu 10.642113087275881 10.08757569492919 5.856646917829585
Cu 11.26450953915356 5.733384541400857 5.556286109434657
Cu 3.977798620892925 8.978236065221383 5.767659246298123
Cu 4.725871337971937 6.416493989984104 6.010097147599433
Cu 5.847929562517714 8.349173680291278 6.941126294948
Cu 7.828175169373883 7.722748889103469 8.058029976040448
Cu 10.647894716943707 5.163321323426391 7.917562812827498
Cu 7.25513261987674 10.001751756897193 7.993542016299906
Cu 9.546548568547225 6.91150276173003 6.631479583607746
Cu 6.6580707056583135 12.230658651516126 7.8922239324038275
Cu 8.22694065815125 5.217459536592638 8.131682854518642
Cu 5.775638787142922 6.150949580146719 8.352594061724607
Cu 11.298776952176965 10.901481597903146 8.086820144922196
Cu 4.838671319882545 10.292660212748057 7.978922586607779
Cu 3.8700536508904166 7.807054002475061 8.103368521515497
Cu 9.97587958469757 7.148611751959658 9.16614886592947
Cu 5.827761205802942 8.48828450741781 9.533410201036414
Cu 8.960582660560279 11.329187534722248 9.081200298211552
Cu 11.582898822784665 8.022596723670734 7.198312975157762
Cu 9.625096533399843 9.279300371325032 7.840310323611708
Cu 6.779659243708944 4.448117173412545 9.971296472237619
Cu 7.57110568450619 6.691878774080411 10.107141203380174
Cu 5.307151044983428 6.369433973252647 10.787006970622514
Cu 6.525357821014772 10.850961098916398 10.076572121711793
Cu 9.312650935887069 5.067477413006955 10.361831506404343
Cu 10.731210522902714 9.342929522845488 9.985299588725914
Cu 8.310477646204992 9.125711826937465 10.119283833304046
Cu 9.351771380452147 7.396674830438162 11.556782886993366
Cu 6.821834153514472 8.154618949684805 11.833868303121644
Cu 7.487365517315534 5.658235218878159 12.161959663259726
