44
Energy = -131.32511856 eV
Cu 8.096319036767646 10.159587614754361 5.34692860228965
Cu 7.2189701886150806 7.899243223374382 4.443300441379883
Cu 4.6407249149892085 7.842753044416137 5.013807164552502
Cu 10.553900910399163 10.794511153350673 5.2234977042571185
Cu 5.769656731861206 9.994091123682306 4.4612676656479895
Cu 8.96073400857683 11.792190463809563 7.038178428154829
Cu 9.598752567395621 8.46001912848082 4.614814819128038
Cu 10.925065936894304 7.065816004173534 5.955050791072221
Cu 11.336081178169854 11.302050157399364 7.578930585973247
Cu 6.292469622805636 6.3573430062303435 6.121148310180361
Cu 7.834323723588075 9.84425338389302 7.813736604585823
Cu 6.271059341618052 11.316982871744028 6.642678089742323
Cu 8.727111308215942 5.945384497912215 5.191315939795786
Cu 12.379926476050496 9.050582077358701 6.830523009631784
Cu 6.242812718811212 8.790473764896616 6.468965687043535
Cu 4.161801139146248 9.937894526016146 6.381408482981551
Cu 8.478172486784102 7.549277070416655 6.849118235037185
Cu 10.08722113387251 9.342052986951586 6.988461000059273
Cu 9.143963825013051 3.8373755844787105 9.181403825872971
Cu 4.506924953893896 7.7744622141081035 7.749868039088294
Cu 10.223391886742998 5.10149880713582 7.226590607368006
Cu 7.746582051391513 4.952998868561265 7.4223812122284105
Cu 11.273182096963644 7.23274386000592 8.278976140307435
Cu 5.435367046664839 5.5631482672603 8.242344530806434
Cu 5.400137339380957 9.947212971896068 8.622537653993163
Cu 9.10717683149908 6.208898930249051 9.011127933955871
Cu 7.106775140128142 11.840741212135544 9.032145596652708
Cu 6.832470333360946 7.5414822376493795 8.71180529269872
Cu 11.478476033441709 9.483141238537677 9.239290429960231
Cu 9.490770410203213 11.005446881664025 9.384400835331022
Cu 9.276411483621603 8.51355973796344 9.164974271148528
Cu 7.132748387013421 5.251176452843886 9.933501037088021
Cu 11.221414816787739 5.152606291625385 9.739883884682168
Cu 7.394823197784417 9.64398774375705 10.136541925939108
Cu 5.617089303401679 10.894166765503755 10.987174190853695
Cu 5.446407552619527 8.341845751214112 10.577568278229277
Cu 9.26775639196841 5.319642540178899 11.287473620648305
Cu 10.802272888745076 7.412557678021675 10.72320601486315
Cu 8.028948203122109 11.52620907205234 11.423505295143139
Cu 7.883290788836118 7.386016618134008 11.054215749940337
Cu 9.466545068377616 9.412925652614794 11.486099030082725
Cu 11.445926479105449 5.632570527135135 12.194917664857769
Cu 7.1036056072132485 9.336113785506484 12.448497783981384
Cu 9.636967029328593 7.287492782076705 12.820966163936378
