44
Energy = -130.45177886 eV
Cu 6.281881190362493 10.596959711673035 5.139247446833476
Cu 8.237565932282555 8.568336377868844 4.7217644621614
Cu 9.109019949097428 11.158279577891346 5.434088234777369
Cu 7.524714711837295 6.086694303723188 5.150271416506003
Cu 4.873056846748511 12.250025502822766 6.402189570254296
Cu 10.203226837093883 6.640057043855266 5.636218781466894
Cu 6.0558260659403 8.03501567453597 5.986775345006012
Cu 10.204284447175462 9.09096108131767 6.303280962523242
Cu 7.176407935023698 12.10735066178814 7.031472247020665
Cu 7.773968294937364 9.751231144744564 6.749526148104512
Cu 11.364483902808384 11.275411005130403 6.711218963624219
Cu 12.108471383053832 7.6335047413437085 7.007670142333526
Cu 5.256636165161102 10.090048469672283 7.398182018934317
Cu 8.359631128999055 7.400976578279866 6.8807610835494
Cu 8.814133026645342 5.0731607094688345 7.1466124231728765
Cu 6.443047600993624 5.949143813241039 7.6405054432360915
Cu 4.409797338041798 7.675524289527328 8.133346035527275
Cu 11.465900965560584 5.117809053481412 7.131597536540957
Cu 9.36308836052118 11.327592108437925 7.958779891449326
Cu 11.394297778139546 9.568525006669711 8.457868884709756
Cu 6.615361377886049 8.287641572481096 8.342015892139415
Cu 5.506831830168441 12.205603993272813 8.836677579900334
Cu 10.14447867909376 3.943662922228014 8.824965496440262
Cu 8.136588316451432 6.624502760240794 9.351469756885779
Cu 7.998175901227089 12.641083666010443 9.622820504550274
Cu 12.006873549208134 5.271629340402852 9.569924729784091
Cu 10.357979442052986 6.823039723851532 8.362298221550505
Cu 9.057407592880681 8.870573545208229 8.650564385007286
Cu 12.286556684411154 7.701917804754203 9.629567194191681
Cu 11.240782103737185 11.758834972771503 9.413017951756057
Cu 5.80683721648369 6.954931312706515 10.221739605254417
Cu 9.781498419595943 5.462373002429061 10.688080841341758
Cu 7.219447799417272 10.561196637605606 9.00070768312432
Cu 9.95135521659725 7.951103033054935 10.786232238582462
Cu 7.75645042927407 4.326395515861336 9.292283819948818
Cu 7.566071906337481 8.729117192988378 10.54387119582519
Cu 5.209541645106197 9.442922206953703 9.995607142993382
Cu 7.9139406727404635 6.76572604965989 11.840064565502104
Cu 11.75942170512625 6.555983794634886 11.663436189765992
Cu 9.326804217704897 10.587365701798321 10.47801951656961
Cu 11.600693334747108 9.73279728691889 10.910912165419942
Cu 6.063801156957494 8.56296286124943 12.301929464525122
Cu 8.612863362136927 9.217260479861466 12.552017993954871
Cu 6.9434709663233605 10.907441153672874 11.383072213344253
