45
Energy = -133.68347863 eV
Cu 8.635156641597726 7.079522541076519 10.666639556680648
Cu 9.780658393101493 7.434926995937836 8.546747780850492
Cu 9.835217025304182 7.449068098452371 12.795196336527992
Cu 11.131519425232227 6.890530732116629 10.557019250457447
Cu 8.130305273514509 9.018461279259727 9.274379054750177
Cu 9.890409297096623 9.513103735615125 7.202002763874091
Cu 11.709811719089902 8.821730987644202 8.915219124994657
Cu 8.777133149687984 11.01069265057433 5.6384485856196225
Cu 7.833032086455071 9.139442890229136 11.820592578545476
Cu 7.994238191064439 11.042950987437791 7.900443906936115
Cu 10.01477011513893 10.717664752660538 9.254290524874177
Cu 7.718661089265452 11.156271501249682 10.411380656720747
Cu 11.166956210449262 8.054677023818126 14.772153539846219
Cu 12.077056791528436 10.915404291952596 7.641734069821242
Cu 11.541176924649799 12.552816710915819 9.385886002426838
Cu 13.137881122218014 8.324861737419122 10.894379891162615
Cu 11.741827650808903 9.332756975823644 12.84267694919271
Cu 7.760105121068457 11.45863274161038 12.845215640746796
Cu 10.114646337353376 9.060586334401359 11.007885599215268
Cu 8.918991741401813 12.954083389749918 9.307588946508162
Cu 10.062097999449506 12.318876591944022 7.195765969093617
Cu 8.52198410359634 15.269665810416644 9.782701562772537
Cu 12.261156436395826 6.949473466484487 12.801853150897681
Cu 14.000546747707956 12.402846029106339 8.342215651343771
Cu 12.105100408931248 10.594940645895859 10.768554656587185
Cu 9.981679911792137 11.587844148165352 11.599763416323157
Cu 13.872933405645947 10.045488843596338 9.109764435757235
Cu 10.47843732738598 14.616048919688994 8.407247437246173
Cu 9.07180716050109 11.932125925605298 14.850448124387942
Cu 12.915795648551416 14.338921755418543 9.823738417312136
Cu 7.652927396895261 13.665937830369735 13.902138298644855
Cu 9.432296993191434 9.789695260476256 13.58738352921393
Cu 14.07977779877591 8.66088225497974 13.179328369786296
Cu 15.911473530483605 11.368031495956206 9.478727040183413
Cu 8.112144770424498 13.49972272989872 11.50702460252122
Cu 12.223215279604743 13.50062272706696 7.223097431608382
Cu 10.545257730279475 10.206406580593146 15.697792760850069
Cu 9.957630283967509 13.520560259047711 13.175055380169466
Cu 10.430399303252964 14.277541096210035 10.859862368115255
Cu 14.040397991115613 12.208450105123413 10.722301065320627
Cu 12.107401203077494 12.942842276297755 11.949481980762561
Cu 14.950472762960507 9.958199619499137 11.269364264958552
Cu 13.537470273964873 11.109842632194743 12.905597684190296
Cu 12.8680551456667 9.915740879767714 14.98546877517625
Cu 11.359296772081969 11.630858997028147 13.89375789619175
