42
Energy = -123.67494349 eV
Cu 9.0561698259562 10.965889227209521 5.004122605991641
Cu 9.845035209526404 8.402940241364693 5.301594633695753
Cu 8.03735826398922 6.382029067074561 5.403326279672192
Cu 7.391666385841997 8.958195333229742 5.680421366361472
Cu 10.505339782004569 5.970931931441555 6.828982917690149
Cu 11.474313092226762 10.512315778618985 6.396095768231771
Cu 9.1930038143743 9.976782605578816 7.042119184118597
Cu 7.166633098456348 11.335207177416514 6.911054035043816
Cu 8.691763323951635 7.532628765903944 7.2564815060243095
Cu 6.276166747142211 7.167845839692186 7.271385885780285
Cu 11.119446873603021 8.293603222765274 7.477365194268287
Cu 9.931652089708166 12.28104468802427 7.342492444794595
Cu 4.88303661168721 9.538106177102378 7.583245252091479
Cu 8.381817854214471 5.233930170606233 7.985827317410505
Cu 7.109691767563898 9.238181171635658 8.14997573123449
Cu 12.422244467636785 12.116324021838818 8.379497048851807
Cu 4.0126963502121145 11.713936841993764 8.032975105746825
Cu 13.022174821373085 9.50543536853534 8.581550468188176
Cu 10.837055628375577 10.527042343885364 8.768302433929312
Cu 12.395740256602046 6.605392257606558 8.846667725338005
Cu 9.990889551296435 6.661888150648266 9.13536707869877
Cu 10.727094930183384 4.500164659964464 9.058361225323491
Cu 6.006818892073631 11.149371726222915 9.356590638908504
Cu 7.5046758441985135 7.0252121160962435 9.524469721184847
Cu 5.4000462159219405 8.258782825136194 9.709479630070252
Cu 8.436455810017065 11.306009760353449 9.118755469878726
Cu 13.412875208649304 7.8351573601112126 10.842665288020685
Cu 3.879092565606024 10.15624294931416 9.837262568333614
Cu 8.874888124263208 5.334180445711562 10.726906528182768
Cu 7.415556778379077 9.43454433240348 10.554076068976094
Cu 11.36352207591235 8.499351348572615 10.051038419671752
Cu 12.252725228080628 10.682987306638132 10.72873953563719
Cu 10.421696815768323 12.464719713209519 10.054860203741935
Cu 9.21566985313512 8.874319603276398 9.185846998835213
Cu 7.613487611026873 11.63639761549336 11.406276513261167
Cu 11.298115179781666 6.308791657810904 11.153849133221811
Cu 6.707879893310631 7.537384016685532 11.826240226150473
Cu 5.488221203146871 9.921955376881959 11.730991534695473
Cu 9.774430608801318 10.289421638046356 11.199505283732446
Cu 11.403062114641425 8.661957109230269 12.366859859477874
Cu 9.196260835898213 7.754665663598274 11.434072448707086
Cu 7.943309244218233 9.52851324182547 12.834083569580905
