49
Energy = -146.47740114 eV
Cu 10.149440773329335 7.152561552004577 6.951733648598895
Cu 9.170499100058821 9.382386038032406 6.532096993419929
Cu 9.44043335381034 5.729464865164797 8.854806835734193
Cu 8.169327110033157 7.724431643370411 8.256748936468144
Cu 7.794892450547203 10.175077166664664 8.43564464408278
Cu 12.209498654234363 8.501847824337776 7.062457802064992
Cu 6.325723216952667 8.47454695065719 9.677601391627565
Cu 11.317696788301982 10.641397545966871 6.553865188837254
Cu 11.743625582132212 6.6705630630501895 8.688766420239954
Cu 10.30060532456316 9.101006653095746 8.6045490282061
Cu 9.49041109876942 11.705112761611174 7.659016571007715
Cu 7.890699980630095 6.687294490611242 10.596689574137041
Cu 10.386513700673222 7.112938175928271 10.644303564953693
Cu 8.614113657420308 8.953968733629754 10.424138087380111
Cu 7.737922111465337 12.657149552574717 9.165887475014255
Cu 6.869651600198267 10.698061124349096 10.634568116036322
Cu 9.578475601494986 14.044371326597833 8.212048184556384
Cu 12.735803437879527 8.854946403171288 9.422045518135448
Cu 6.811355612369455 8.603149372109646 12.0963170840395
Cu 13.54842961155767 10.685127777973342 7.617351288745062
Cu 11.66500104521907 12.912775407951123 7.429011297979405
Cu 10.88373922660287 9.506862941845583 11.121507963668735
Cu 12.829048555716469 6.919734154017236 10.879430654012127
Cu 11.663607183357703 11.074891116977945 9.036438912284256
Cu 9.460728900808443 11.345081899458238 10.223327590069866
Cu 9.092626418424878 7.864226051736229 12.599387020875055
Cu 15.606462351215999 11.819109151752125 8.381378272905028
Cu 14.226980598342365 10.729052199682508 10.064141866957545
Cu 13.523987406261668 12.843596814361943 9.035365047276947
Cu 8.882674551026268 10.441354246403582 12.508782604009756
Cu 6.431112319838007 10.880719332153818 13.025946553128275
Cu 7.66466562138697 12.697459630709524 11.700755010465288
Cu 9.111120581151527 14.26114995888517 10.595341288676831
Cu 7.799650811726237 9.257627754521803 14.276583499452048
Cu 11.301185767337081 13.444573176287161 9.886956289773023
Cu 10.235023983910317 9.201088955458555 14.26763538821343
Cu 11.638093947514276 7.914740090654333 12.796233690615882
Cu 12.149372711760694 11.555311191694726 11.328382507479162
Cu 13.46538353755054 9.18467972675559 11.755723400130622
Cu 12.302692932422898 10.322654307552828 13.544258564740932
Cu 10.116932546916173 12.607179780712551 12.264784674785002
Cu 15.429286603760579 12.755851537263336 10.634581195482985
Cu 8.185677800722981 12.299543704247588 14.021881982792323
Cu 10.439940124293384 11.590466915989918 14.453167636182549
Cu 13.326032453825182 13.723461944548436 11.393166308406494
Cu 14.256304783113665 11.54573605595341 12.486361780987782
Cu 8.882294990518457 14.494372404126393 13.028990798914263
Cu 11.17693675872387 14.750790440446814 12.026604179310725
Cu 12.309989851670027 12.826950076301914 13.451400260220039
