47
Energy = -140.31351355 eV
Cu 10.841238288570203 8.571424543927606 5.92015769123094
Cu 9.016507229403313 6.86856503995709 5.849670391021148
Cu 8.224683201202494 9.478576719988153 5.813127135697321
Cu 9.837041314630275 4.592090469681059 6.9729722540050005
Cu 5.601238072990818 9.732748548041961 6.362281434855602
Cu 11.34066808177771 5.975789081414823 5.510189059174116
Cu 8.569978214182699 11.60634227848815 8.626633743153155
Cu 10.26738753025778 10.845702974940806 6.999907507404895
Cu 7.365491118743621 5.051473632330022 6.623872296132656
Cu 12.016340800421737 8.936836213334535 8.113810483962682
Cu 7.233625049734241 11.661825864065415 6.596439663701128
Cu 9.259533105035556 8.709386230373509 7.7999968345097
Cu 6.726581020546484 13.249473026700995 8.452908545252871
Cu 13.068619107936708 7.031129828115407 6.978743865335812
Cu 8.580631349338923 6.2725805478652354 8.229633627117684
Cu 12.156726777944797 4.844892808517421 7.7923667809937855
Cu 6.846578978509233 7.541738844844867 6.910685687110629
Cu 7.108221119850897 9.72165970306767 8.103492549475975
Cu 5.139656257551987 8.35966843861312 8.596340511160404
Cu 8.231073466842657 4.0166711760228475 8.827325413043646
Cu 9.030675451049092 13.48339156393375 7.370670467621469
Cu 5.378430474717621 11.179526942159276 8.61134450496617
Cu 10.83533602334155 6.822843988585353 7.657519344766026
Cu 7.311738257129667 7.784846347812163 9.502838343588387
Cu 10.376345987582656 5.163635520753898 9.551887129625028
Cu 10.773277287421797 12.712353750384974 9.147537340147313
Cu 6.259099162389075 5.7442110490380625 8.80122778150155
Cu 9.934773647468845 7.757758513025476 9.866138681507188
Cu 12.725784068332024 11.052918570694743 9.124182567189697
Cu 10.528180375656094 10.271382034022782 9.410446753034506
Cu 12.288508397994056 6.757618824618828 9.57168346900485
Cu 8.60105069133314 13.837104309383657 9.899717165658695
Cu 8.33924036881688 9.756206553092138 10.213347260409273
Cu 6.851587985405256 11.910501662583165 10.52659046263879
Cu 5.837623664569306 6.947502064468084 11.063518502702502
Cu 8.242719361430648 5.815802518033347 10.687409444910728
Cu 5.994532372673801 9.516774843741663 10.690309729054244
Cu 9.334862716386343 11.759712715168597 10.972803040056542
Cu 12.145199053345694 8.935439351416292 10.654778725626773
Cu 8.076576272520303 7.9628735718333346 11.896142614395224
Cu 10.588875176699103 6.865700545975529 11.831691232637368
Cu 11.69155927802382 11.390483117958345 11.33390865475784
Cu 10.515739540135035 13.678996234745187 11.57231876425504
Cu 10.099312658175107 9.44135253754674 11.976251874615869
Cu 8.094800494860682 13.170128749827104 12.356370937820332
Cu 7.785220626714703 10.545854511499147 12.458020976775929
Cu 9.969604679354722 11.708977796408181 13.213262915393049
