44
Energy = -130.6892054 eV
Cu 9.3732460678108 9.72564210161443 4.674531968912291
Cu 6.923948388389522 9.155395125273884 5.106407475845924
Cu 7.536352046140971 11.596929606114308 5.576059611752514
Cu 11.173272363133039 7.695512231647282 5.055226999722648
Cu 11.859347485331284 10.11876229645195 5.108105051626464
Cu 8.816725676843912 7.524270610019178 5.80836983227689
Cu 9.996887163076256 11.539243607140897 6.338773392477579
Cu 8.241338270352477 9.8586322179274 6.886276626078773
Cu 5.829051149365729 10.20903537792648 7.244821174027842
Cu 12.183733325819116 10.780527607266876 7.499967843911554
Cu 6.692710782890798 7.77625819937228 7.261831563088212
Cu 10.53625075283861 9.149317131900576 6.78582430588856
Cu 10.880560896892142 6.686111805052652 7.4764841884555135
Cu 8.380445184311366 5.795415040541846 7.702236386855
Cu 10.85515567909527 12.753220614880288 8.293737510798056
Cu 7.540297440347816 11.837912561336465 8.247087305555118
Cu 12.728402133529075 8.282379589008466 7.070467622336378
Cu 8.992180612304026 7.984430278983005 8.185241699666705
Cu 5.182431305915806 8.471629851573871 9.19128795119611
Cu 9.646170020414331 10.697200169121464 8.814198050519236
Cu 13.519766946207866 9.311075988519022 9.11750290935667
Cu 7.274071079991359 9.519169696222077 9.069700622194334
Cu 11.178298157230097 8.849455918504514 9.213699707743102
Cu 12.415004734979094 6.980270604006658 9.650385535095472
Cu 12.137954993786353 11.290498961657324 9.846457673220469
Cu 7.2295069201694035 6.9916143623941895 9.664360747120812
Cu 5.650251589299208 10.885195819068173 9.960885718205285
Cu 8.960235360792776 8.585720486114159 10.430101689247255
Cu 9.88619198563947 6.386704498940243 9.842992980129253
Cu 10.044312975853597 12.536256788934104 10.641292556677415
Cu 6.584595333674327 8.868544521889929 11.380386548568671
Cu 12.617227494778698 9.30560062132367 11.39475024625714
Cu 8.348476308150095 6.893026332895058 12.040949039275207
Cu 8.015512412666638 11.0582816419165 10.862191247497826
Cu 10.44140830278215 10.25842560419092 11.19953662014516
Cu 10.775753512085286 7.695266796757573 11.803479715204702
Cu 8.782198828583926 9.270558593117414 12.643764103328401
Cu 11.873549863298877 11.72957434993129 12.33043071203864
Cu 6.9967636843181555 10.698361581689484 13.158885399847867
Cu 7.110633491873797 8.25446298974182 13.903001247210405
Cu 9.380247542580491 11.658053008777225 12.968121180932325
Cu 11.042864854269643 9.659031204083965 13.521382285093942
Cu 9.547741240293211 7.67119898136515 14.178314041678883
Cu 8.822320865331543 10.009219848245154 14.853886136378964
