44
Energy = -129.72150912 eV
Cu 8.579016480917627 12.215600441252745 12.700901490176115
Cu 10.213847420806344 14.682043280334065 9.833862325213866
Cu 5.910040760935406 10.66261180339705 9.892446605599636
Cu 8.265179618728927 13.752578150488928 10.877069828476888
Cu 8.954179684546393 12.898740129006109 8.656724361545917
Cu 7.257664298160224 10.082733703972307 12.13937168297731
Cu 10.396608367263637 14.209970524916056 12.213391812931903
Cu 12.351091467394117 13.637059523104579 10.572644870618996
Cu 6.363633744526294 12.341466521673619 11.617337562012324
Cu 10.880524775639296 12.218591185683023 13.441456374311924
Cu 8.210919522718246 11.290397375930915 10.35040572969939
Cu 5.879238983107905 9.150047060925576 8.016564026717106
Cu 10.196960510990772 11.067699854091488 7.675060261144306
Cu 11.347853888512926 13.240164040026933 8.282505904152183
Cu 9.823471085640465 10.133891784861824 12.420312132867434
Cu 9.513057388028153 8.62731289208727 7.784840501602164
Cu 10.388928086813811 12.189413742642428 10.832345174066855
Cu 12.90126889301099 12.05796820420052 14.818000965651896
Cu 7.571514068602647 8.886816696997132 9.83356965103749
Cu 8.651182652166028 8.071325452774547 11.909940179477395
Cu 7.801237457126982 10.670410080522782 8.03140381419068
Cu 12.229105854523532 10.684361503148288 11.877641429749369
Cu 12.78001022142799 13.695961685479233 12.973786186391685
Cu 7.476210337640715 7.262009632171051 8.022547081610696
Cu 10.189429396772432 9.690987529934455 9.908258987294566
Cu 7.59563792759471 9.001616101806388 6.317787119586768
Cu 12.140302005390858 11.243230858568996 9.426139381460413
Cu 12.575421154871965 11.570785700897394 7.00288402383379
Cu 13.834724727569881 12.911779418715884 8.73114231893471
Cu 11.520960073423364 10.081908851379763 14.272045874493816
Cu 9.209809684691546 7.0894258544824 9.72639112016456
Cu 10.400810763473523 8.026066019175856 13.664716671195421
Cu 14.63048646472117 13.683260971182643 11.322353020450356
Cu 11.932985680505 9.353196629493329 7.83758776473567
Cu 14.434657414524313 11.863896204141684 12.966552568225497
Cu 10.978457608961195 7.778348411368352 11.310102039480416
Cu 14.321150796435028 11.420237316268452 10.582085821635006
Cu 12.404541425379788 8.045618116179108 15.184872192289713
Cu 11.490343083710322 7.3736379115414 9.012164129442427
Cu 14.132167545833976 10.304385734761253 8.443785414995789
Cu 12.714496558516178 8.378333582284286 12.819721554160143
Cu 12.96111121792951 8.95663368769571 10.266079785734979
Cu 14.621854201145256 9.575640278031276 12.031967202294112
Cu 13.931365632214344 9.885294485297349 14.362691990263412
