50
Energy = -149.77136507 eV
Cu 11.469078594168119 7.975516319504667 4.195677480730641
Cu 6.315307143263061 7.909731402676882 4.706361533201794
Cu 8.995428793668312 7.667215434095829 4.977193535600666
Cu 10.817545053134506 5.805724324005173 5.211512305033717
Cu 13.122912174159884 6.788806295520611 5.8067310936684
Cu 10.319824453104221 9.906867873288155 5.234894599928171
Cu 12.73324027096757 9.510983312531051 5.943596880414124
Cu 7.266515564595395 5.734781389936823 5.64498294803156
Cu 7.7824746643504845 9.939906441955998 5.512262532866802
Cu 9.236447890627248 12.14132183404987 5.229514496207087
Cu 11.163206621294927 7.802998394866544 6.50798145040141
Cu 7.125009707679442 7.731407461154505 6.847370437994949
Cu 11.488066428074188 11.74597010470803 6.484766217809033
Cu 11.658583191454298 5.711326776680351 7.683875350268902
Cu 5.127870884694118 6.649612264495661 7.236970047757731
Cu 9.198740291758963 8.755633283344476 7.242771169164212
Cu 5.366443065488738 9.350575649239758 6.543829259386484
Cu 7.221659598157202 12.161018008345298 6.916467401319786
Cu 9.252222069532907 6.238943324195603 7.079887484219543
Cu 12.96604665937283 7.789114223934548 8.147013876118884
Cu 9.35822709575763 11.094563129877747 7.318025624396459
Cu 11.544285899924239 9.851910796458247 8.07129416793921
Cu 7.258985145439261 5.478758705085926 8.209844187574333
Cu 9.418194421376695 13.392117742074225 7.497073059915456
Cu 7.2101951731694625 9.976219243358017 7.9237092068349275
Cu 5.6133670890858385 11.2811467312431 9.18153672799187
Cu 6.4276262890680425 7.850364943823468 11.12528421254866
Cu 10.567878791636076 7.651662997181901 8.952385137310548
Cu 10.646445503102202 11.94252766300386 9.231757278481814
Cu 5.448123933409564 6.166317183396147 9.671479131250516
Cu 7.917354950211942 7.67260284136486 9.093893153402723
Cu 9.518147012600206 9.83416441229687 9.395329172055874
Cu 8.125870105022797 12.042973628039956 9.316734503214194
Cu 5.340554193753277 8.627401497238976 8.98212599652104
Cu 9.721256831127372 5.437597668153912 9.36828900502994
Cu 7.245834020373167 9.934635470560744 10.301590746137096
Cu 7.791924558466443 5.827906686735446 10.809396963513645
Cu 4.074251541385404 7.665613063845555 11.099471846272023
Cu 11.225661980418081 8.873096565896766 10.941768097233977
Cu 5.641193257262617 5.916473362690447 12.208967847878156
Cu 8.840129149187272 8.315104449464416 11.165342918798574
Cu 6.737083486345042 11.831188618993739 11.559484263151408
Cu 12.133981652296903 6.357398850099607 10.093252718772094
Cu 9.240924281472944 10.861013828832528 11.531456757610954
Cu 5.074659118543188 9.944653513820722 11.34942388836607
Cu 10.247439902166171 6.523862789257432 11.636868494708041
Cu 5.417636461485369 8.168228550444896 13.231598902137254
Cu 7.803181279389774 7.120161859826341 13.037570937343878
Cu 9.820112938567894 8.764202542283371 13.173778071147478
Cu 7.354781718571855 9.670607446284219 12.759537782502477
