53
Energy = -160.92699385 eV
Cu 9.537004254311249 7.42522133380894 4.747699495038785
Cu 8.446094434360965 9.603174613234463 4.716495943178956
Cu 9.76718525106286 11.321376482259938 5.676359373934458
Cu 7.21396996432126 7.613504359444683 5.53532093703355
Cu 11.167693361383453 9.2607395962506 4.973647441540016
Cu 11.170437005188985 6.7164624832336255 6.423273165020718
Cu 7.390144379278371 11.909666365623075 5.906456423468442
Cu 9.12779528842268 13.253378026364665 7.195855494562448
Cu 6.072405167381878 9.852537426234429 5.314871364882529
Cu 11.819089943680273 10.807319262859655 6.839698389045304
Cu 9.804080522469562 8.86113305257811 6.837012510418289
Cu 5.441833754760881 8.267970725820316 7.1360723647953845
Cu 13.551356056994479 10.34654882502156 8.578838674355483
Cu 6.309744587161122 5.870785463901811 7.207661670891296
Cu 12.700903320231237 8.533851072441609 6.954056026793688
Cu 8.794435369719622 5.911663037401672 6.544426466902817
Cu 10.577051066511332 4.894697322088496 8.07047848459722
Cu 7.627816141046667 9.914211443797589 7.163282925903246
Cu 9.623153988801898 11.16031482001486 8.125008119868504
Cu 11.400218153859601 9.336532871875749 8.808862872206683
Cu 7.64304365579167 7.59852716694853 7.985296921696114
Cu 9.936268772547457 7.090842887582227 8.573638300975357
Cu 7.241365601547516 12.282267990354377 8.4496053052176
Cu 11.752287143118192 12.065577648235948 9.01230381272266
Cu 5.421055447363147 10.89774639237503 7.477054067058926
Cu 8.97518688160192 9.17032248108918 9.280197773730645
Cu 6.303227754653621 9.32331627578303 9.164963429181105
Cu 5.999937293682094 6.8600763972127865 9.635239048209348
Cu 8.270958433574584 7.205958635520992 10.482353686537662
Cu 9.36514297367027 12.978237327046386 9.795026619367205
Cu 12.243386804971827 6.762241300141729 8.781068222307068
Cu 8.15683881195231 5.329141088340546 8.891093221006805
Cu 5.519776806213017 11.409053845322509 10.090617692315032
Cu 7.8405380933275435 10.932375698230985 10.36550135453035
Cu 11.36747915222185 12.809404057684848 11.365399964752173
Cu 10.791190173973554 8.092132486488673 10.84074569557175
Cu 13.234108015258267 8.454670194123278 10.215646609250543
Cu 10.36715626684386 10.778238310471073 10.551251398731935
Cu 7.121395600976892 13.053487120020677 11.060576970156204
Cu 12.796687210714255 10.781500116022954 10.928955183341003
Cu 10.294545897697684 5.641444712148373 10.508543274777562
Cu 8.927412667431394 9.36312416144037 11.905235546613277
Cu 6.505285528865859 8.801825627303403 11.47625804065423
Cu 6.762973514129366 6.501175045468825 12.155060634209718
Cu 9.124937948460477 12.164638332214269 12.251550172648535
Cu 7.004505382249926 10.929012796239949 12.639257748040647
Cu 11.719621014541303 6.599831528834013 12.411622610429777
Cu 12.591587560217159 8.888921271895661 12.499454359225663
Cu 9.268941399747629 6.671817722939733 12.600028877285084
Cu 11.147479981960647 10.818800193280891 12.905342857821438
Cu 8.989461575581581 10.454089110922466 14.072229556389448
Cu 7.718808280596376 8.337915203839133 13.64512847629224
Cu 10.462395826912461 8.498597773565175 13.635773907861081
