5
Energy = -9.57289723 eV
Cu 8.884233355664936 10.01814516446523 8.675127002204249
Cu 7.365679599066819 7.986852579205256 8.585058481790982
Cu 9.68264882772911 7.825215636464578 8.628388402024664
Cu 8.572570175999092 8.600073701933846 10.608204628626696
Cu 8.649375694185329 8.70957317560933 6.651464542983795
