5
Energy = -9.83174831 eV
Cu 7.834928433827355 5.12337130446735 4.602963716644734
Cu 5.347573844336064 8.165357606930723 7.146300618612115
Cu 4.682853992701685 5.918076265355228 7.068343929666734
Cu 5.819781060745012 4.419774792216667 5.59678409168339
Cu 6.60611838068862 6.662001376942088 5.873497863733136
