53
Energy = -159.31296517 eV
Cu 13.052132931923015 12.850014083385547 14.637024642689283
Cu 10.913072655436592 11.55646065757761 14.504576096252542
Cu 13.048926226607708 10.40177356655435 14.787597317837909
Cu 13.08444302968378 8.003791201127909 15.121154214296638
Cu 8.731290349020634 10.254489158192442 14.138862790818175
Cu 11.18684017997472 13.623623739501161 13.272480038050734
Cu 10.915738973977644 9.132942908496162 14.834122352969375
Cu 9.085050929270684 12.415491102094276 13.108716972901938
Cu 13.420961540333808 14.033243654797113 12.433315936002781
Cu 12.755457541364631 11.595536461391061 12.621978185505734
Cu 12.781316999894722 8.834570469421298 12.857278141033115
Cu 11.371724097313011 14.939982272346755 11.268772347007136
Cu 11.352097226110963 6.96028767123586 13.817542878104122
Cu 10.582618280508948 10.09843311965098 12.50125037290571
Cu 6.831722387073698 11.463721940789387 12.889925579655202
Cu 9.190183112293616 14.68764048806907 12.30904487605241
Cu 7.205033106727486 9.07037166279072 12.593585739524348
Cu 7.733060227299673 13.045200073897186 11.123141739697779
Cu 10.724756901035688 12.258381806323571 11.077535563546416
Cu 13.223019838936175 12.736921794322008 10.363749243167732
Cu 14.61318317018999 10.66858440062495 10.451260491473501
Cu 9.10287194968808 7.878406203862888 13.739409337343513
Cu 13.513592458950104 15.142659330497585 10.231126146991045
Cu 8.491274921125424 10.741560061890402 11.355645149316715
Cu 13.942436378559874 8.273258466991146 10.727261148472955
Cu 9.781352222950419 5.781860925208806 12.371690119847587
Cu 7.346178379393285 13.673081571562461 8.798314785229303
Cu 13.758195063480079 14.052021160887119 8.108136917250402
Cu 12.331685216191762 10.142256329159004 10.75688306800225
Cu 12.271595987059873 6.708142698703377 11.645230274493933
Cu 11.510248144485887 14.107878052016407 9.003542355905399
Cu 14.242848473437794 11.73497796244506 8.27923669083268
Cu 9.944840454665167 7.948069984037446 11.354351763022024
Cu 9.324079401295034 14.535071699048867 9.91191852604398
Cu 9.199423425675036 12.093149840209671 9.17236465236911
Cu 11.686709749223343 11.556143429249321 8.74981073316762
Cu 6.963798380975037 11.174655497750987 9.47255342509619
Cu 13.374660124204011 9.515027731621302 8.580311752428054
Cu 7.446146200106916 6.716373297585373 12.466057070331702
Cu 14.186310547108627 12.77465161412829 6.085271533514453
Cu 10.120792484577416 9.867214722908612 9.83850172201534
Cu 7.763091650217928 8.724757239575702 10.149914964058834
Cu 10.673611076717306 5.850938376105279 10.03581702318752
Cu 11.834779903642467 7.906019384002537 9.544844987857509
Cu 7.787131905185512 11.99637477726156 7.134221813373349
Cu 11.874164469882583 13.208129328097106 6.7365927256184985
Cu 9.554059501451652 13.799493472552157 7.484680117547243
Cu 12.642353379163838 10.880166078634621 6.573148676577885
Cu 8.329251490400619 6.301206652462079 10.33406330673624
Cu 8.542840486876246 9.82402486060743 7.969295124003808
Cu 11.068881212681733 9.2901846100191 7.602788810820551
Cu 10.149324856470326 11.438838012321972 6.810474320150124
Cu 9.541372146436451 7.680034138367019 8.722830953353613
