5
Energy = -9.81537998 eV
Cu 11.180176022632756 9.798612696155466 11.975969427445532
Cu 8.400797705897517 10.022409701858171 8.984977076249656
Cu 10.15156482244492 9.77243542225553 7.437736886241093
Cu 8.940481967538467 10.131516234849208 11.309061848894427
Cu 10.642890710852386 9.702795777604829 9.711568397924415
