55
Energy = -166.58181927 eV
Cu 13.848978202335314 14.141211231577126 13.778718335297249
Cu 9.80381969665143 10.401309379328499 12.831460464718626
Cu 13.661152691816334 10.283836761955232 15.976868440023843
Cu 9.683866221248596 14.13458408210754 14.955617000789493
Cu 13.957020433305367 12.876405496988205 11.597775564143213
Cu 13.735275559400739 12.8561682497257 15.951584630648302
Cu 13.837141150202516 16.63794806255239 13.759715577495326
Cu 13.987821526069368 15.465562605235755 11.558186795213752
Cu 15.75960282021894 16.525767262067525 15.314579067941176
Cu 13.840307883743181 11.589769989694982 13.766545718359307
Cu 13.96965777002127 10.283987378471606 11.538043037219127
Cu 11.641712600289633 14.134370132081736 16.547476146253164
Cu 9.666196656590907 11.633082195925613 14.950843395056749
Cu 16.032405964961974 14.130128746457512 11.01603917724524
Cu 9.608514902642266 12.876425284497127 17.054914700322406
Cu 13.802612248512158 9.09709467789138 13.73799238552296
Cu 16.023665090829056 11.609104637168523 11.008134020166354
Cu 15.891251782857884 11.613296688402663 15.322958297243652
Cu 11.758905345681184 12.871476996950987 14.331693332479885
Cu 9.83779380770705 14.14503552323777 10.638307466820613
Cu 15.721444042410349 9.17875915320753 15.297976665011948
Cu 11.748476879635723 15.457098859176309 14.412747249188822
Cu 9.830823948024344 11.65458129755133 10.625564074721346
Cu 13.681029761544105 15.444415706898821 15.992518850832353
Cu 11.72940419377942 10.297734381300392 14.398438211794955
Cu 11.987587306016728 12.896826797037962 10.007634115003029
Cu 15.895845458464297 14.097755732517347 15.333707104010129
Cu 15.976941602168319 12.855711640756118 13.161055729780676
Cu 16.044426569335904 12.877466877962982 8.88721343101814
Cu 10.006366252921667 12.899371256388413 8.422326843153947
Cu 15.914742616592942 15.364681243289796 13.142576794982919
Cu 12.018406482196173 15.47175455716377 9.99327798634657
Cu 10.042406097938825 15.350305127412133 8.528778215955171
Cu 15.895820155451807 10.342735874124632 13.125866367358217
Cu 9.970407274298047 16.586441196223316 10.680397580756333
Cu 10.023841615920057 10.443324402975884 8.514410888784356
Cu 11.887319296422158 14.162409641691774 12.191807166343692
Cu 11.998689484803972 10.308511202781657 9.97443971253988
Cu 12.079769333311877 14.15410066230675 7.8580377163926975
Cu 11.896482742924334 16.66015360837546 12.228121516670708
Cu 9.94390094768896 9.223717488607244 10.669235998237607
Cu 12.071258566153736 11.632901812339092 7.85143493843774
Cu 11.879907747207117 11.607095404471561 12.178341715198144
Cu 14.087697512439625 14.251682603749858 9.397414708762232
Cu 14.119842739160964 12.890832199110054 7.365684254281798
Cu 11.868045399421982 9.110294638238932 12.211295362888404
Cu 14.076275830138421 11.515779507165343 9.388510733188332
Cu 15.70956688259693 12.85410265314802 17.53746634495427
Cu 9.74047832122314 12.897441519624406 12.796148590379218
Cu 11.63098425405606 11.605355470978967 16.544172543019013
Cu 15.678179954473022 15.304874126750574 17.455701847595222
Cu 9.819103149559616 15.397762917845304 12.842495494781232
Cu 13.6298278358609 14.106832097033902 18.073596319835264
Cu 15.660960136091708 10.410625242026443 17.439063112018268
Cu 13.622226664147185 11.616187126914323 18.07127767228178
