5
Energy = -9.81637207 eV
Cu 9.400405559502131 8.659616056600258 8.590832789876904
Cu 8.109564798374143 9.965287813940805 10.105309875308013
Cu 9.228094651438695 11.429446491587932 11.569589964221283
Cu 10.49332109088269 10.12112496595295 10.121449931228772
Cu 11.747235322183265 8.837368211754104 8.626605670774007
