54
Energy = -162.00754697 eV
Cu 12.703013373066206 8.620965922681103 15.187140727837567
Cu 10.794420184499744 13.450145419834252 7.4490742430312915
Cu 7.828268695887923 14.112697123648076 13.142850464823296
Cu 15.473371797327845 13.03415007751598 11.473514424509359
Cu 12.238119527244967 15.532120949084822 10.764345247283794
Cu 8.1607133190771 10.348991260693943 8.54513172512546
Cu 14.45337901073585 12.416448550689937 9.337311958288668
Cu 11.211154602311018 8.513089304525536 13.195399582657743
Cu 12.361442022707365 9.126150229871367 10.995183245472214
Cu 13.755736807164718 11.210887071654927 11.395602252646473
Cu 10.333047554466193 11.156019386140764 7.724477275606557
Cu 14.831739272293367 8.957863711501224 11.518848563106744
Cu 14.30890290780498 6.465569710741162 11.188518270588379
Cu 6.922777895405593 11.90344146980714 10.000837117365922
Cu 11.570507729333231 12.465651421724091 14.008855771758379
Cu 12.059379891783816 14.772969947669877 13.293787031278775
Cu 13.879178789245273 12.79799416350883 13.326289453096097
Cu 12.785258665099487 16.96439297577864 12.640051252234192
Cu 13.086792149443745 10.36668714641087 13.602805207305815
Cu 8.500523052460059 7.908303409226784 9.302486160284314
Cu 10.961023460289068 7.264489530549196 9.154823674309998
Cu 9.901236008094715 13.105708066517465 12.275009760522387
Cu 9.921512289012393 14.390598782888027 14.357316271933584
Cu 10.348835518183805 14.097808837609854 9.852715571050076
Cu 10.709950293290563 16.675836854342446 13.893962839349292
Cu 9.681691784838872 7.938300231701731 11.45792412167181
Cu 12.57636181893179 13.856938238883387 8.95380129038101
Cu 12.817523265439839 11.7550620225234 7.551187622732528
Cu 12.647115038666799 5.452978515055646 9.556682694071258
Cu 7.252130548867373 10.486702206609953 14.359407255861303
Cu 9.816369533808222 8.749098429723372 7.442396288807451
Cu 10.851436733515424 10.284197832808053 14.791606616122145
Cu 10.215072904914637 9.55803124139651 9.754907395427015
Cu 11.132446501208236 10.93053259044363 12.062596837247009
Cu 9.113394908453657 9.832847748488582 13.05235307216754
Cu 13.435692135297819 7.688585480868622 9.348978458815813
Cu 8.08830623650399 13.965649527011 10.714404457158313
Cu 9.869250957301887 15.459603780222594 11.954091326951527
Cu 13.425086263090362 7.678160651626577 13.059997839442506
Cu 15.567164043724873 11.0111763025394 12.899918006016106
Cu 11.910017126438957 11.410159603868122 9.71779946985623
Cu 7.925900664294937 9.709011909679617 10.926508311999687
Cu 14.084703962598425 10.046431457396816 9.266221181865049
Cu 14.58021445814775 14.775309017761575 9.876058276245166
Cu 8.611010303435943 12.879524369442603 8.385953520386158
Cu 12.06858316334521 9.369262578235555 8.14342683291317
Cu 9.119904991056917 12.018281812246427 14.349839002663755
Cu 12.245622731809169 13.18305121647528 11.42302627793655
Cu 11.872039724409357 6.74964807941633 11.42779383287969
Cu 7.641069255341647 11.770555450928594 12.34569018477412
Cu 15.068608148685435 9.009108473776335 14.118852243373283
Cu 5.945932787478238 13.414373538714427 11.684286245096589
Cu 9.381845953243188 11.73274217049804 10.36674963560845
Cu 14.19809708195092 15.002758774271038 12.211060946523192
