5
Energy = -8.44535536 eV
Cu 10.681034686844075 10.657667971603471 9.621032043745796
Cu 8.762850145090448 7.1133234115394925 8.204416288752126
Cu 9.001658703463155 9.343275756753597 8.716837717713368
Cu 8.819947408855162 11.778949788932463 8.959996040967162
Cu 7.198071842475352 5.623445329757658 8.914004919615865
