53
Energy = -160.68078657 eV
Cu 8.831186725322112 6.940813234737246 7.435957694447253
Cu 7.86156608158493 8.640507433353891 5.915700033690355
Cu 6.630232004727304 8.104490837662068 8.11750896253814
Cu 10.276094821646955 8.641069320968567 6.303517047935571
Cu 10.738853184223276 6.255203415964268 10.377016611902002
Cu 10.755666927102142 7.97982661377267 8.684880735658359
Cu 8.52746254402065 7.366204802752233 9.8307116348568
Cu 12.496078787170317 8.881457376553458 7.333118756201407
Cu 12.807199995835038 7.67727172894079 10.349845768737786
Cu 11.506818022810199 6.9987674853707835 12.5896079619137
Cu 8.678923684577796 9.279689619757145 8.117706649548612
Cu 9.115626371027613 10.931511709463186 6.1541577730298975
Cu 6.803376053601799 10.532982403669804 6.9610269839520305
Cu 9.120357282264044 6.694923325441579 12.160761367481156
Cu 5.985905935536746 10.2748813930677 9.268310951673637
Cu 11.570914017904558 10.631981210201964 5.778151985478655
Cu 6.387080723655539 8.185800786475808 10.57949816508167
Cu 12.241347166232124 9.980838093063692 9.797188409605765
Cu 13.11473814074818 11.201443695862991 7.650377905359189
Cu 10.68853096300748 10.62690312663123 8.10250043155397
Cu 12.398801101833286 9.353245213728389 12.2025595468004
Cu 10.301425083119884 8.678204837381639 11.003421597211092
Cu 13.872244029691645 7.464041651172216 12.638149372569549
Cu 8.14731431403618 9.933732997357623 10.41076410511197
Cu 14.355038924963878 9.267313655567644 8.835056360066115
Cu 7.994426731405479 8.790939544948445 12.479359962895112
Cu 14.612830981590568 9.422908907494715 11.236619286178788
Cu 10.824399350098172 12.69298311915098 6.911895219621957
Cu 6.103311026948992 12.50798529022401 8.138583521677731
Cu 6.124205630137612 10.310126224462524 11.794178499682339
Cu 9.836568881924677 8.16671201429918 14.02552963157289
Cu 14.21506988467517 11.489272058314993 9.933628665580146
Cu 8.350626470206512 11.681730065720195 8.67714761168193
Cu 12.027520471393926 12.608473965709043 9.252127167772361
Cu 10.06783130709258 11.41729888648769 10.484565845087836
Cu 8.353320202225794 13.20957468094117 6.904519936623487
Cu 12.236739458760386 8.559084542289824 14.457444619826033
Cu 14.340120723928063 9.633865959323002 13.703725750845571
Cu 8.322180104300259 10.213271149015611 14.402900749254382
Cu 10.229296675607893 10.30857995171309 12.846588225984702
Cu 12.15433014887822 11.746909481744938 11.613229378728613
Cu 6.7287872765923735 12.315627155470905 10.520969343953356
Cu 14.394823491113668 11.722210133829819 12.4363085641375
Cu 7.564440802097007 14.150741390758062 9.12419189491425
Cu 9.89766614896483 13.675181816451483 8.961743407791369
Cu 13.62016984663692 13.61260761717534 10.952221137458938
Cu 11.175592834218293 14.000288598487334 11.144947362113628
Cu 8.171357603916093 11.535780725142546 12.365319146299587
Cu 10.575754485281303 10.212965726677016 15.25566463145515
Cu 12.405717878947538 11.186665017654864 14.028457671425107
Cu 8.779537790462095 13.56276686743369 11.177375006225597
Cu 10.297245438067339 12.702243443313174 13.08138643268485
Cu 12.638841520058648 13.514965866153622 13.193117136661172
