55
Energy = -163.22149768 eV
Cu 14.262842146435519 15.225476946760395 7.663206333711096
Cu 11.81322993101281 14.83767997649352 7.767460632500005
Cu 13.48576946605068 12.931393131970587 7.959085979747841
Cu 15.2481861285511 11.15628081294896 8.524796080282274
Cu 13.130266726879897 14.819122584611858 9.766204401253452
Cu 10.715718633011512 15.295277358138078 10.039391859932438
Cu 15.901638978675463 13.47476692589693 7.972624133878239
Cu 10.919066384427659 11.10069112961512 10.789960524576538
Cu 11.36859104700377 13.005260077287481 9.275630893960141
Cu 13.07472583633949 11.192620790937491 9.65864238099742
Cu 9.07524867717506 12.213616383577154 9.686132601121642
Cu 15.658474058672386 15.268031202493367 9.720832267170447
Cu 14.538706099901352 14.68647157433915 11.75741235636763
Cu 12.712186115422389 9.710424976768566 11.574402821558225
Cu 15.097322294702213 10.532043021413685 11.016816940838009
Cu 12.257654607976624 15.459099630478267 11.974568886862592
Cu 14.855383398652785 12.908626429215701 10.083219321258417
Cu 10.473538048909054 9.287517289512246 12.484834049827366
Cu 12.690860799519875 12.908581687249063 11.528367551789541
Cu 10.120209611526235 13.406364529811535 11.469053154793022
Cu 16.587859379837088 8.729326862548977 11.860011028027156
Cu 8.854275012072883 11.257006670974663 12.000511512079912
Cu 12.35234470429599 7.642582692752163 12.739992470418022
Cu 13.790578730898574 11.358260581149528 13.070235850168471
Cu 17.577798320320223 12.59560541263255 13.885620494687569
Cu 15.809932494625377 12.658210403755426 12.262634970210659
Cu 16.095145610140428 16.3613263627997 12.0468523103389
Cu 8.801852925249417 13.233809753846172 13.508970447905735
Cu 16.04781279118117 14.581912785439437 13.819433818616641
Cu 14.469641402733748 8.856802493480334 12.992144427147924
Cu 12.359812494599941 9.557118406595 14.213168662655434
Cu 12.564052739690316 11.945573109403059 15.120519170899133
Cu 11.220646465003954 13.840844894322482 13.578220339288155
Cu 13.56760125941527 13.819819997901593 13.815319124022887
Cu 9.883608106708671 15.71417875895147 12.512960896997608
Cu 16.27927962413811 10.560398329808205 13.35936056118287
Cu 10.878286540792082 11.490088368544374 13.343537422109343
Cu 14.174734404914183 16.183198805229825 13.753605310584469
Cu 15.375381830796915 12.386817344158283 14.797460741887432
Cu 9.718749187306413 17.46347991106686 14.365982322885966
Cu 7.792992055241161 13.718397789954798 15.661860899686143
Cu 9.555022249512659 15.146660595288862 14.952625314201898
Cu 11.896240928681557 14.335987838954601 15.933726527966327
Cu 14.622781834811478 10.098871402878665 15.238213826800948
Cu 11.76197454141321 16.23875215708001 14.221663635745342
Cu 16.315621968986413 8.432084075705266 14.42586546632779
Cu 10.668402667663814 10.493499152684224 15.700935323145675
Cu 10.019969599068936 12.793589690632096 15.598910112629577
Cu 14.161376886929672 12.14959043791151 16.9648283042689
Cu 14.666864910773555 14.399475297137117 15.922714075841377
Cu 10.821007167369109 16.59567487596071 16.43482909537702
Cu 11.688429799147416 12.287736624365158 17.379812632901228
Cu 12.792123534381776 10.103677930874442 16.802479034353446
Cu 13.214015500232664 14.27128388920469 17.883215792720137
Cu 13.255238034692514 16.32008453096005 16.160209597965586
