5
Energy = -7.1672013 eV
Cu 13.777365720220349 10.546168170816973 9.60305702684191
Cu 13.007339268707327 11.275276893211249 11.552994128546857
Cu 12.330318969986491 15.948059085481272 15.771276034307762
Cu 10.080231662248918 15.589116702405757 15.683342696563434
Cu 11.11991696067113 14.297455479791113 17.24333945257891
