55
Energy = -165.39915483 eV
Cu 13.660938107240778 10.358684879195579 7.998579745537772
Cu 15.985103474021393 11.298811863219445 7.5654033403780385
Cu 9.73639971553076 10.990072184341749 9.894212429169992
Cu 11.361079651159752 9.48749551669575 8.772425369224607
Cu 15.463839720288327 10.520913025970954 9.749360219075799
Cu 10.489408983472691 13.439895889257922 10.277995209494064
Cu 12.733343930568202 14.160891890499022 9.436342866190914
Cu 15.151821161362433 14.85952003499543 8.981744399363894
Cu 14.340333648345714 12.532737992625892 8.808079189112076
Cu 16.60331300610703 12.721419503575254 9.547638187690636
Cu 11.001165959936227 9.028503263702 11.264395810459776
Cu 11.221739123815386 15.7058072488536 10.673569376009436
Cu 8.65132063540398 12.612354142096704 11.65637162009263
Cu 12.068896055401982 11.729895705748818 9.374858769194399
Cu 13.676278304006878 16.03151403956757 10.705245816491827
Cu 13.257275130390523 9.51326470047766 10.220252982276877
Cu 16.051511006607836 15.996676363053227 11.071047059147686
Cu 12.181911634750186 16.546358949583137 12.717213255931394
Cu 9.00545461406369 15.131760864151943 11.531048901944452
Cu 8.979089747448075 10.2483665346956 12.13451073623159
Cu 11.109558188922627 11.531001804966264 11.771769184322562
Cu 10.666815621645476 10.048991375669337 13.860348486871521
Cu 16.15683408570433 11.655788796764849 11.862441100824196
Cu 13.70447786998474 11.786372703446679 11.411518815483255
Cu 15.05808649260598 13.844025304211423 11.092989674294179
Cu 12.642362798812988 14.032681918965418 11.885669378107483
Cu 13.254462649743678 7.672735969327153 11.808016087508827
Cu 15.14731279374875 9.34699616517068 11.834089975506156
Cu 10.510521397018723 13.700436370996574 12.884590450830714
Cu 14.640006448822009 13.331259052944386 13.382471957545741
Cu 16.597324105273856 9.575814235599163 13.818169411065982
Cu 11.13721099336225 17.90074723447431 14.508801640130088
Cu 14.493564928547546 15.713664756116085 13.024644599231976
Cu 11.943878287762686 7.989282876386426 13.84666343243857
Cu 9.18949604747814 11.94680156593021 14.023283343022591
Cu 14.379841153830036 8.484671087639 14.058862426841047
Cu 12.790095933017756 9.86964254270082 12.66446587716089
Cu 12.424769812820571 12.153636849500376 13.726492364025498
Cu 7.844241789676518 16.54260851660586 13.142855902314409
Cu 10.988579598628037 11.640628757954303 15.781329128522698
Cu 13.270754441145156 16.81225686131953 14.934099961814288
Cu 12.410838762528432 14.577529436457919 14.32028680667552
Cu 14.16230346617689 12.398723108153133 15.565230931221253
Cu 14.72961707539091 10.962059445820087 13.727990227989924
Cu 10.009577734912215 15.917478851023475 13.822880969401771
Cu 8.215303287016582 14.185866962918526 13.66017592083531
Cu 14.647960384669997 14.787816241952092 15.418616974309227
Cu 12.759162487399715 10.00685732480288 15.211700596019012
Cu 12.99606946741882 11.368091861633308 17.28941689953508
Cu 13.2886572734247 15.73627182062753 17.176765900823817
Cu 15.063013816852315 10.073924854734482 15.947440127677998
Cu 12.10294672474226 13.642241945280936 16.709580853575932
Cu 10.069119650209789 13.864288282659752 15.330784615003065
Cu 11.178566408863974 15.950452648292057 16.010458515244395
Cu 14.334769113567395 13.57173257829328 17.643126882455505
