54
Energy = -162.92063562 eV
Cu 9.626071868655197 7.083054520083582 10.690053465857064
Cu 9.017263533741328 6.979651538194282 13.067746695730401
Cu 11.94324831129154 7.840665246816051 10.1505379889521
Cu 7.851485925257387 7.406745709671792 9.087597521839697
Cu 11.302028440594183 7.577988516640478 12.523801481350674
Cu 7.508460150036879 8.11134958615854 11.50302503287572
Cu 10.068929761167432 8.722933123665237 14.438315419633396
Cu 13.617248895729876 8.41923361659675 11.929686495462871
Cu 10.035091761844848 8.564222951863114 8.620887455639826
Cu 12.418960179895892 9.220061249997212 13.949135371193254
Cu 12.410990926689419 8.431403967262826 7.8059239175313175
Cu 10.339206154065572 9.367651549714308 11.130818931682837
Cu 11.164310419683733 10.719295589918238 15.546815225365766
Cu 14.562957889809741 10.231920299922017 13.484420633196029
Cu 7.702242584089932 8.859684998807747 13.844292650819273
Cu 13.60144066082932 10.431415052795986 15.79633629404414
Cu 13.811149233605466 9.23489441358797 9.561002083695257
Cu 11.649915352419168 10.473883939638325 9.177618169438256
Cu 9.329899269877247 11.062945105197711 8.231746774371551
Cu 15.152196619548901 10.354635634296484 11.22356176366576
Cu 8.128612646671344 9.662750041312 9.786019436987749
Cu 10.602794421646278 10.817443353292491 13.091491948926517
Cu 6.555178476094935 11.011511593124224 13.671652949435648
Cu 8.815732823013228 10.927463967722694 14.702162479883086
Cu 15.723441708349467 10.476925467491734 8.776324878025013
Cu 11.03099262540977 10.062577474244716 6.791259506801085
Cu 12.604836239321601 10.641107925819618 11.575206707121634
Cu 8.325596495314711 10.547525524679802 12.124540329521137
Cu 15.475820963188438 12.76014475234652 8.103182878499942
Cu 6.176039686497074 10.34286044927558 11.229619636822566
Cu 12.81882455972907 11.75681886749021 13.971009857785436
Cu 13.849695253428038 11.80258840516745 9.67273095290375
Cu 13.426803323538447 10.938292793704374 7.444373884787901
Cu 11.535245747730514 12.883204220177634 12.168913389273847
Cu 11.263430347650353 12.37329833844315 7.419411131915319
Cu 12.620002313775716 12.776556852566085 16.124785863768555
Cu 9.991643780061867 11.721168289937177 10.65732803726888
Cu 10.690204245874709 12.964717977168778 14.62472038040315
Cu 7.656932385144157 12.043445132355274 9.907406928167473
Cu 16.12343408835365 12.416657270104913 10.461525819174774
Cu 11.849077142344784 13.218914608043653 9.7362523077982
Cu 8.944480227570896 12.77667227435327 13.00035380732514
Cu 9.436052143115015 13.431061115313929 8.88697208100666
Cu 6.714502635156092 12.728184705757958 11.995474587478904
Cu 14.116642122403995 12.711449148873077 12.055009290117138
Cu 14.516296977830855 14.173759728205873 10.021414126997842
Cu 12.733921929379111 14.177858837488895 13.959355144882863
Cu 13.304721614683997 13.654850842536174 7.818973875860549
Cu 12.741036528667683 14.924403581672887 11.621767150494232
Cu 10.35993300036575 14.84830198571322 12.774485952817631
Cu 10.58131230521234 15.223826351965949 10.32869394707707
Cu 11.11819337882818 14.782763037508149 7.839627979372432
Cu 8.559156941449102 14.111764717257842 11.064178669218219
Cu 12.781373904224443 15.658691879224975 9.314548864027412
