5
Energy = -9.81607271 eV
Cu 6.381083261544181 8.238468500366523 9.126991329012482
Cu 10.848019621726625 9.27455976915926 9.954345353884587
Cu 8.611918954646738 8.735715084100816 9.541001640660763
Cu 10.10752529345075 9.08888846649708 7.7239377277979555
Cu 7.885268700136787 8.307535115189106 7.316312414034155
