54
Energy = -163.3554102 eV
Cu 10.05472778373259 14.754989428429475 10.580184012804773
Cu 13.656974763735516 10.09449974727553 7.635760421650905
Cu 7.822256308393865 14.218998723577048 9.556848192096053
Cu 10.146231014224048 13.47103878387415 8.57066771967519
Cu 12.440520317784843 11.702956495840583 12.315661488690067
Cu 8.063339623875274 13.009625811808279 7.393987076659381
Cu 13.391605380595308 11.124651500125967 10.032917182833524
Cu 8.190620528690573 14.341633893987062 12.082524837751594
Cu 10.50902091381528 13.236343871475345 12.403386735923066
Cu 12.201896162882335 13.533072624964385 10.314884883759344
Cu 14.040429636761992 9.80687339067372 12.077420916738765
Cu 11.975394816868608 11.980064325604705 7.971901930248193
Cu 11.470520474948128 9.848584411833034 6.360470714010531
Cu 6.910525181431244 11.828340938505297 9.168919801763332
Cu 11.670279407168882 9.781096252376324 8.861256283383085
Cu 9.283073733781594 11.153222354390707 8.574673112945838
Cu 9.934420531951519 11.786403490577209 6.373037861860205
Cu 11.882852687510342 9.335016131469336 11.29693937236167
Cu 11.951395337536137 9.694811602384052 13.676428717870978
Cu 6.47764511995178 12.660732792201738 11.407193185667046
Cu 13.583035279667719 8.534816664292878 9.76607010485573
Cu 7.48588259074745 10.602448890259163 6.916094973364617
Cu 8.304411718981699 12.141966705684226 13.23173639612239
Cu 8.803122858704125 12.413915570094963 10.759332508378051
Cu 10.63897990841057 11.736189252089815 14.350810810324228
Cu 10.020568624673434 10.688032286485663 12.365333415842832
Cu 10.979683013021972 11.585899793705652 10.284613572555417
Cu 7.239585623079996 5.751534540775656 10.762107288010846
Cu 10.883608336692326 5.808088725591579 7.831194264338474
Cu 6.712810583730861 6.04441005097672 8.2975661165364
Cu 8.642486399717919 5.594408617619341 6.787743345857853
Cu 9.585206012345248 6.208519807195032 11.36157651694172
Cu 6.1780188809695025 6.568714040437933 5.986721844061047
Cu 11.235507132403749 4.977882467088603 10.13785316167872
Cu 6.038487453566038 7.7453188416776335 10.00391192934771
Cu 7.851101392379555 8.002258372158995 11.730667604245786
Cu 8.540151467198099 7.257583909376447 9.353301944776481
Cu 12.108168374652692 6.846355031577479 11.664918055630897
Cu 8.9563878173192 4.89091346496573 9.170348010101149
Cu 10.338760284249329 7.3881463402625736 6.027869720689342
Cu 5.731070750674911 8.486679675752871 7.645268612230349
Cu 12.35003022829175 7.82328232521466 7.494986398040734
Cu 7.926784378408632 7.8523963811785675 6.857353040470344
Cu 9.146824077792749 9.53889229225532 5.518875569739653
Cu 11.053951906234511 7.484889301351179 9.664057830789098
Cu 10.168249203750575 8.195769830245284 12.643482153490519
Cu 5.486650994264467 10.13637425099258 10.234323049080261
Cu 13.06697992483812 6.198426194136621 9.211091202834288
Cu 6.589715959614823 8.978122647498795 5.295894516146013
Cu 7.534922925103263 10.431693173927222 11.5081425677304
Cu 7.488930249002855 9.43988196233216 9.07818361902993
Cu 8.379117866097467 9.5833501700708 13.678744778516842
Cu 9.59249566540364 9.39277109795446 10.33791962676682
Cu 9.782711151062795 8.80523951209 7.884969761472457
