54
Energy = -163.35043558 eV
Cu 13.04944020891745 13.295396213260327 6.501363457032761
Cu 10.669718371283546 13.315156094668467 6.142331718315179
Cu 11.403288898875182 14.493604230167797 8.223125491994336
Cu 13.61962591233202 13.398668207787674 8.858230714972688
Cu 11.926663179209914 11.069181749974344 5.906556765747103
Cu 12.370315103524307 14.960565455991503 10.43000953637441
Cu 13.89110494943942 11.199670238139948 7.5263803696544285
Cu 9.098960436073611 13.437522512354601 8.064221540090436
Cu 9.972268503145646 14.243613030100569 10.309315151514177
Cu 11.560381256903083 12.074648052233535 8.061613248972842
Cu 9.482682410397661 11.29474230278183 6.7323152109723745
Cu 14.156547832659516 13.481112092842572 11.261530612458149
Cu 11.977413399259207 12.486440975829817 10.535765291739759
Cu 12.727441457910016 10.261674864728079 9.36473702194819
Cu 14.687252853430925 11.488706852482915 9.994095702671224
Cu 12.445276003234389 9.01511261034234 7.316420922265503
Cu 11.254678110582836 14.067159582433108 12.41426174687004
Cu 7.732998310025149 13.054497636490426 10.243444962648175
Cu 8.689218737673091 13.791198977694538 12.429993495438177
Cu 10.380450364996323 9.15450905947574 5.995815080499966
Cu 7.691779110080128 11.267366480837358 8.401077932035275
Cu 9.748875229119749 11.818467102300971 9.64965782111522
Cu 13.33507748395001 13.276725681555776 13.474030816434519
Cu 8.319274380220742 9.09527745494153 7.363313656949264
Cu 10.412293442280268 9.741293594788768 8.468891362177816
Cu 14.820921028084838 11.43420186401942 12.567150071574092
Cu 10.914340292371287 10.039451913438182 10.886156839983494
Cu 11.203660569336309 12.355401404759286 14.273982992760688
Cu 13.32038241424483 11.27074088573595 14.81633726773721
Cu 7.561141973552184 11.548756974360819 12.268308292241976
Cu 10.071517101234306 11.917582178874124 12.156382418670937
Cu 10.32118870007796 7.4219417244241495 7.700271451066068
Cu 8.49029507604514 9.792517105344656 10.289283762886614
Cu 12.456577368603773 11.048817991636172 12.51285048898698
Cu 11.745066299304698 7.9188358556824685 9.697410703804316
Cu 13.984304552884568 9.49297999187669 11.231458706975102
Cu 12.074433220690757 8.370520566481202 12.240379827543117
Cu 8.988572421752425 11.389047806423836 14.352488847985242
Cu 11.273509152878276 9.736801887504946 14.269334332882599
Cu 7.970767427466399 6.928130110713084 8.328221343496203
Cu 6.607637353200433 8.848993872821382 9.158714948104494
Cu 9.786678584327825 7.858313332942056 11.210441243403713
Cu 6.246077547595749 11.053377839419907 10.307015186773645
Cu 9.213148066853396 9.638919112872772 12.722443891180346
Cu 9.813631153226465 6.050137746231229 9.657259978900445
Cu 13.78725708126327 9.23800363324924 13.650635052589852
Cu 11.431496215254677 6.140756071652701 11.547465848510358
Cu 9.09096976226943 8.891531669275457 15.037802061387033
Cu 7.5031189642967275 7.083124671661475 10.69148231931829
Cu 7.09559250837063 9.821589921969084 14.006856294895101
Cu 6.630067891570427 9.131899986464456 11.7251641927674
Cu 10.360656455803072 7.329827789128783 13.604461964338654
Cu 9.064293929836065 5.7109129184804885 12.077704380426116
Cu 7.905463330256855 7.580653985907845 13.157957026143993
