53
Energy = -160.27134579 eV
Cu 16.202591746638486 13.22719308508184 12.169053666945917
Cu 16.06733642857729 13.211475152609314 9.657009412364724
Cu 16.49125647827911 10.77612376285038 11.97816439576871
Cu 14.761720726882087 11.550643947684437 13.519521508988051
Cu 14.771990992043921 14.888074314534 10.909727025654837
Cu 15.98787190945842 10.664848708027913 9.55649393806372
Cu 15.27922188338573 9.2143841177611 13.540919568796717
Cu 14.479151915009284 11.961310874446715 11.006227037645045
Cu 13.940827719487165 13.731588552788514 12.860786328912859
Cu 14.314419032119385 12.027462463963953 8.402591399702244
Cu 13.08140489903996 9.931357658816097 14.587592403484603
Cu 14.55994930496233 9.438217387760448 11.234996911964288
Cu 12.441719712796274 14.771232033196313 14.450607021252667
Cu 12.537544941695572 15.605886561403661 11.852892502293559
Cu 13.873526553166366 9.552557145817403 8.852887474530341
Cu 12.538141921259957 10.867922409596098 7.2098343296805405
Cu 12.601078246762587 10.85773149320817 12.21219992762098
Cu 14.14400519604086 14.445569189413524 8.602001398129309
Cu 11.267236969062886 8.302540928378393 14.878507460145604
Cu 12.578929912810796 12.274279681583529 14.415655209397743
Cu 12.337846395424977 11.166070889123533 9.751867416746297
Cu 12.68845495482415 13.547269277213758 10.440879683090767
Cu 13.138527642439167 8.18586370902424 12.93933583468906
Cu 10.437985954540231 15.559816382423877 13.358131626894357
Cu 11.517744883748442 13.506303143784415 12.592911909833555
Cu 12.102774467721728 13.172130789464616 8.035389871710926
Cu 11.911993164154767 15.397414975814826 9.167900974193616
Cu 12.289143396042768 8.700591585830441 10.663009903296826
Cu 11.378950301847235 6.7662077489366075 11.997836226104646
Cu 10.376720012715117 11.384652203898238 12.992416937289386
Cu 10.80138905203689 8.993474565814505 12.639669868340714
Cu 10.75419269018848 10.73538188756126 15.256419628565164
Cu 10.347945051991594 12.502719252419023 10.674716736160995
Cu 8.93668850478093 9.381584284111476 14.323450993506475
Cu 9.016583426335595 13.641546083848798 12.796437993944696
Cu 9.537568614263261 7.0967305419663385 13.569473626962534
Cu 10.374020041191532 11.406646352287284 8.180105537231205
Cu 10.086595469367305 10.126229060080469 10.54573436340192
Cu 10.244604524209183 14.946459757434882 10.947969651904714
Cu 10.371341893952668 13.264854653397634 14.801850540635053
Cu 11.352618729489182 9.12027775092282 8.48525150712736
Cu 9.913891681194473 7.787361703331253 10.260253187028043
Cu 8.331620570116504 11.417611243332185 11.714815265261606
Cu 9.800466196163098 13.818098846130724 8.749399548934093
Cu 8.388010661551894 11.752237282661257 14.376029374477605
Cu 8.411265829501053 8.614935485852994 12.062716355425806
Cu 7.9870583300771605 13.690938396276586 10.601302449047258
Cu 8.243874470859748 11.714991742373876 9.2033448211792
Cu 6.730911095561153 12.825780825770003 12.840595268926878
Cu 8.935335654445664 9.393950330442904 8.506149272439222
Cu 7.29849372653583 9.689986320204403 10.278532140409064
Cu 6.812743870848088 10.232635907164564 13.039626846878711
Cu 6.214761277125638 11.853849156852503 10.676443972555614
