5
Energy = -8.09215636 eV
Cu 10.120312019255989 7.858123391009985 7.9595929342252605
Cu 11.200528126026827 9.924177128902326 8.279358123180362
Cu 7.8661766420132055 8.30797683147993 8.30390328629774
Cu 12.434214223316513 8.001087195226466 7.917768051072138
Cu 6.96509822490791 8.561769413443361 10.09691371656944
