55
Energy = -167.39283889 eV
Cu 9.670582464767756 11.451050169977929 15.512730093161485
Cu 15.289192990227487 13.632069766944346 12.059680961267945
Cu 14.317119984936683 10.09601922188175 15.20971133131506
Cu 11.444614066953974 11.934684749363718 10.254433784980481
Cu 15.339362289171332 13.911463714953447 14.536116381889743
Cu 14.121069684936725 14.477371808229295 8.408413455125359
Cu 11.05440285793612 11.749072580236584 13.529055319162383
Cu 9.361823762963704 11.93900039571838 11.705312810379917
Cu 13.200194289818052 14.289400506450653 10.732928823973362
Cu 13.764625225587597 11.92165167065086 16.929031213338888
Cu 11.431165946735247 12.650170893721848 16.75964998259129
Cu 13.161318084370215 14.440952491634134 13.24638071290569
Cu 10.909917337971523 15.701562334808537 10.615667236341272
Cu 9.009364615796535 14.913454637569528 12.086404807895306
Cu 13.23721405364307 14.47261137053987 15.815540121631475
Cu 10.992777602466537 16.134144070244115 13.05763045579546
Cu 13.763237411628236 12.227017782042084 9.483419821593678
Cu 17.63174754202588 12.645276511633476 11.012400838616417
Cu 15.526816479782624 11.302130740058232 10.936127306855635
Cu 13.232832061478012 12.140946245113629 12.075464803676136
Cu 17.556115991898793 13.288417932206915 13.305366953455367
Cu 15.407014748006514 11.655575332458135 13.553340891498324
Cu 13.235199239690902 12.333685565023911 14.573787234592846
Cu 9.657365384842123 13.668697202559283 10.026614710475709
Cu 16.023063466582133 11.742297281262584 16.025212250800312
Cu 12.8776791075244 16.323335462295933 9.344632393169592
Cu 9.231322942337114 13.739867982417703 16.227664953472605
Cu 15.100903401264713 15.813876389044312 10.439261424300069
Cu 13.038446387442368 16.530202878736553 11.799398760677947
Cu 11.112990878015642 15.016402930236325 17.168634760730892
Cu 15.16736637144175 16.07287713016178 12.942518669733618
Cu 13.175967457661864 16.64733153249445 14.333815251779546
Cu 13.095431261110944 13.981700185838967 18.16093315589329
Cu 10.987239851583764 10.063749649096918 11.70659975586604
Cu 17.398920233435465 10.756189841795784 12.525131763876509
Cu 17.435276559523764 13.764966771384758 15.766626032771129
Cu 11.945512804006764 10.501335449428527 15.662816135715865
Cu 18.11417599333872 11.55895829061291 14.817526011269472
Cu 15.312551441626104 13.949578714861216 17.047580474338872
Cu 11.745738868055602 14.011929078858811 8.843669044210715
Cu 17.140849851718055 15.07610943366825 11.606216922178584
Cu 9.074621713325785 15.506564250764812 14.495585829815116
Cu 11.10092188821208 13.69218776556015 12.073690865696776
Cu 10.36059662463507 9.533711450793827 14.038445345838007
Cu 11.043700677381516 16.612723562270254 15.433421494123763
Cu 11.10016513920489 14.080514734288796 14.66379423690423
Cu 8.948200149664174 13.121344627400902 13.81887806527271
Cu 13.106997877675148 16.558544622983437 16.88444245497337
Cu 15.066799364894246 9.493143105748755 12.609697109144493
Cu 13.322422321210151 10.092064007907064 10.854133479126848
Cu 15.250128830124972 16.080539954618573 15.590098789295643
Cu 16.589933027390487 9.708957259216843 14.572777891866076
Cu 12.768796941610116 9.896521030899263 13.345573403541882
Cu 17.1831852604981 15.555485111246538 14.096165209519198
Cu 15.893140369163161 13.568682999379938 9.707969190873092
