54
Energy = -164.02846314 eV
Cu 8.63151402035632 10.07686576755748 4.9892109962372935
Cu 11.162080565774836 9.730014120711703 5.531095036436146
Cu 9.832799698813641 7.842063086621331 4.485850408686244
Cu 6.114199688678477 9.866356767075175 5.0936035208461385
Cu 7.456450081482692 7.697937158126516 5.320594825409709
Cu 9.117037475959256 6.14024716165802 6.244255124809073
Cu 7.299617970978661 11.910355406539837 6.385354669969101
Cu 12.07608832305845 11.405782420357303 6.939056459862915
Cu 11.527187810555423 7.3785374412372615 6.325498620232037
Cu 10.077010131079383 6.884475057130547 8.420685795434357
Cu 7.349958285309227 9.557794342344806 7.021573248129774
Cu 9.47565881859327 8.542192356714914 6.7147686192169065
Cu 9.573756745461885 11.065081732010514 7.244945998152913
Cu 5.502250537647282 7.9212176271878265 6.82590351242242
Cu 6.698513678749765 5.660749308516528 6.872800488555884
Cu 7.7137353552037515 7.381981941112683 7.982764117897653
Cu 5.242325814005658 10.719689773273357 7.3616163127001535
Cu 11.03768375748955 12.691838827878243 8.73802736655535
Cu 8.542643843662649 13.16630517795288 8.335320437816575
Cu 12.504528436234896 7.096481602358415 8.52798664475061
Cu 13.40204551015211 9.254193005114374 7.29471775384926
Cu 11.297691744719007 9.319721544773174 8.202097171996785
Cu 7.3225670753539305 11.12099256313058 8.767488961846674
Cu 6.048636485150629 13.043984741734821 8.331385638205303
Cu 13.0477067451697 11.248112430472892 9.119325820256698
Cu 5.780687304237978 8.911841914355257 9.016342553635267
Cu 9.025379194117813 9.268441080624374 9.09171211035893
Cu 5.943642024448822 6.394033916329261 9.242176600127971
Cu 13.441546745243258 8.91264982035575 9.827385877069828
Cu 8.337283628985533 5.446275965387621 9.453493178015302
Cu 13.333181040366783 6.640130037691167 10.728416802937618
Cu 9.4009459131336 11.486922489834985 9.99460655458756
Cu 11.128470202834547 5.466590700897852 10.105640079478121
Cu 6.955774664458357 9.911944928121601 10.869187133313787
Cu 11.382000177544956 10.144663023762728 10.499021914192493
Cu 7.907958289484103 7.652378783895639 10.43298530028102
Cu 9.602890449073822 13.777671818722377 10.555246488296538
Cu 10.824354788223921 7.803911847800306 10.57671398839485
Cu 7.294299612586519 12.517825630056967 10.763319927240351
Cu 5.180961044669608 11.243802397865263 9.83047824475871
Cu 11.64347637827577 12.456802028718272 11.140857187643538
Cu 5.615160946663411 7.893654544805607 11.255235689797033
Cu 13.4432306735722 10.778558992755121 11.534960707206812
Cu 9.257269507954385 9.622097762374533 11.63020470674331
Cu 6.900544452089958 5.821366793305162 11.548128718547794
Cu 12.661505379310746 8.51973255599783 12.185034943555767
Cu 9.331592101224109 6.173196418374819 11.772412927502371
Cu 11.691063537210022 6.223407760486321 12.408933603528494
Cu 9.511560111859518 12.104724792324346 12.416127326614042
Cu 7.4015614292594805 11.035253112560294 12.868231289345404
Cu 11.378149517979217 10.527222008608415 12.932814702606102
Cu 7.715507013725281 8.164672616941404 12.809842055373592
Cu 10.35914125921241 8.078037237102132 13.160047423717252
Cu 9.241892975676294 10.043936621417446 14.019233377917269
