5
Energy = -8.89183909 eV
Cu 10.292126079733409 8.574709619413696 9.185812175647838
Cu 9.170945183228673 10.682185942534533 8.999964322016282
Cu 8.967842311928306 9.517712784887433 10.948687075290055
Cu 11.652848806617484 7.015790238498022 8.200369533057685
Cu 8.08545141449102 11.745730199140278 10.798455179042783
