54
Energy = -163.69436653 eV
Cu 8.141205456239794 8.966581016824621 14.28764952799839
Cu 9.27700844562922 8.971376063215073 12.160900056312745
Cu 10.53476415126963 7.826840557192578 14.011067234484834
Cu 6.90773292433734 9.09524249985612 11.906086345596503
Cu 8.54809464967092 10.500705728778836 10.245672907102893
Cu 9.996874336786947 9.25958381607105 16.037526447561866
Cu 10.523879213198569 9.030659443697633 10.026405396176646
Cu 8.52698780118902 11.225840972914117 15.367444350602335
Cu 10.987544680645952 8.674060832945539 7.223659372821473
Cu 10.198304353097862 10.294319214045249 13.930465656333757
Cu 6.341527394967287 11.170575510812183 10.495843676786997
Cu 11.77560824827252 9.27680484501141 12.25267212818665
Cu 12.008264111713313 13.855292350174208 13.479748975411947
Cu 12.256981402771014 9.310609387837694 14.936011517891256
Cu 13.297047404202724 11.003668793380358 11.536633303411758
Cu 9.831811847085998 12.674374744676761 13.796414801328407
Cu 7.328505282652294 10.524016631866965 7.997545395785508
Cu 12.687213502517169 10.622376817208007 7.389377091773639
Cu 11.003628482066993 11.60189285365321 15.775538659276743
Cu 15.656491506667976 10.58403016466466 11.600362932745583
Cu 9.904377101149842 10.627062789550195 8.139264494720685
Cu 6.65326078206746 8.82540706074703 9.547602405045899
Cu 14.119337190387768 9.678573703444547 13.410971641717717
Cu 7.6375250728538795 12.759987391457935 8.872297234950038
Cu 8.473714616681423 7.463069342398131 10.481631299079272
Cu 10.15825917952508 14.015119670779084 11.793867898901077
Cu 7.989922906345488 11.04702547004588 12.882089465636287
Cu 12.902964840593132 7.420001184204935 13.054346528913092
Cu 8.850242032798997 14.790275984696516 9.934093455879237
Cu 10.503462316134975 11.377844842142364 11.700752486386156
Cu 10.643200960468395 7.018534480856632 11.667162340640381
Cu 9.984952408426793 12.659389633031799 9.614936287908485
Cu 8.770984988013291 9.606494138979112 6.214025952205904
Cu 8.730570349173194 8.352410245090498 8.270771139250536
Cu 8.099749649508153 12.800624011420885 11.274284706757738
Cu 9.366682166514789 14.18037497399203 7.678586892134249
Cu 11.999481363580458 15.538725372385926 11.519745674409192
Cu 11.856695787770304 11.032167462437496 9.61557087200592
Cu 14.150513467369276 8.692277622225717 11.122187231047437
Cu 14.60806808167589 12.240185261674547 13.185440320759145
Cu 12.30708611619971 13.153754102153098 11.003465187836879
Cu 8.744457742441266 12.094575310671665 6.6309322820110035
Cu 11.351299063962701 14.64357439083427 9.190901005763001
Cu 12.344459515717915 11.501658629921177 13.7560157142156
Cu 10.705493953326846 6.922433970395027 9.061692822356921
Cu 14.060679644653796 14.437097489271027 12.316867297080748
Cu 12.726432457078444 6.88206298696642 10.55766113255665
Cu 10.823215354224434 10.801781602105699 5.841232040477267
Cu 12.76503559021509 8.654077245865693 8.935035952044972
Cu 11.2385872451462 12.698426099034036 7.366936865934299
Cu 13.307291977878055 12.7647564549699 8.663679089461796
Cu 14.338715342821521 10.557614424553783 9.379908527866283
Cu 13.748166250256759 14.829016646989585 9.911140837635365
Cu 14.847333003465922 12.739497915417061 10.700528558256464
