51
Energy = -153.79167094 eV
Cu 7.945618195878918 9.891208291172047 7.065688816909285
Cu 9.365020420062159 11.605060209861495 6.016604707822562
Cu 10.421881093696847 9.537247671535862 6.852578584837837
Cu 7.529570767847081 12.302706532913357 7.5785351570818635
Cu 7.29054511474753 10.322994357800683 9.383489156669446
Cu 9.217374262123153 8.774079597577531 8.867203694911584
Cu 9.899367652289538 13.506227536728067 7.450845928763105
Cu 9.466879579662722 11.24054052381707 8.51440314001118
Cu 6.321323522767793 12.508580094019047 9.708693578550587
Cu 11.582293036309029 11.776905830613961 7.12321421021568
Cu 8.256566567965914 13.994404917624188 9.228112287417009
Cu 11.671174888785183 7.734582470965292 8.29773275474908
Cu 10.518567930393349 7.650710450720515 10.492330640295505
Cu 12.916774251171706 6.850115494508738 10.308704818851345
Cu 10.09843815437898 10.204897062050737 10.864143888700577
Cu 12.857165103331688 9.655788089373686 6.991991245429411
Cu 7.145178880079655 14.050592579791447 11.412048682225604
Cu 8.12970761989427 8.870581388591521 11.199695116606117
Cu 10.819249348369807 12.821253918386638 9.851514444909226
Cu 10.314296135984957 15.205675862828416 9.090732746289904
Cu 11.570015574350798 10.016370171919709 9.031604147585547
Cu 12.374478438324987 13.817174988451974 8.276021671407252
Cu 6.647029169387156 10.994685801132535 11.693118069034629
Cu 13.463800484858385 11.491358572398166 8.680970970302276
Cu 8.551485934312371 12.122166544755931 10.793312445372939
Cu 13.770887515144414 8.917362747839777 9.133001489387665
Cu 9.707154930151896 14.348402806516686 11.43450656369038
Cu 12.327869044475188 11.31501412046465 11.067003269502028
Cu 8.18491717545887 12.773265931778718 13.173225413295693
Cu 12.251289076181239 15.10535316207784 10.384310265768596
Cu 13.741750873636603 13.186354244181787 10.396195170720642
Cu 8.55617166197165 10.371809128006428 13.113253166563004
Cu 12.487845554893578 8.915806968075874 11.402252962913604
Cu 10.2067663364762 8.626316918213092 12.736459401468824
Cu 10.435645955715195 11.992441669998744 12.496086099300676
Cu 14.619096784999467 10.678042529696137 10.738083043002206
Cu 11.609340277396225 6.648610117570469 12.421136332538326
Cu 10.214674580101368 14.010309025806967 13.851430477833173
Cu 14.907150729372045 8.209444251232485 11.144705411127585
Cu 12.111453897921654 13.706282524957116 12.263218239799205
Cu 13.975574915595967 12.151644023761552 12.703252652951873
Cu 9.81704372025921 11.71157839408121 14.854927503385802
Cu 9.697659938329602 9.30399082559329 15.017086800772574
Cu 12.205225016330841 10.30421954040594 13.407561383574357
Cu 13.700472673873483 7.552044466225309 13.146306237573532
Cu 12.111496017061505 12.566751649877375 14.460553120007512
Cu 11.685182052081226 8.003999877156287 14.543137774124759
Cu 14.711693987378853 9.809053420288457 13.035585453358513
Cu 14.068391997156436 11.285856382679057 14.951241806906099
Cu 11.796427360308488 10.3655717338588 15.764414692825204
Cu 13.793703055882464 8.934225692349619 15.146910008947668
