5
Energy = -8.87976895 eV
Cu 7.937117007503603 9.805527593938052 8.055238248915778
Cu 9.720271236644857 8.040407242590112 7.377596287248575
Cu 7.815176989328823 8.504077563904941 6.151301890241447
Cu 7.616882644730266 7.460295371068044 8.361625088895096
Cu 6.834982850635368 6.083238197910613 9.9488900282882
