52
Energy = -156.29726648 eV
Cu 12.365677132992854 12.852679520803557 7.5885798424236075
Cu 10.582005662288314 11.8271078445167 6.092265168809397
Cu 10.130533756165091 13.916373864487465 7.252194325790372
Cu 10.101731384697592 9.54783569327759 6.849973789293127
Cu 7.764554278310376 8.569946767767833 7.028465826540299
Cu 12.081537578593409 7.795352940441797 7.62913695758704
Cu 12.332699058128986 10.47071620295439 7.233564562397615
Cu 9.640518423406823 7.440457360168286 8.13355453375234
Cu 8.140542582461695 11.257993528506072 7.193859555706611
Cu 14.324148330012513 11.64422734594107 8.603584652810124
Cu 11.92986392443 15.24733195183685 8.052496574426684
Cu 8.181970315112773 13.594861646690788 8.519806795490771
Cu 7.544580988877163 7.531747879155691 9.485744565659978
Cu 14.039658532238878 9.20784973087968 8.290536296015334
Cu 11.305351618807373 13.574342578536271 9.823686476785111
Cu 11.11059414044067 6.362162177276345 9.658032866222287
Cu 10.141051603524021 11.732315859361524 8.4983121746712
Cu 9.746589410015604 15.305920443652283 9.408941501379164
Cu 6.382072667202594 9.717820138939937 8.670607319058602
Cu 13.667166634064428 14.010373396507877 9.403784492755436
Cu 8.765572039870943 9.631615333437649 8.911164118428477
Cu 11.160940923141625 9.293033652935591 9.161107927291573
Cu 13.02612194188818 7.83771954988416 10.001015490138775
Cu 9.673760742245005 8.09980331385534 10.715164211806671
Cu 7.59915344244897 11.629016018982027 9.709621566926709
Cu 12.270628634198731 11.342644479700215 9.802996840288875
Cu 7.405196822580604 9.5227946135243 10.941743271860178
Cu 12.049398551477491 15.901566621867069 10.343561604736916
Cu 9.018732650174604 13.275022480732607 10.829208808406767
Cu 14.20679592715081 9.952679896790217 10.577673179116408
Cu 10.627639175072733 14.698552662139564 11.949679870811812
Cu 13.078638566573726 14.334723814416673 11.804551388781556
Cu 9.570937324807083 5.8319296997526 11.582521059011452
Cu 9.867127631467383 10.86844484117071 10.79923958354457
Cu 14.143262160377322 12.307298385952583 11.104249569968257
Cu 7.686385609348663 7.430314779618408 12.11424889834202
Cu 11.707205429653568 9.482767843556068 11.591118698766595
Cu 11.75691368057161 6.960001541872394 11.950559774480288
Cu 11.64790921175271 12.357748005149297 12.00598128838352
Cu 9.257536270130817 9.405518065859376 12.793158641221602
Cu 6.788589390631561 9.638898150142305 13.26399377653906
Cu 7.826426074374442 11.591644593429972 12.211775651973204
Cu 13.815121384217417 8.291431227256483 12.29095150564997
Cu 9.600598289312947 12.864749492955918 13.263269785579054
Cu 13.337868099417044 10.720578821409735 12.844326740044814
Cu 8.194055328207021 5.682886161722582 13.673166655771677
Cu 10.985650870973185 10.886996636471999 13.808509396690779
Cu 8.54382612805715 10.957778575840488 14.50868976673544
Cu 10.09118020740968 7.115486610675404 13.680457807843894
Cu 7.9737184309352545 7.9978847161098585 14.52617149935619
Cu 12.007743922100575 8.628734996252595 13.851888500923897
Cu 10.025851258764638 9.075651685937547 15.194438984107634
