52
Energy = -156.4263093 eV
Cu 14.204317966672344 12.750628378444096 11.794119786943451
Cu 13.082262943184695 14.219545305211916 13.443890410985759
Cu 14.592465718194207 10.332368950815738 11.534159142353273
Cu 13.441821235456453 11.825940323884776 13.960725265025108
Cu 13.248425450657825 15.023264984864433 11.073605321201148
Cu 14.26180086720013 13.339382365106081 9.484460224162031
Cu 13.618014408500072 9.440511186243048 14.152100869759836
Cu 11.034159596811069 14.839706984804984 12.25662850216188
Cu 11.793508808492396 12.486183700910761 12.301145120247734
Cu 12.642097994740237 11.343069257756058 10.155519444824414
Cu 11.13842979563101 13.008484431534907 14.557252646435652
Cu 12.717666483234092 14.920104768560508 8.356352754626041
Cu 14.585165899047121 10.885197277664087 9.001806197059402
Cu 11.026535275454165 15.782384518417011 9.957108112369927
Cu 13.646217977578196 8.008622400546212 12.181338229641826
Cu 12.822459735546602 12.481551743450941 7.773469286066041
Cu 11.345750014311283 10.532341761871308 14.539048335107378
Cu 11.727138987338112 13.52479025873421 9.989109172158894
Cu 9.407179887154955 13.080095655546337 12.849326127027755
Cu 11.524716798665022 8.197019328368448 13.493676921281864
Cu 10.657066155487934 11.577126070777817 8.428270259437786
Cu 13.261959975849152 8.87028982644258 9.938823118015215
Cu 12.31952541456993 10.095933612330764 12.243962494098273
Cu 10.168072283239617 13.963680490284512 8.24165988012363
Cu 12.44048050344847 9.997534256259028 7.891865579977131
Cu 10.089118717849983 11.865898986491311 10.689865062891455
Cu 10.863592427152323 9.519976103324536 10.230672974759937
Cu 11.330715886748411 11.383573147077946 6.136392672006092
Cu 9.865979028455289 10.469411497983467 12.567584900614733
Cu 9.917917582271063 6.405331786237428 13.521272239259751
Cu 11.546790436780068 7.260623369731834 11.033918383696907
Cu 8.974698458960216 11.36567364362576 14.55765285455407
Cu 9.246970412612486 14.124711748416246 10.60527980847027
Cu 11.43990056843514 7.803662267695692 8.476660226464617
Cu 10.71937823020858 9.013310814309806 6.262811299214971
Cu 9.459538574822187 8.149122326989316 11.96259789119974
Cu 9.257291847885522 8.839888312504392 14.34730305213685
Cu 8.873157362485484 11.39541837113346 6.789321940917792
Cu 7.733649935965764 11.904701880421259 11.551532658806648
Cu 9.451896651170212 9.420571465103166 8.200873589526314
Cu 8.325825087235987 12.336934649329939 9.068278987519385
Cu 8.45900094408787 9.895907942483428 10.341756650624337
Cu 7.618382927184762 7.2887998119736315 13.29997502374922
Cu 7.476818665807171 9.7226546594816 12.721240609426353
Cu 9.36549484885016 7.3317908633257876 9.658513438709017
Cu 8.64729988515942 5.9072244961390545 11.47645535447115
Cu 8.05189434967473 9.093070009455886 6.288965981403627
Cu 9.350722605466428 7.180246662419935 7.214133333000927
Cu 7.100154820212281 10.4289583503336 8.215959593982157
Cu 7.142276973462955 7.8601512071684105 10.942416376048069
Cu 6.159227625678204 10.141645015621512 10.556168243112301
Cu 7.320161543859224 8.066844454339494 8.507429473646964
