55
Energy = -162.05421934 eV
Cu 9.77564962129321 8.958415644958244 11.856659352491485
Cu 13.027807635740317 6.476331447269833 12.839844573132803
Cu 13.639421795546996 9.495253077440413 10.224749379495607
Cu 14.084675643448731 18.68454339245095 16.07876703583462
Cu 12.268251458109857 13.148727812577285 13.363198906493713
Cu 10.793285806248651 13.812411200197516 15.331523925348762
Cu 14.312361304055148 14.114552251519635 14.751843137314594
Cu 12.723698664979825 14.514419267386456 16.6181474351979
Cu 14.545875831704324 7.614216156948937 11.380602152109368
Cu 10.27425739275442 14.975564406180812 13.201756035759745
Cu 16.222789155498276 11.535922838105968 12.129545512778682
Cu 11.409012365947905 14.744764968085216 9.198516651677465
Cu 12.020815691868112 9.951647942783802 16.350989963598053
Cu 16.19734322656378 15.588499382383905 11.80155176545904
Cu 9.119033374869309 11.563449708586724 11.036129020814622
Cu 14.288027827941805 15.99008738875841 13.132668145860707
Cu 13.024359500678386 13.242278466632435 10.079574104694224
Cu 10.928460281327688 11.015627840776126 12.613485604503008
Cu 16.353984567594022 13.73082653491517 13.382818679302071
Cu 14.659661174490402 9.650125983070673 12.727433711574328
Cu 12.712701759834323 8.05478726785709 14.656413620659679
Cu 9.863493205491922 15.78116886325241 10.991506041988867
Cu 17.3836987062736 11.36222708282205 9.982355589164952
Cu 12.75898812103024 10.420790578352921 14.107240979625892
Cu 8.412685845523212 13.946355221807217 11.763225939472315
Cu 12.235461844980295 15.597485539710283 14.418056144226185
Cu 10.545276361562994 9.077059803007295 14.435037003857246
Cu 12.272721404530222 8.747464062820796 12.15581697999957
Cu 12.961057311708862 12.258067380368894 15.67317544451408
Cu 10.737261645575284 7.051021750003087 13.183867407324444
Cu 11.246218435520014 12.327880556858249 17.271238578152364
Cu 14.171322617209558 16.349931876956276 15.69190826297128
Cu 12.917585144935636 11.232522424786671 8.73064088012902
Cu 16.58064033856273 13.496798568241966 10.774662187992657
Cu 14.960333445717563 7.516878634179148 13.839565630523554
Cu 16.01055130441644 9.49883351904779 10.678597965055578
Cu 10.81109043899694 13.296948274342302 11.306905427038856
Cu 13.17398006739349 11.440398659292704 11.754154084646903
Cu 9.591751113892395 16.241376242924762 8.65409276373675
Cu 9.07292332195048 13.950456991841952 9.475052518470042
Cu 10.541270417398913 11.387784107023293 15.134284767143388
Cu 11.235586796167121 10.223241451926938 10.338700184384727
Cu 10.896700762261275 10.110639378835856 7.985997461000661
Cu 12.469379911282505 15.161969439416815 11.590330540123748
Cu 13.108989923805987 17.876243915373212 14.104213106851766
Cu 14.627464534141131 11.907548931044301 13.856049695818902
Cu 14.443239701295392 13.727468530688558 11.99979920879146
Cu 11.467503239065433 17.098888131767513 12.520167019087147
Cu 10.776291760098967 12.277902279400573 9.072546984623314
Cu 11.758560235312718 16.634615141161905 7.721400637533325
Cu 11.681992179011283 17.043199434336618 10.074621176629794
Cu 14.967009458495747 11.707246695884068 10.009624563007552
Cu 8.703245719000972 10.431046460059422 13.501697059765569
Cu 9.438557229000724 12.735468369978022 13.497933932906566
Cu 8.523724523087466 7.948649868793017 13.677346264533613
