51
Energy = -154.74863766 eV
Cu 8.328225316116905 8.281835795638225 4.43007363804753
Cu 8.641752682279957 10.580104336272134 5.403683368873652
Cu 10.627252584287447 9.001462310540179 5.237185767202874
Cu 6.477251665412872 9.2329011811308 5.875212181683112
Cu 9.835816091472612 6.648881565785638 5.58623067510247
Cu 7.119808946447134 6.796894356606006 6.073821221518482
Cu 10.934068606916254 11.280227496562716 6.364660724613978
Cu 12.850962060063122 9.661555455112374 6.2716147684132215
Cu 6.815888748015607 11.50832428541282 6.934901020583925
Cu 8.714880557866485 8.51625198329844 6.77507777308649
Cu 4.790668293074657 10.167793346074737 7.522769403507346
Cu 12.058192157126122 7.295983188600424 6.562750831508428
Cu 5.381496159178497 7.707280378558592 7.679937184005796
Cu 11.171928950488788 5.027322347414477 6.91579586210049
Cu 8.636710235914014 5.112549372596745 7.04633373578529
Cu 9.028225883331162 10.870708269552912 7.799354939389135
Cu 10.978115446762649 9.18353743719037 7.683684610732205
Cu 6.927919545591867 9.46890829790021 8.325162604666133
Cu 10.078335414817706 6.7166544033469675 8.171188633717616
Cu 7.537993620672173 6.837158819047369 8.513169394328028
Cu 12.519671503255983 11.104275928608052 8.295981483216867
Cu 7.91624417724486 12.839131219196332 8.742326552032273
Cu 5.887542467458353 11.496652339479756 9.368023747688682
Cu 13.263794957324299 8.617302050156946 8.498947967238415
Cu 10.627692649546345 10.553912352759397 9.804406382260222
Cu 9.085559055222674 8.73431422486351 9.149519450715074
Cu 9.123716090434954 14.4836011693956 9.935651478948529
Cu 12.418570560747764 6.2301134555687545 8.82046114209523
Cu 12.136462151941661 12.300008596782149 10.475689722141079
Cu 7.192531814554234 8.421592943156815 10.620107563050558
Cu 13.428103605443948 7.489494955159176 10.757433304429938
Cu 12.862003820025011 9.918758791293238 10.639608339204573
Cu 8.127954798220157 10.749756519045219 10.191498071612592
Cu 10.497580716467665 12.752973906409773 8.615248053668173
Cu 9.099753583967512 6.699457299530249 10.542840736642226
Cu 11.271428136944222 8.085277389542059 9.961195492434488
Cu 5.572721351932758 6.7669042982762235 10.062131942631812
Cu 4.934209870734102 9.205425711128619 9.829558287544282
Cu 7.302045071409499 12.808325035468798 11.149328180653011
Cu 7.1774675843198334 6.550754278762421 12.155007413877918
Cu 9.753185990057638 12.551799263078694 11.087774635088234
Cu 9.499568330615936 9.088979642199366 11.542855329378982
Cu 11.391798759438784 6.190260104686987 11.425007210581452
Cu 11.104129133659878 10.84957516470085 12.259733046887199
Cu 11.739668799131113 8.411454471021997 12.430109577506885
Cu 5.320936231269463 8.211148869660349 12.089725467296168
Cu 6.211758454927047 10.517825535176334 11.698941507042878
Cu 9.525778336113095 7.070487220383329 12.942756307810951
Cu 8.497277015984633 11.10169419382987 12.655443469404597
Cu 9.901297229541342 9.395538202418674 13.881983115002875
Cu 7.573644783461888 8.806460238850796 13.097686680278992
