50
Energy = -149.80475685 eV
Cu 9.54287710439493 9.287230790713956 4.540309496099794
Cu 9.626287282309828 11.721824591636375 5.460656002108158
Cu 13.013246320880869 6.716898886631864 5.972596510670863
Cu 12.234032535005813 9.144274458300774 5.9181759580146105
Cu 10.4544745077932 7.226632249311846 5.588026333830101
Cu 5.899343223725055 8.813042436193136 7.095539530421144
Cu 7.598306327722921 10.229516613662158 5.811827789243314
Cu 10.23622646842952 13.055391990323736 7.631167391129138
Cu 13.25538961633211 5.961281092192953 8.408101436182742
Cu 8.223440402774076 7.932551559421703 6.488874910065424
Cu 5.905657125377595 11.116202160511959 8.160008830612853
Cu 11.78289094441969 11.517838202348866 6.578488038870118
Cu 9.965461091944162 9.702936027288137 6.781298898801068
Cu 13.846473369618861 10.787728474325188 7.685323726617539
Cu 11.298726049115908 5.171694873864738 6.992073961214343
Cu 13.831168459518807 8.351288171817872 7.805826130576807
Cu 8.070890394895459 12.047835027694212 7.344759958104228
Cu 11.561593242064905 7.432777968881344 7.657825975285982
Cu 5.141506718290257 9.001658962513936 9.492472730321493
Cu 7.1544735970605124 7.456356068744949 8.792241233855817
Cu 7.8276408392581125 9.712581883480903 8.198444731860596
Cu 9.192217233613661 6.155929071229481 7.859088818483155
Cu 11.830667113608177 9.739089789619626 8.332059453166282
Cu 7.647918190509805 12.500331269742107 9.757542417592802
Cu 9.65263408619846 11.022463916824734 9.005896834643313
Cu 9.749122004420675 8.312542503909683 8.820546933812464
Cu 11.004815071179765 5.9653375903251 9.544147655820751
Cu 10.114461736732414 13.09266116122452 10.13687782742111
Cu 4.971379184142793 11.64629771443376 10.409340769620414
Cu 12.54713129583217 7.866377067365291 9.981809407189976
Cu 12.067400200270214 12.083868890511065 9.075316364293036
Cu 6.902090885319094 10.32812832605336 10.375058353267653
Cu 8.706668256303569 6.460076864491635 10.428242265281883
Cu 13.348450176030095 10.24980799216184 10.173460128605555
Cu 10.937656721070274 9.71231362628909 10.594006853438596
Cu 8.708559882619017 8.848234120898804 10.799810885728643
Cu 6.517448023164189 7.8025442176016755 11.223161079050522
Cu 9.088506406092769 11.34213920127748 11.50082389029633
Cu 10.68651075953053 7.439854078233438 11.60654720098483
Cu 5.129993492320274 9.754090297668963 12.020896524373068
Cu 6.721869665309926 11.991245922956677 12.186104325670039
Cu 12.462769937176494 9.176489658945215 12.278148099206808
Cu 7.545845445030041 9.699313509391422 12.64686944232821
Cu 11.692129253598955 11.67350461703992 11.605362156831742
Cu 8.467731816373572 7.4101949821199105 12.829973769368246
Cu 10.071541417705948 9.527481899122005 12.989382997822249
Cu 6.16613770118728 8.114832222512975 13.716963162811888
Cu 8.53661293492383 11.415994688870102 13.943509962295265
Cu 6.167930076775817 10.55933568366924 14.302004870602604
Cu 8.238097268956661 9.066378482579108 14.79740983303391
