54
Energy = -163.46473472 eV
Cu 14.574626160980623 10.639668307853096 13.46821370463657
Cu 15.5757732440865 8.968900282961279 11.98736325928092
Cu 14.860388436497983 9.178506777394064 9.687338648852615
Cu 15.122267846488128 11.306252807580229 11.065393924831872
Cu 14.960591816400749 13.076069228567846 12.968762382695326
Cu 13.037519559719728 12.275782338030913 14.557502036925504
Cu 13.721831194706008 8.230482074719799 13.460710892985972
Cu 11.265550351185873 13.776408577100293 15.16935469495581
Cu 12.886667472283657 14.403094496818992 13.312907070466185
Cu 13.782221109948138 14.138264035384642 10.940919594419087
Cu 13.067361986881362 11.027159857170552 9.509410751896993
Cu 12.091945596256155 10.170416667427428 13.761791715200333
Cu 13.918052351555149 9.735616006901685 7.552659636860718
Cu 13.281705777959136 9.696614746658184 11.529861265998429
Cu 13.839196344808936 7.331221564174254 11.090474284962072
Cu 11.51904418793023 15.283709287427724 11.42775990454537
Cu 13.11422823935873 7.70325458342729 8.714491921302153
Cu 13.534364490698577 13.232751371288987 8.559245269596895
Cu 11.372617955756532 9.020686468901017 9.820675004530658
Cu 13.013178088457435 12.097750853027792 12.078251158703331
Cu 10.831271994843206 13.074653864776433 12.757460710245828
Cu 8.943165323006735 13.541264888122399 14.154214820810404
Cu 10.406700553946708 11.559273570272104 14.808926922162195
Cu 12.291534669013279 6.303142078198513 12.803659637500862
Cu 10.632022478084567 15.485699751564853 13.666947369509012
Cu 12.33553717192978 15.240094821235767 9.136601391299992
Cu 11.020274533076263 10.88905135134185 11.40341534872316
Cu 11.274696236250982 8.45090306295889 12.190573626310801
Cu 11.68641573324439 13.090208839613975 10.203705772670292
Cu 11.555995116321808 7.788354862056519 14.552013029222387
Cu 10.73983078255807 7.0978497343896025 8.331501842676417
Cu 11.548270067116535 9.268525848305293 7.328760283884025
Cu 9.759026495595986 9.289494905615264 14.097995885552452
Cu 11.076674604655375 13.51767511497908 7.802850600649546
Cu 9.921837134697949 14.903578788860816 9.567455102041402
Cu 9.084959017238567 14.881436291285278 11.964185094775338
Cu 10.481613191593803 11.24339771897186 8.994684240145778
Cu 12.361989658445703 11.550143222996642 7.195470376507724
Cu 11.59270502501594 6.5723923870931955 10.514681965750055
Cu 8.929021273618357 11.25320540029778 12.87209947466498
Cu 9.706808340133055 6.9160914990630316 12.950540185387208
Cu 9.29410913829919 12.662137560223599 10.754138323721703
Cu 8.73571112891524 13.100358228526455 8.338810189280924
Cu 9.35415478956805 9.026575955789449 8.338536242683766
Cu 9.364590794963764 7.693185149661446 10.502569019603962
Cu 9.9297225451654 11.26260242970867 6.739115657355439
Cu 8.156273221871686 8.75664727260369 12.386710449126914
Cu 7.575861929955463 14.427369920072048 10.119858517339066
Cu 7.349813301477146 13.157828049802454 12.267629463797297
Cu 8.706897806060226 10.159967669642734 10.481516081521088
Cu 7.91314801891802 10.863537329978357 8.145164955154192
Cu 6.735794693838378 10.693933999397501 11.96010297775403
Cu 6.997052546265069 12.091077897576138 9.974092442601508
Cu 5.18772328571605 12.490940806125392 11.505240850567802
