55
Energy = -168.54908843 eV
Cu 9.183629875033283 11.659676021290391 10.969929791992785
Cu 17.54137638123634 13.795555209277424 13.141095638086679
Cu 14.781875553727618 11.270336617102444 14.423523062498544
Cu 11.669502578111281 9.026036367710082 12.997734174801899
Cu 15.295240077883768 13.918892666054152 14.308492360036727
Cu 11.822686118499377 11.452835276352774 16.78460727527948
Cu 13.414684732624783 12.977943145789025 10.733172610308108
Cu 12.964180894094403 15.459239591950636 16.72395295215715
Cu 15.76685851696483 9.963448797621885 12.45958601354095
Cu 11.254324032890347 12.300579438084327 12.046256692939835
Cu 11.109296976501653 12.437358516790912 9.557759936486384
Cu 12.122203822559799 11.196819210846895 14.244182478607131
Cu 9.032496518991188 14.237298494521967 15.171415170208006
Cu 8.98083188347463 12.955593599108457 13.065772839947778
Cu 9.856746879290522 11.884930374712624 15.28480625172213
Cu 13.044252172804592 16.724725265667992 10.980880204060684
Cu 10.579301437618602 16.40526002267629 10.938006860896344
Cu 16.61882733356274 14.611446402555329 11.053033257261568
Cu 11.699023883270144 17.035678819014624 13.113750348463721
Cu 13.933677977220038 9.002197434898294 13.651193871791412
Cu 14.464325439294859 14.933917887666144 12.110295770920287
Cu 13.281878897575867 9.722954872351238 15.851520224560055
Cu 10.82279214005015 9.559419283367559 15.31946100172769
Cu 13.094861309494274 15.292929151702953 14.236475761090219
Cu 17.202678901878393 11.435630038274713 13.724031504829878
Cu 15.62971269833953 12.48683298847801 12.068600428434594
Cu 10.905214005252823 15.945635137163158 15.27014527087816
Cu 13.210540846317759 13.150189087371281 15.602047325967803
Cu 13.346491074957717 13.040776351531063 13.176994662067727
Cu 14.479740243268074 11.580622233219131 16.92962070018185
Cu 10.986391026807341 13.818775875423777 16.670954200569945
Cu 11.151681040489313 13.647446024836173 14.193111157474174
Cu 18.69882796702582 12.886746330467007 15.020127826826759
Cu 16.41685975654182 15.980938379171274 13.276396347687074
Cu 15.51654019354526 16.861768375892467 11.096768885430135
Cu 15.119466758527587 14.153118113993465 16.848732902702324
Cu 15.076778169754904 16.23519988253535 15.40411094655582
Cu 14.233144824208985 17.258719406970943 13.183532741123178
Cu 11.937535018079203 14.782389175631563 9.607277302587805
Cu 13.410640695469814 10.88522798189857 12.115365842479994
Cu 12.87807352877163 17.461762275321394 15.259187510828905
Cu 12.913869475433556 10.811526684098535 9.459308733563798
Cu 9.802858030267238 10.59251346700135 13.164613036943015
Cu 16.533588799835666 12.38913001372149 15.889751013673434
Cu 15.103340543636769 10.750335736843368 10.302567034923511
Cu 14.412047959829861 15.10137438805776 9.636852647149245
Cu 13.025587259329521 13.327652070010728 17.993368005801393
Cu 13.346809713377443 13.070739526182804 8.39823191678637
Cu 11.93590749000076 14.744060299325312 12.039609780852647
Cu 17.181252095109386 14.827965395273809 15.447985395426223
Cu 15.600751249363606 12.976434358532966 9.542527673406159
Cu 9.72091976973379 15.377573239479668 13.051343120078673
Cu 11.124219574593294 10.11472689193219 10.914181269003436
Cu 13.43276368136584 8.839326325265915 11.079098525095702
Cu 9.760516288423458 14.069415591291968 10.896275853595473
