54
Energy = -163.26314008 eV
Cu 15.448880322942015 13.576254161300769 9.857359642111433
Cu 15.007744559044994 11.625087855463018 11.3050510055978
Cu 14.547380390123847 13.82462549748472 12.309138875095382
Cu 14.534510906692873 11.793728974808584 13.77771948949657
Cu 14.07436847673946 9.606814348549596 12.732264264444023
Cu 14.074642056353866 15.501411903756381 10.399594202888812
Cu 14.210610809632913 11.72342362671938 8.857885993177213
Cu 13.814978142828904 9.777018143469864 10.282155240617357
Cu 13.263470784894979 7.5901603462156535 11.318427273390798
Cu 13.420201892933976 14.089104391489299 8.217780569320494
Cu 13.099500008608155 13.30405417700194 10.387536411091931
Cu 12.312970355821683 7.429003501947542 7.530803216148168
Cu 12.700864869387242 11.64743769415258 12.146738195312969
Cu 12.344178744478858 8.091550531247028 13.7655654175566
Cu 12.42420328861222 15.166035834077395 12.24522499827099
Cu 12.710130678722646 13.404855980819585 13.909507616607197
Cu 12.29704211926043 10.527070444173036 14.348778111097339
Cu 11.668666325172154 6.386486435682697 9.768059537505003
Cu 12.209365056048783 11.762501945177688 7.447164747247291
Cu 13.379880702713216 9.625659948653404 7.823952415093666
Cu 11.754754568783572 9.394798115445743 11.836845436889133
Cu 11.689393799983192 15.393049606719455 9.925819323932132
Cu 11.656324126853411 11.30902223214422 9.8782816995986
Cu 11.085308191360332 6.796400358567659 12.118541369763381
Cu 11.786932947189154 8.7392898320922 9.481585505082816
Cu 11.207349695113974 12.767294225581235 15.661880453546399
Cu 10.943297143616835 13.353595401748235 11.435467759423746
Cu 10.995341386733381 13.521647833706924 8.635563160256348
Cu 9.261858365054152 12.366743640105527 9.91547036806569
Cu 9.624637911123173 10.019611328499892 9.248823781584887
Cu 10.973698227421508 9.531942498141296 7.1662882556764265
Cu 8.774615165611296 6.920381407518581 12.818271842285874
Cu 9.974887854984322 8.997974484307639 13.536463807723358
Cu 9.969716760049556 10.645055496649267 15.390295405329042
Cu 10.581731625033028 11.993486897000391 13.47915986841733
Cu 9.9940001770207 7.498369634325025 8.300423420483087
Cu 9.600057990494987 8.285301362706479 10.911545732707362
Cu 10.457914222187366 14.436839038004539 13.64489038962714
Cu 8.541298602273436 13.754891011765576 8.112649403747799
Cu 9.310700864391618 6.006355002026709 10.310020381027353
Cu 7.688507684970001 9.079564398045708 12.278202436329403
Cu 9.705967378052076 11.63501403298162 7.454869074550841
Cu 9.312291648509877 14.781962311430394 10.321061208474177
Cu 8.874846952119203 12.99860470857894 14.884393615265337
Cu 9.755321766351036 10.718938766555208 11.605421321722588
Cu 8.381737182544729 9.26931833080649 7.409011148150909
Cu 8.284921067210648 10.998110509375717 13.585645255599006
Cu 7.197012745743468 7.1062518623618995 10.983547647896671
Cu 7.702544074761461 7.144055132229704 8.619032244887613
Cu 8.62813001594688 13.1821315543179 12.289147132543013
Cu 7.274545405420548 9.232603489174702 9.759027289503912
Cu 7.161669692771735 13.487346644941647 10.184019015266493
Cu 7.478444512341216 11.411828178842574 8.586018522956703
Cu 7.38002494541519 11.23775075154714 11.169531784406496
