54
Energy = -161.17563983 eV
Cu 11.959878116473066 9.258820334606904 15.473398642498617
Cu 12.759169346750223 18.82063524593319 11.844822515399095
Cu 13.908329208671553 9.512031430044638 12.00545360372708
Cu 16.397200070911126 16.017166519854634 13.48499268440586
Cu 13.474228871835164 10.651603497791918 14.16141464671546
Cu 14.10246400751967 15.045146280710348 10.243679692039352
Cu 17.75033994419164 13.998834425006725 9.701090822354356
Cu 14.27802614358489 11.004557188102122 10.010336309565892
Cu 13.808736677668499 8.219035327333206 14.172579839312307
Cu 10.100689345219006 16.83504788656321 14.3835092621249
Cu 9.981506698664393 9.688011683021204 11.585727634852734
Cu 15.598464659187226 13.081757721703363 10.278167249529007
Cu 15.20816190527733 11.58932135957526 12.30700666489606
Cu 16.40472016149959 15.451392101189782 11.041462706423621
Cu 10.928653327313214 13.370986835723269 16.380061792515832
Cu 10.005037788279134 9.841922813394383 14.064408026835757
Cu 10.252196689603561 10.845625826488511 16.421736728346094
Cu 9.992432080366896 13.677943399706841 8.813820144938305
Cu 17.420520756680027 12.79036769112392 16.206220757190625
Cu 12.929293298335159 14.97191019196248 12.363041460875385
Cu 10.430244495359812 11.849791276028549 10.44120576615866
Cu 15.708585689949867 14.16372790173703 15.147461270568153
Cu 9.765866472347495 8.480802596844276 16.01267330805913
Cu 9.561531256629284 13.978458314783671 14.191259313665787
Cu 11.148604925281008 11.976809482581311 14.520842460904385
Cu 10.442793079780095 15.569852699337428 12.399289494626547
Cu 13.341723474046464 12.790085617844936 11.289947948248624
Cu 11.027545295235091 19.07789729509624 13.680236661521837
Cu 15.246548678350567 14.073973622415656 12.657281116834692
Cu 14.99431099848549 11.971928862652346 15.806121020358063
Cu 12.073074685898419 9.989971295030568 10.218881057053974
Cu 11.236270958956094 13.297613258009129 12.519522976459077
Cu 11.709304168997141 14.974957385498206 14.66479920988892
Cu 14.440451662300852 9.615388179040327 16.13707640613333
Cu 12.665746089546056 11.536731483174107 16.407994752838594
Cu 13.381591001103772 13.92849608180766 16.164797733582297
Cu 11.686962448082804 14.348594475998175 10.267572544922997
Cu 9.343961746112566 11.834668175426623 12.702391623868994
Cu 12.29376295228854 16.72101765824828 10.71049310878963
Cu 9.241844591312109 13.847595288185904 11.169018909250013
Cu 16.859642960082923 11.958815475055836 14.043823629867507
Cu 13.460681908555545 13.031696163585263 13.918286810028045
Cu 9.939860225521146 16.01755422985061 10.047554929913005
Cu 17.86592868100362 14.168198536115042 14.149644323817611
Cu 14.499197695305995 16.82469088812288 12.036049126200373
Cu 16.821327922249584 10.416454033501363 15.98611387806396
Cu 12.320867906381896 17.10321660189469 13.412126662070298
Cu 15.720477991558582 9.761988927806994 13.908595010817663
Cu 11.849514820046595 10.974923750601127 12.407415680461737
Cu 14.06373373509456 15.674326994596742 14.386122310390675
Cu 12.350975524107014 12.271059866952832 9.049238658203336
Cu 11.767701876643295 8.579584883339647 12.9055375317562
Cu 17.400891100563413 13.140270146219109 11.940134285176875
Cu 10.413495396361995 17.875721106984955 11.718126639610247
