51
Energy = -153.90814057 eV
Cu 14.654372842377688 9.69781385333229 9.893840131799067
Cu 15.637681069815452 12.060251121305573 10.300244526294241
Cu 14.891661936967925 10.61936538522887 12.15002237794424
Cu 13.996212696963637 12.9053029262187 12.369396704857287
Cu 13.418376630524797 13.612133996392904 8.277744784593512
Cu 13.205932399138748 11.21303255717583 13.811116571454253
Cu 14.467620096430165 11.392356401759997 8.108617105469545
Cu 14.397490028636785 14.219780575556644 10.413782020595313
Cu 12.733747191625882 8.85294420371634 13.825432969163147
Cu 14.377135485765079 8.206266017435306 11.919543581685495
Cu 13.299663298272264 11.861947693614724 10.171064513170927
Cu 12.805586928684585 9.521383720831505 8.18160649157965
Cu 11.247337855109514 13.244121378202797 9.870333047369916
Cu 10.90238837517309 14.283513875265573 7.854939636089159
Cu 12.24727036651438 14.503561580324801 11.785808642338674
Cu 11.613318514273569 13.193953148859583 13.88486587250935
Cu 11.543667657996156 11.906950148806262 11.989324995406221
Cu 12.551742572672547 15.470394682398364 9.484069294375123
Cu 10.925346446383172 10.603392161351685 14.179176077971732
Cu 11.90036468191108 7.4331487100538105 12.062210806360376
Cu 11.963884758455732 11.815027310917596 7.728220437825517
Cu 12.623428963209234 9.753528491770457 11.547613988683505
Cu 13.01278859768536 7.802823943913203 9.85816551998036
Cu 11.465656062339079 5.9351320591327275 10.18129360321629
Cu 11.2266210221949 7.3607027596593735 7.949737088225084
Cu 10.436223503953615 9.736340564021672 7.506185353279819
Cu 11.221564977930225 10.615805295801437 9.760260680150374
Cu 10.034690139028635 9.677619435746777 11.89795758125605
Cu 9.829100248920312 13.868514751423481 12.090453591544646
Cu 9.575730195094655 12.076503548773145 8.178358940265783
Cu 10.53179087082509 8.203234726556373 10.014409297844098
Cu 8.738128796084752 13.917284326002873 9.667342514239841
Cu 9.557749168627877 6.7878653932107795 11.829579940112039
Cu 8.898725248873287 9.929726187387608 9.395553929275962
Cu 10.37235291148116 15.54239370833948 10.387643764563885
Cu 9.384953237038115 11.876608176936942 10.779359521440847
Cu 10.275622097742565 8.200962548879666 13.813710356350462
Cu 9.248998488283355 6.186897687619185 9.386079490790744
Cu 9.020854484454645 11.834929561075421 13.240835690318084
Cu 7.905538476711768 10.360632201589048 7.293735434607959
Cu 8.621973388206584 9.89576432308537 14.604458252122702
Cu 8.63536687891314 8.0407231973354 7.9892072812252355
Cu 7.676745167907407 10.286789844305972 11.40343009175889
Cu 7.9153759331569935 8.319387762168288 12.922870940964925
Cu 7.299546587771556 11.858526748808284 9.308984308810496
Cu 7.838215415958546 7.862395001464825 10.457750531842025
Cu 7.345036925015587 12.805153757450327 11.662623760912936
Cu 6.458853976577228 9.50429945812836 9.260865568647805
Cu 6.598744743321675 10.654943892329952 13.399389221092928
Cu 5.84454563700141 8.811103992184767 11.661984424949157
Cu 5.528108613614852 11.183744656172024 10.991323131776891
