5
Energy = -9.10289594 eV
Cu 10.665425119379865 10.502568933303252 8.646949948880367
Cu 10.213463704130008 10.361555687186375 10.91847420892449
Cu 9.673667090572641 8.89643133194095 7.299529925788296
Cu 8.85536604127068 9.084653255063953 9.489111329685514
Cu 7.226847006234491 7.763380743309552 10.276210843418669
