51
Energy = -152.0004858 eV
Cu 12.895653610517172 10.960033076091005 14.822747784109549
Cu 10.289353968732165 6.9694747837205036 14.666472467740991
Cu 11.550080926621854 8.993940072320795 14.79895478346818
Cu 8.861009268036721 8.974894068035013 14.563307831841428
Cu 11.81908717870732 12.90675560748523 13.976575995036054
Cu 8.464936835706025 6.999796186112065 12.906569489309707
Cu 14.079595742419459 9.527910410217027 13.165600507113755
Cu 10.263938162105676 11.047739620365567 14.494417915409638
Cu 12.536113918836923 7.577283534128521 12.988758030431592
Cu 13.792584082116514 12.02727972576109 12.76081521767925
Cu 10.787572258766678 14.850644910056358 13.013802236318071
Cu 7.799330670447723 11.11540518915605 13.983218544782932
Cu 9.21237323146413 13.012120226221494 13.305612351811305
Cu 10.32152981461083 8.502563348228245 12.69104530337045
Cu 10.714371254458932 5.928516507264601 12.559384425022632
Cu 7.375969524151026 9.163861312694074 12.548089485826281
Cu 11.881329670635354 10.388040321534795 12.63412087914984
Cu 15.022272387989538 10.626095240058307 11.101956217729942
Cu 11.091961119073487 12.558614830258769 11.700734075864258
Cu 13.151724496228724 8.945647732789162 10.925397661378092
Cu 9.147074843549893 6.055774698068106 10.710741955278635
Cu 9.357846068782074 10.749380468932994 12.090078773345285
Cu 12.869569408675325 14.20129502544922 11.925566939757232
Cu 11.22418421147293 7.378368994136155 10.691902642993998
Cu 8.831905885512251 13.026563257255468 10.834613143494883
Cu 8.867331751115115 8.425919676298543 10.755552688476829
Cu 14.247177668232688 9.852605761294607 8.811367829488278
Cu 14.727015601469253 13.082391614734693 10.756575947968761
Cu 12.884277424280487 11.46682658845455 10.389474571974135
Cu 8.655827691978903 15.145568676162455 11.932516649808788
Cu 7.04604570220449 11.397007952235784 11.536873014701303
Cu 6.812150960020359 9.346070475991526 10.079384277537672
Cu 10.753886139631348 12.346539869901143 9.275794542139447
Cu 10.748681528658942 14.926418059370407 10.61830801985062
Cu 12.11631933857353 10.67701947324257 8.08921166716645
Cu 10.849839733313962 9.929998119251797 10.228495983521789
Cu 6.849198769867138 12.885336248446526 9.556807856431933
Cu 12.188814266872338 8.294873365835317 8.722605765143934
Cu 12.70088317890107 13.966233767176266 9.468917504511769
Cu 13.885837243819045 11.362629080399007 6.405518163355921
Cu 14.25514531524818 12.336811414600273 8.512365572524285
Cu 8.5200514316312 10.971480065055122 9.55079255926734
Cu 8.535492007999771 15.045676583058793 9.481053920048428
Cu 9.7493461724327 10.953674739914558 7.412648569281
Cu 8.776741535047487 13.088198391605237 8.106481832618735
Cu 12.12536759295481 12.957701622693023 7.203199540847848
Cu 8.902902937862217 8.831365515805834 8.418301750453537
Cu 10.673899981717755 14.66968994682536 8.218635690546764
Cu 11.576932941156368 10.920596309825248 5.7365521248389415
Cu 10.714498289547233 8.849309617699383 6.822257202014695
Cu 13.139325910657544 9.070938917795539 6.59545686869464
