54
Energy = -162.2752146 eV
Cu 12.55893133208775 7.934026948238809 13.719896261666625
Cu 13.746080515895526 16.138873266338756 16.037581224483024
Cu 9.136378715611912 14.303665111091286 10.91024343060881
Cu 9.686587143019372 12.717009753153489 12.850065651041353
Cu 12.691049888001144 8.766770690155225 11.381112728406126
Cu 7.9833828393726725 14.314501439700846 13.143034741691519
Cu 16.165996166376463 10.942222097128484 11.019808072956662
Cu 11.625175315885274 15.672187755750059 10.494446864526136
Cu 14.334749612331741 15.834594701533431 10.282898762668717
Cu 10.371183793577933 15.243473441422559 12.78119865390806
Cu 16.95786945579166 12.727727780822374 9.624363422340117
Cu 14.613672050745603 11.970835555430211 9.104090901426044
Cu 11.763750739122575 13.768387900024516 14.169410993503652
Cu 13.434742607682631 11.895415103382714 15.191918615944235
Cu 9.011390151175986 12.923052426445937 16.93320782157702
Cu 9.591091916437797 10.754520153792946 15.989287390028409
Cu 16.265445800151852 14.700829698070136 13.118185354993154
Cu 11.283810274633005 10.889555843679872 11.916247601073593
Cu 14.711776696105257 16.505767468910594 13.87403419572857
Cu 15.905433095827187 15.084850231328433 15.64064931255081
Cu 10.615735967014722 13.610954574921463 9.010842871631612
Cu 15.41583545576784 12.090088474971713 13.288103878614272
Cu 12.664235429859078 9.629058798383648 15.658820707665356
Cu 9.973632595787842 11.251729713905572 8.294074167970045
Cu 11.541040965892183 15.065711401023696 16.225027410754336
Cu 13.082572175729718 12.481744170903957 12.685713545647438
Cu 15.184286198555446 10.175509717326605 14.839285640539627
Cu 10.544106447825374 9.574236030953394 10.064084597401823
Cu 11.372477123003748 13.390061883071724 11.279042807626183
Cu 11.215674746708764 11.287119134978862 14.333193947208539
Cu 16.803909797538644 14.940590138371745 10.713359177805286
Cu 14.213276660778517 14.104312479935016 14.308829924722032
Cu 12.00741231556304 11.597681504559132 9.521226983551617
Cu 17.398454337686466 12.801900362051077 12.052983789086012
Cu 9.548451460156413 14.290406214232858 15.020263232432917
Cu 10.505007965410833 8.549032422013097 12.341671826030089
Cu 8.182025623434997 12.28472433881674 14.69873130462286
Cu 13.15393828395294 14.8611621073508 12.217518448935644
Cu 15.759423961602492 12.623752492378067 15.614856679902346
Cu 9.134707546302288 10.385839618102384 13.320313367378938
Cu 13.291441332111482 17.23051474927265 11.97859533276865
Cu 14.994380660361493 13.328508150527655 11.154860604932079
Cu 15.857812487021173 16.86088116919945 11.837812367000621
Cu 13.237312691311578 10.174565204684642 13.385178620080579
Cu 17.140341804954193 10.483403425032321 13.218536843795048
Cu 15.115673314955695 9.190976866078204 12.404761883148824
Cu 13.065629946329132 13.858345166290917 9.548092708014462
Cu 13.726824171125102 13.808961388062178 16.67508855057889
Cu 12.25115033100756 16.217222316383108 14.093238954075549
Cu 9.49203279245013 11.840478828296414 10.541475337861765
Cu 15.361122916628819 14.302086637236181 8.755013118008875
Cu 10.53291244087045 8.888445887537697 14.728240231236091
Cu 13.768090825868434 10.871591025129815 11.041592629261906
Cu 11.347571254351971 12.627340408919162 16.38835966142691
