52
Energy = -156.60689826 eV
Cu 14.326204030984806 9.868008498939645 8.812288946588714
Cu 12.802462567395953 8.824358901520508 6.845715531150334
Cu 13.168946871897854 7.776806121810409 9.092977121034188
Cu 13.356218869466744 11.256374556234707 7.113985614651281
Cu 11.254556766836666 10.704755910835662 5.9843209721952455
Cu 14.195622727337243 11.966822760518601 11.733698683021972
Cu 13.82090740140692 9.525019101115939 11.17939669545029
Cu 11.515844346153925 6.784456856888095 7.61538377306424
Cu 13.29022423455546 6.987479900259112 11.393862542713203
Cu 13.086984742512673 11.932748388939196 9.564684625470322
Cu 13.632435626438047 10.614128733383557 13.601722995846867
Cu 11.828835914496425 10.02159379436021 8.707072514251546
Cu 10.333484976184835 8.485840650231921 6.4201183742659325
Cu 11.334223303418112 6.255169181031421 9.97716676053965
Cu 12.078196420087947 12.547176924668639 13.607312918493808
Cu 8.880945747124914 10.235428414734706 5.494935500667041
Cu 11.345327015518096 12.435245663769779 7.699414284182318
Cu 9.285254040162844 12.542176276151476 6.4304259274515
Cu 12.438381993228782 13.603011636873411 11.389441484027772
Cu 9.553298161222497 10.55085789636693 7.8232364557026814
Cu 11.828180262483073 11.041640131409839 11.743622385560561
Cu 11.585083582781339 8.572547905230698 10.798321818571694
Cu 12.584703485387937 8.543579422457404 13.157178787456942
Cu 12.321577652580297 14.207183780334105 8.984710872622427
Cu 9.934665523950468 8.315961832775459 8.901392950918842
Cu 11.035402834869299 6.753385755590104 12.495465629195683
Cu 10.718943223829466 7.947883856437677 14.644990014151283
Cu 9.224394614637927 6.147905304164004 8.516097762054981
Cu 9.201999045829 6.970457897428195 10.934234572159948
Cu 9.875501390262754 14.318266266673923 8.301015644552708
Cu 10.18471272607587 9.29877983432138 12.62545626025405
Cu 10.570480224752064 12.674536762968028 10.061950087982083
Cu 9.931103328713121 10.310244144100245 10.301426323568748
Cu 10.70656300276938 15.176570685702583 10.50652830201805
Cu 8.010149321067315 8.722583156857183 7.298333457851868
Cu 7.245269472832375 11.131194183159039 7.084470938666056
Cu 8.68736329216357 7.436492472489346 13.294229419865715
Cu 11.403644890383765 10.305436548451215 14.53799591885441
Cu 10.197975068474422 13.703314302524722 12.368457938063598
Cu 8.370217251723332 12.503071919693923 8.754233051885635
Cu 9.678713143581914 11.690634954830353 13.547033202859005
Cu 8.01485072551168 9.070284433155614 11.49036199042192
Cu 8.839573953631016 9.577348463571614 14.62188707489605
Cu 7.488550856350273 7.754885416376638 9.447195615467832
Cu 8.35735639694818 11.742815240787579 11.358515224630894
Cu 8.481018226548843 14.11900437105587 10.571862167125868
Cu 7.461789140767313 10.280592713574414 9.410114897253962
Cu 6.69489393233405 8.904202110336062 13.478298984074407
Cu 6.42070287252468 12.55110576643351 10.154046063831803
Cu 7.307068413662955 11.198725163581658 13.585666350075293
Cu 7.8347776259298 13.480846398252808 12.901206930064498
Cu 6.107226712737466 10.558453596818296 11.591321838652828
