55
Energy = -170.25860807 eV
Cu 12.303672592158021 12.303672592158021 12.303672592158021
Cu 12.303672592158021 13.590822564796404 14.379043741624066
Cu 12.303672592158021 13.590822564796404 10.228301442691626
Cu 12.303672592158021 11.016522619519288 14.379043741624066
Cu 12.303672592158021 11.016522619519288 10.228301442691626
Cu 13.590822564796404 14.379043741624066 12.303672592158021
Cu 11.016522619519288 14.379043741624066 12.303672592158021
Cu 13.590822564796404 10.228301442691626 12.303672592158021
Cu 11.016522619519288 10.228301442691626 12.303672592158021
Cu 14.379043741624066 12.303672592158021 13.590822564796404
Cu 14.379043741624066 12.303672592158021 11.016522619519288
Cu 10.228301442691626 12.303672592158021 13.590822564796404
Cu 10.228301442691626 12.303672592158021 11.016522619519288
Cu 8.211252831170995 12.303672592158021 9.775546504269471
Cu 12.303672592158021 14.831797955948625 16.396092353144702
Cu 12.303672592158021 14.831797955948625 8.211252831170995
Cu 12.303672592158021 9.775546504269471 16.396092353144702
Cu 12.303672592158021 9.775546504269471 8.211252831170995
Cu 14.831797955948625 16.396092353144702 12.303672592158021
Cu 9.775546504269471 16.396092353144702 12.303672592158021
Cu 14.831797955948625 8.211252831170995 12.303672592158021
Cu 9.775546504269471 8.211252831170995 12.303672592158021
Cu 16.396092353144702 12.303672592158021 14.831797955948625
Cu 16.396092353144702 12.303672592158021 9.775546504269471
Cu 8.211252831170995 12.303672592158021 14.831797955948625
Cu 12.303672592158021 16.50821948115185 12.303672592158021
Cu 12.303672592158021 8.099124979066591 12.303672592158021
Cu 8.099124979066591 12.303672592158021 12.303672592158021
Cu 16.50821948115185 12.303672592158021 12.303672592158021
Cu 12.303672592158021 12.303672592158021 8.099124979066591
Cu 12.303672592158021 12.303672592158021 16.50821948115185
Cu 13.605280168017407 8.89433967041355 14.40946113878227
Cu 11.002064292200862 8.89433967041355 14.40946113878227
Cu 13.605280168017407 8.89433967041355 10.197884045533424
Cu 11.002064292200862 8.89433967041355 10.197884045533424
Cu 15.713005513902147 10.197884045533424 11.002064292200862
Cu 15.713005513902147 10.197884045533424 13.605280168017407
Cu 8.89433967041355 10.197884045533424 11.002064292200862
Cu 8.89433967041355 10.197884045533424 13.605280168017407
Cu 13.605280168017407 15.713005513902147 10.197884045533424
Cu 13.605280168017407 15.713005513902147 14.40946113878227
Cu 11.002064292200862 15.713005513902147 10.197884045533424
Cu 11.002064292200862 15.713005513902147 14.40946113878227
Cu 10.197884045533424 13.605280168017407 8.89433967041355
Cu 14.40946113878227 13.605280168017407 8.89433967041355
Cu 10.197884045533424 11.002064292200862 8.89433967041355
Cu 14.40946113878227 11.002064292200862 8.89433967041355
Cu 8.89433967041355 14.40946113878227 13.605280168017407
Cu 8.89433967041355 14.40946113878227 11.002064292200862
Cu 10.197884045533424 11.002064292200862 15.713005513902147
Cu 14.40946113878227 11.002064292200862 15.713005513902147
Cu 14.40946113878227 13.605280168017407 15.713005513902147
Cu 10.197884045533424 13.605280168017407 15.713005513902147
Cu 15.713005513902147 14.40946113878227 11.002064292200862
Cu 15.713005513902147 14.40946113878227 13.605280168017407
