54
Energy = -159.47955947 eV
Cu 17.076802521032942 10.290368287354761 12.29466345075011
Cu 16.5941211080233 11.754360274243659 7.6220028625445
Cu 13.179355249625528 8.915931823373185 9.596474307718276
Cu 7.423287709229842 16.09267424556571 14.904631655180165
Cu 11.492331148544666 12.864672269794161 10.997088391535815
Cu 12.52498303294155 14.66968429386775 12.801946681790145
Cu 10.060118880973757 14.485759922755808 12.261846832863528
Cu 11.174903723385643 16.60482883556368 12.071512464073438
Cu 12.855950783546048 9.705158825018797 7.203351697531558
Cu 12.719549699547594 13.314780908252889 15.185445966905636
Cu 10.30301082008781 10.647717461313361 7.840414067561437
Cu 9.711382031782348 10.383124870177474 14.211502112347898
Cu 14.948926944766688 15.11887154490725 9.326922363959971
Cu 6.987528558369622 12.05895731928182 11.186845720670446
Cu 14.925191301561037 12.206198077608676 14.521094398887277
Cu 10.776650283838679 12.80942366614119 13.953646961977082
Cu 9.2588197342413 9.731890253488814 11.795498951347327
Cu 14.803432137707112 10.08004625392071 13.335809530768048
Cu 8.723956042385149 13.66297729912044 10.449713053471257
Cu 12.546420430689734 11.716390745624233 8.408365305122956
Cu 14.873450984733006 10.281628954024761 8.576853486104318
Cu 11.072372662654471 11.543369469200908 16.141758835441866
Cu 9.126331808397325 8.989116136651337 9.448715484832107
Cu 12.747203095829114 14.059758598453461 8.984561272709206
Cu 13.209973099830474 8.361012244295692 14.296847703351148
Cu 10.92485358022135 15.436313055817585 14.415539806047997
Cu 14.886155506849875 12.698293458428674 9.035912058465236
Cu 15.21102201634496 9.542870918851799 10.935942533248198
Cu 10.737775268631742 15.101534054273046 10.045678644136958
Cu 16.696828048620468 11.214768414939947 9.997820984012417
Cu 13.012491878642503 15.889031606618866 10.644924356198317
Cu 8.99909539634154 16.44834451846452 13.20199255573694
Cu 11.029451958071617 8.07770070489087 10.833447941337228
Cu 8.878921669424585 11.35349685412932 9.904582015230224
Cu 14.312516958179703 11.698623160339098 6.725027594303108
Cu 11.171033766196945 8.394719293518985 8.355862150873257
Cu 12.826056281447478 10.75727051217839 14.6630153946207
Cu 13.428064423018922 11.243957086995705 10.707057197329616
Cu 9.212359287621062 10.029329883421527 16.578098432698884
Cu 11.285794597727937 9.124752403683004 15.663358768581658
Cu 14.045644642489004 13.741698776383716 11.073605834237847
Cu 12.993482829054102 9.141745158200251 11.989773360036933
Cu 12.509701975097721 6.849814267768708 12.408946578979721
Cu 11.315241450513026 10.904179443155567 12.441554681600469
Cu 8.714631788036973 14.22545021899847 14.292850997333362
Cu 10.48047213773588 12.945819127824883 8.809648172902415
Cu 8.957537048274645 12.16617635155924 12.502068795946705
Cu 10.400988539454007 13.872317188146562 16.159297741201662
Cu 10.956276544209535 8.513341546630093 13.28382066515344
Cu 7.252800389139959 11.18959505966422 17.1071961884701
Cu 8.696855783602018 12.17438880634845 15.495757962443841
Cu 11.129206562408692 10.400841946249843 10.060584527175104
Cu 15.488839934484252 12.024398609936457 11.984925906598576
Cu 13.200371610290293 12.372000139307202 12.91045573270632
