51
Energy = -152.71450585 eV
Cu 10.627097943995285 10.46484711708936 17.390664832946147
Cu 9.966197750140541 11.75303726297523 15.539057043221467
Cu 8.863638983182136 13.431102077677362 14.190568295800631
Cu 12.264356002792702 12.082951329105073 16.29060808716622
Cu 7.573288101426659 15.23625941060895 13.326440225767739
Cu 11.453028851030878 13.203525010514827 14.07371703485293
Cu 10.043790380859663 15.43417228100578 13.529096599726795
Cu 13.75439524777483 13.544907159705934 15.023070396213969
Cu 9.703962127594082 9.302358420892043 15.208656717184954
Cu 12.052123544436007 9.765073346290057 15.651326742719279
Cu 12.437472882160723 15.399428656784975 13.87556435651566
Cu 8.477136639079589 10.980334181539135 13.704032338535443
Cu 7.42822275948993 12.846797382129742 12.267114972267635
Cu 10.966585554474445 10.669633526847853 13.565548093241459
Cu 13.451775008189308 11.271000151636224 14.16550815886284
Cu 8.965242583030273 14.653197565855349 11.478294685576115
Cu 9.816825776357067 12.412356967725206 12.134791695144454
Cu 15.568749994088773 12.358140251875657 13.554842755374823
Cu 13.777715745280958 8.709198604895873 14.396830857240289
Cu 12.205077388215608 12.077626790712422 11.9684127068493
Cu 9.344128577000676 8.8590401914203 12.725986753596723
Cu 11.505863608946665 14.453264289139877 11.73124558867587
Cu 11.515744003480616 8.23252240275793 13.742250529066572
Cu 8.229118841202473 10.628447038226824 11.250169489047684
Cu 13.829721849841071 13.826438163535624 12.6532549001773
Cu 10.6911614207409 10.252502046947649 11.093488146758444
Cu 12.08706673572959 15.104775958760328 9.361418027696546
Cu 15.846338136363881 13.594430956669825 11.33232701105294
Cu 11.016989937430427 12.73891072398406 9.89027626815447
Cu 15.261116774570162 9.798391196590059 12.877236050421532
Cu 9.703030525404568 14.743839682148783 9.167971430184663
Cu 8.5271346285631 12.72057299690024 9.949267209553787
Cu 13.810976251735037 7.613816533204588 12.147258770035164
Cu 14.61194730928409 11.583625429114846 11.454572778084838
Cu 12.889439035841441 9.762474886034802 12.216730470354316
Cu 9.203650949774952 8.521680143768418 10.28157030682566
Cu 11.377406685550813 7.839986053784593 11.306906531506367
Cu 13.579119004323545 13.463740518873728 10.2759093817261
Cu 12.725634174332287 10.886470089475628 9.87978646155442
Cu 12.834359587655353 13.150978341747004 8.016986284115102
Cu 9.848693119754065 12.719261410053411 7.702569654919223
Cu 11.132597087351607 14.699490449641353 7.1626125093036705
Cu 11.326638454323716 8.862336800577303 9.050610596788767
Cu 14.695362072045317 9.349924406937308 10.443038824064075
Cu 9.510591600474273 10.645794852347185 8.999952063599416
Cu 13.26592681683649 7.557303079448135 9.74391241497409
Cu 14.766523117775357 11.65675008051443 8.928989619969945
Cu 13.743631186907177 11.375123547922469 6.679717726890777
Cu 13.664083541498313 9.44037219801655 8.156696533311779
Cu 11.569312499360908 10.888752574875863 7.662154974222802
Cu 11.668046165359728 12.62230585365875 5.9786590502943815
