50
Energy = -150.58128581 eV
Cu 13.953556512405099 6.8804564256659075 9.602182703644637
Cu 11.95858691303293 5.909822640871407 10.733830176678401
Cu 13.225839422927983 7.529650536415025 11.96197031484612
Cu 14.518047238387537 9.164656959482242 10.584002612822895
Cu 11.60147935728037 6.411784983613831 8.44893016356248
Cu 13.580810124780553 9.841899724257281 12.822999824206974
Cu 13.998426174526907 9.003038994326811 8.174523801386421
Cu 10.651693941726743 6.758621649371462 12.534003061265036
Cu 12.206995822095195 8.447207792650048 9.749550189135382
Cu 9.585226982428244 5.6586243276084796 10.048518891133902
Cu 11.361297050939397 9.08299863025635 12.071571142558174
Cu 14.828016028780636 11.505172477363885 11.486689412707722
Cu 14.426853404004097 11.341638023943018 9.043898177103069
Cu 12.645548034564838 10.806057379861066 10.692096947686684
Cu 11.570832497993157 8.606918893014809 7.365848884772623
Cu 8.198028609974326 7.354684370950957 12.174389217108459
Cu 9.525590465630877 7.628434941395757 8.173272499819552
Cu 9.689138464196816 8.662188687373156 13.831675323673903
Cu 9.877714082586763 7.882219438365432 10.519509855591856
Cu 12.842227012495735 12.236322956041521 12.775606400914073
Cu 12.248440343340881 10.759316707608386 8.139939161610425
Cu 11.454370383669238 10.518937169567625 14.038333598953066
Cu 10.440532318714046 10.132572341523488 9.814089470660502
Cu 13.271742256781387 13.192611543047276 10.463326847717855
Cu 7.523294417213737 7.226850348792323 9.648086353638705
Cu 8.828331546563073 9.744015189633165 11.762060741268508
Cu 12.972866920554598 13.104993326593126 8.040871837795246
Cu 10.719400217202958 12.885793630377725 13.944676338137903
Cu 10.582072789255808 11.53012997890631 11.902551937249084
Cu 8.974960856878674 11.086252043175435 13.884696116411158
Cu 9.590412568211725 10.343690014064054 7.4948316672040365
Cu 7.28856896946113 9.22806671359836 13.553893589332754
Cu 7.547455440814706 8.592392972411385 7.208865801433615
Cu 11.155156847592513 13.861526201278894 11.6510566755189
Cu 10.965948540425336 12.356971343338037 6.850155197155294
Cu 8.11471459064679 9.54525196044446 9.34874537177858
Cu 6.491854364290865 9.051798931968428 11.222828991680508
Cu 10.944396996630138 12.493221146275815 9.434796067625102
Cu 5.816072748464935 9.022695438653683 8.859606605424569
Cu 11.533553722474387 14.770965613137037 9.358960135028731
Cu 8.782330781636107 13.181474826676467 12.452177827349466
Cu 6.991537521308049 11.349254150833795 12.282757281857346
Cu 8.634495820465464 11.810917409720068 10.305915578321827
Cu 8.57257804163576 12.404582753238707 6.469075125561148
Cu 7.015411114538579 10.915559159746069 7.571369153416031
Cu 9.659823173621133 14.080848418815094 7.8803333456815805
Cu 6.241597841947187 11.235691723666823 9.884145823302765
Cu 9.145925213840778 14.251503210862548 10.222818963823679
Cu 6.874139883068555 13.405385519527092 10.91744716145797
Cu 7.510158612177737 13.120631548984084 8.556644800812322
