52
Energy = -155.15345975 eV
Cu 7.8418679487475895 10.359553052226904 14.650833942169045
Cu 6.1052580683741695 10.211342973325916 10.95987256504389
Cu 7.303176778553454 11.570170962303656 9.421954881879339
Cu 6.341586585667619 9.113865540142939 13.14993302221323
Cu 7.039157414305433 9.093133451290774 8.816933721138659
Cu 7.166660713875107 12.477299463343366 11.739342219428535
Cu 9.065548549712403 12.279228377588655 13.56725908549895
Cu 8.803110460454109 14.317893167953036 12.114928215936311
Cu 8.403134463482195 10.705881829206211 7.373706509263206
Cu 8.024061554033636 13.885331234314304 9.897779015028743
Cu 9.010496071037927 16.0061324534086 10.360315391874856
Cu 10.130681046504307 10.097688927342029 13.990843687163736
Cu 7.5173486104641825 8.22733516294404 11.175180115007672
Cu 8.205011895686352 10.326814056373944 12.232694325803717
Cu 9.12991395892867 9.938800252099313 9.72560750973384
Cu 8.623396139672213 8.231537054543367 13.409741887582847
Cu 9.102658558582034 8.416444157742504 7.52556523385812
Cu 9.625655193213458 11.994525634548452 11.132090548441026
Cu 10.994596846394755 13.548563424741815 12.727109415257718
Cu 10.875733935714216 15.81126725567483 11.913090510644977
Cu 9.552991865902769 12.39454584403936 8.651680221779209
Cu 10.503768571788966 9.265125268070825 11.586982618820501
Cu 11.317265059924742 12.092544021624729 14.683833193404597
Cu 10.59462189412683 14.150960932964935 10.117961619592661
Cu 8.377228291900325 7.013875717985782 9.324174057993433
Cu 9.612048726348702 6.953949967780101 11.531947420102897
Cu 11.089375555825491 7.871057442934393 13.490203332480085
Cu 11.853710133477236 11.203477259133374 12.348483721717345
Cu 11.672885530959265 9.963649928839518 5.760792497283696
Cu 11.726226766791502 11.821132300580215 9.832227995615892
Cu 12.400507505739819 9.85307121533035 14.7059641012039
Cu 10.31715341828349 11.92857025123354 6.38203548058108
Cu 10.661731206711298 7.828984520770443 9.389627253437427
Cu 11.284529954916128 13.80036350870954 7.780907542929333
Cu 10.87432475504444 10.098851877646686 8.027055688494032
Cu 12.029014574118372 7.136924291863542 11.282327831006695
Cu 13.261342169783823 13.228802251043355 13.484401910474759
Cu 12.580482202089286 9.44568183640597 10.082614681338674
Cu 11.478371798019499 7.856609128091584 7.074008409742644
Cu 13.56449377852918 11.857211468408002 15.519610658134123
Cu 12.767145693251585 14.398745948750438 11.326723371243018
Cu 12.60601914896215 11.806292036229845 7.2982478444401835
Cu 13.06419950997838 8.955961101730928 12.554501440137333
Cu 14.204449135056256 10.966678608746113 13.384788732035949
Cu 13.90995461364087 12.290798403890713 11.249818359550003
Cu 13.284605511022129 9.439136090198446 7.5143725530153915
Cu 14.384593042464735 7.597314044224056 11.032598010015672
Cu 13.30928909253145 13.489834693271373 9.107300957502472
Cu 13.061876620271056 7.303294778465398 8.94196510035337
Cu 14.179695759015843 11.179128038452303 9.089099481973822
Cu 14.848985777770219 10.028186183073284 11.244521084757189
Cu 14.976774072003382 8.893716944464328 9.116121880958207
