52
Energy = -158.78586157 eV
Cu 10.718447731519385 11.178626651800032 5.130151151180693
Cu 8.611246031068257 9.797627498434295 5.045718242085175
Cu 10.882341421432315 8.650140381495914 5.334357058500177
Cu 6.534228847227413 8.393408892645605 5.176714416148781
Cu 8.808045521700713 7.257863106143462 5.357585156109169
Cu 11.011861549194734 6.17941667815962 5.83656395264734
Cu 8.60914518309981 12.076033298732348 6.224797581153656
Cu 12.384717010323458 10.150840931687693 6.706447704702451
Cu 6.50666834145204 10.655723527969318 6.255742522828251
Cu 12.518610053866203 7.679761579584475 7.160163286157968
Cu 6.919304967225244 6.523179961601929 6.7646176800729565
Cu 9.950239155712655 10.154225681491488 7.127675616305045
Cu 9.096011672091972 5.364969873908663 7.283457583292104
Cu 10.867378342164947 12.468042759944858 7.275422654296906
Cu 7.812132733475808 8.71845302240256 7.1704593701802395
Cu 10.072628349552888 7.610985644752431 7.491370469692754
Cu 5.357067569456117 8.69094206999432 7.413373615336051
Cu 6.575316548699008 12.792375041698836 7.5270773262726385
Cu 11.402289976010458 5.677033682149836 8.33352855464751
Cu 13.911304983390767 9.180627390415422 8.531981201629758
Cu 7.849503764218012 10.96049618089298 8.354609941270569
Cu 11.574743220155522 9.252494503716438 8.869813635173335
Cu 8.844140021166966 13.212867993580558 8.555517168853177
Cu 8.044542739554197 6.801314243427722 8.966441402497232
Cu 5.399489544701711 10.864624456439987 8.656203992494591
Cu 10.50484216747234 9.518012866388192 11.178224946059293
Cu 4.386651401936867 8.92665081031264 9.817445405882852
Cu 6.7089581249842904 8.851973116395502 9.480291195998175
Cu 9.14429218730118 9.08462490928039 9.180371989394128
Cu 12.866691207456569 7.285038169698649 9.719306496611026
Cu 6.851919437258643 12.496846500533403 10.033704133043898
Cu 10.238519130186022 11.303032956879319 9.385677115779169
Cu 12.960053301791858 9.498884672454974 10.910807470152655
Cu 9.43439392173671 4.964795137533616 9.807596635887426
Cu 11.063243268279182 13.499835661832726 9.615576716733514
Cu 10.416593550769978 7.206699984923797 10.042028253472251
Cu 7.518326509296268 5.8371669606960115 11.197666960926329
Cu 5.746737691820042 10.48167601498067 11.183746506072133
Cu 8.192359050955117 10.571608828899873 10.852174706206718
Cu 5.935419830885386 8.031609646605311 11.678142586839437
Cu 8.37233678223853 8.07718271540482 11.2663160075562
Cu 9.184578016559703 12.82454871251424 11.080054164355264
Cu 11.707561269350409 5.391241155248572 10.870091327199306
Cu 11.816071793153451 9.931642579431694 13.108702886109917
Cu 11.433876680681644 11.814684075655403 11.508686403436467
Cu 9.747646315076027 6.178044823937197 12.218939631061971
Cu 7.257083722392835 12.02309670048903 12.49533370466404
Cu 7.4308012078397105 9.598784068414304 13.03361779558249
Cu 11.821776900016465 7.592449414584677 12.112618610312046
Cu 7.644602730676176 7.119600697879125 13.32090660070757
Cu 9.524835927722679 11.022728411764465 12.947201322357358
Cu 9.74731766855634 8.494360429046965 13.323874218925422
