54
Energy = -161.79296208 eV
Cu 16.63598697782216 12.564392725696713 8.970674960206516
Cu 15.819791109279823 13.268681748597363 11.094908703171434
Cu 16.99526255115516 11.189038558062814 11.049807183149468
Cu 14.188325849768983 12.811679137154593 9.157817987161339
Cu 15.743695272038794 11.627237865730466 13.154416779918074
Cu 14.373747310098187 13.859867592196252 12.907070334167047
Cu 13.991751035605947 14.853400677461746 10.599607009147107
Cu 15.317329777229606 10.602569705663564 9.420171942084368
Cu 13.574235460157748 12.063510435341948 14.293081998465654
Cu 15.424488180540832 9.413267617480479 11.690419490447443
Cu 12.82477091349944 14.737253765063741 8.437689681868402
Cu 14.109690036126432 11.499764051875893 11.469021814789363
Cu 12.592264908376537 15.59888440155951 12.500081778645859
Cu 13.942437611211217 9.766933813749716 13.5978724715253
Cu 12.441345197845187 14.24163077447078 14.437068253275282
Cu 11.506011442053804 15.343171867884791 10.374621183233808
Cu 12.166694146978333 11.335114347251379 9.839982807575991
Cu 11.765155475002675 12.509881539870607 15.979867707398872
Cu 13.356734452860863 10.42084975207743 7.961006459944133
Cu 12.464847529095476 12.574347002790931 7.443482209589891
Cu 11.181152378146644 12.233583011593579 13.538037878885874
Cu 12.057662896984922 10.347415541265573 12.101443341327853
Cu 10.887367659419677 16.0755305582619 14.176167682093409
Cu 12.366101978385627 13.241782497871272 11.511537504305458
Cu 13.486175230546845 9.201890619642729 10.128797785319978
Cu 11.869401138693476 10.333382938911857 14.916692300184438
Cu 13.3636383729348 7.908251422535913 12.095656605595224
Cu 9.999089248671048 13.896396954527797 14.900358875874396
Cu 12.357085843197126 6.995859657552684 9.928510218379229
Cu 11.525904099370225 8.928646027604211 8.705505288367787
Cu 10.257898784039575 14.439826973701017 12.45312396306208
Cu 11.634629185347436 8.296453621911892 13.76270385061334
Cu 10.583027417120531 11.088020453686626 7.98044264393596
Cu 9.832816596684786 10.034329908408855 12.877781883131046
Cu 10.112054977101867 12.250290179009223 11.323919001833202
Cu 10.882143243712445 13.327074694878828 9.088107755335638
Cu 9.206228432066947 14.637738187251276 10.123411097148232
Cu 9.927696951259303 10.102045631092833 10.245560248936217
Cu 10.924786604764021 8.139783883122634 11.468797312301922
Cu 9.64037088575405 11.39542247222923 15.369520336808328
Cu 8.658323245346235 12.35297576538346 13.406294092491727
Cu 9.804515856340148 9.004623349402511 15.263945761609353
Cu 9.886032875363782 7.259351905979226 9.482287102509126
Cu 9.091478785316191 9.167077573290605 8.133941707285198
Cu 9.205782312164484 7.750417383899982 13.320279955519894
Cu 8.597783439922143 12.021940243905872 9.299821036753478
Cu 7.12242223286544 13.957991615959873 9.116802258482261
Cu 7.729089306889567 13.296949860890146 11.412041553366684
Cu 7.8243463157621065 10.029184929885407 14.091618314276882
Cu 7.794912643775744 10.848199432248979 11.664298863434707
Cu 8.35935593663699 8.4129766339522 11.168490099528727
Cu 7.508146134589291 7.529931488730182 9.056344287822718
Cu 7.229823266789281 9.878209668643938 9.484403726836026
Cu 6.215225538364678 11.946744778133194 10.110159674422603
