50
Energy = -149.37329556 eV
Cu 15.675672673453978 10.372882965720112 11.920997285908397
Cu 14.1351856597548 10.774131508664679 10.087832720022893
Cu 15.259869868153087 12.633411556832721 10.88572708346461
Cu 13.010122184879275 6.629086022452295 10.590698932651577
Cu 13.768461548018006 13.801704224791532 12.370870039340526
Cu 13.641409847603654 8.865569887450679 11.438619927557717
Cu 14.397711949798408 9.194438575365998 13.701701000117698
Cu 13.350745725130706 8.71684208810396 8.986455218733575
Cu 13.497097738573869 7.016052646164552 12.997199059979346
Cu 12.55020703494582 12.812640562816854 14.280008652646098
Cu 13.545484616357014 11.308794496928362 12.611338694530767
Cu 14.281848763483481 12.483951401153918 8.350610621553015
Cu 12.74634349471256 10.47999130817764 14.937419623550388
Cu 11.754039905506968 10.727759450860708 11.002420676938192
Cu 12.277153243169954 10.977370003598246 8.600719923111528
Cu 12.841810693924474 13.128195307006902 10.103026636924595
Cu 12.015386608115927 6.808150587318122 8.330880913230516
Cu 10.417730781886902 9.592441933201465 15.19754783594884
Cu 10.655087447329347 5.90758005318628 10.127798321367418
Cu 11.926666262393923 8.925221251359368 13.27243104085988
Cu 11.48458930243899 13.05742980635743 12.109889814591844
Cu 11.297117595578488 8.378901765460748 10.296638936488808
Cu 11.15463335476579 6.858215886464104 12.286668059436959
Cu 11.32647972762437 8.983393815076427 7.517392085623886
Cu 10.897675971041968 11.159781103648257 13.450222361750692
Cu 8.875555444034307 9.270800122609073 7.120225507662541
Cu 9.580265652431756 7.536885552321871 8.645289561179943
Cu 12.137691635225465 15.272964059165739 11.302893610734616
Cu 9.462096885195507 8.32220352253117 13.360797395298812
Cu 9.037330183063245 7.53871318000245 11.066604629338174
Cu 9.55043987717236 9.961986769775805 11.551765360466595
Cu 10.389390166328562 11.352889155757685 7.0662907079838515
Cu 9.896505987445002 10.158373393144904 9.142652438873231
Cu 11.000042215463607 14.833254190813657 9.212653775831638
Cu 10.320668462585216 12.485798070167816 9.842196990870445
Cu 11.926162230143849 13.196288397240913 7.741420106322991
Cu 8.512894193321433 10.547546085856496 13.806778468496804
Cu 9.140916981934772 12.381565992272582 12.20741430777366
Cu 8.076973124435419 11.462931236169895 7.709592902251546
Cu 9.782290001860687 14.621128104900068 11.30899680289233
Cu 7.76456744482502 9.022173044272344 9.49910640167858
Cu 7.365875401575473 9.135335371103086 12.106778308502568
Cu 9.452086007418997 13.56733298451516 7.676187782327733
Cu 8.602231393674765 15.26399049096543 9.271870407975802
Cu 7.8800332629426695 11.433338381270621 10.124059568985983
Cu 6.803904638716341 11.604879503814562 12.274272564254057
Cu 7.546135473805729 13.742572473654455 10.947999451974638
Cu 5.789790344472935 10.101071361735226 10.557042826586871
Cu 7.145999724788391 13.496795136168389 8.545652088884593
Cu 5.651566097786551 12.469540382212934 10.156175508490973
