6
Energy = -12.65101746 eV
Cu 10.546966576327456 8.993485673569356 11.88502247185629
Cu 8.725354848126265 9.270555782293792 10.341631001464075
Cu 12.09402147813615 12.441939044518906 10.160865266079066
Cu 12.270940062206652 10.661566489425558 11.724269884181819
Cu 8.804498268252896 10.931379678118292 8.65291514341887
Cu 10.509349917468153 10.755503167367786 10.21990922528484
