6
Energy = -12.66303615 eV
Cu 5.8240605227848175 7.879727320660029 8.187321719833193
Cu 8.007403449477799 8.923837748001754 8.751715271488845
Cu 6.143828381144351 6.233015417104914 6.508151998046384
Cu 7.59574347727342 8.222006206708464 6.507200117483123
Cu 7.93117950610249 6.623352661019788 8.139124068337933
Cu 8.53382570370838 6.113506788104771 5.8832610448895855
