6
Energy = -12.93612096 eV
Cu 8.98447167655234 7.834659305542802 9.331733786917829
Cu 8.188454467916793 10.023878931517242 8.737446017422242
Cu 10.467537234939227 9.727256929020415 9.447774514273812
Cu 9.627955597828782 11.852725511278747 8.94650005049081
Cu 6.760388848427955 8.181485993283394 8.672401037526031
Cu 11.183883302098897 7.59725676291429 10.080801967400435
