6
Energy = -12.94669192 eV
Cu 9.66815467902771 9.434003198090831 7.28646129141779
Cu 8.918161184151456 7.21833974449372 7.293906922297975
Cu 8.07617596212956 5.035830331025065 7.286741814137683
Cu 7.415221803589987 9.038125614568632 7.786318641616851
Cu 6.635661573890043 6.763840988521849 7.9303183526808185
Cu 5.233813958331527 8.54781744889531 8.48510969041314
