6
Energy = -12.39636312 eV
Cu 7.084570928501435 5.8157658235507 8.374648186463176
Cu 9.08160501288875 6.992081191123457 8.965762112315819
Cu 9.289518574775048 8.57873864781746 7.152503179760983
Cu 9.029953895875652 9.360610356005136 9.275026459345902
Cu 7.568911291106389 10.256736307566056 7.298115318803594
Cu 7.095839158405033 8.104601734721436 8.053703390275167
