6
Energy = -12.64094574 eV
Cu 7.283927740389793 6.856837151497358 8.011068991390797
Cu 8.842413368551957 8.419168189126072 8.694873540686888
Cu 6.657346133494367 9.120809448242653 8.382762717700821
Cu 10.518883517975354 9.856708457434587 9.379278192331418
Cu 8.255677391013048 10.70190048709953 9.235256262149612
Cu 11.001042279687551 7.5931214686410415 8.841850267668706
