6
Energy = -11.63679659 eV
Cu 9.164494067610708 7.911443941547907 10.430543864816626
Cu 9.32576417621862 9.45947367998138 8.672147558972648
Cu 7.401935569993302 8.932781944693978 7.472683225653882
Cu 5.54953080932905 7.569357286624604 6.975884970399277
Cu 7.689663855804507 6.909570759873555 6.207824199391922
Cu 8.8425108091699 7.172512227973101 8.247241983156588
