6
Energy = -11.29316681 eV
Cu 11.341962994521039 13.518318677065514 10.868575851805854
Cu 10.434299632695724 11.60842918562762 10.114264783672773
Cu 10.770128407139804 9.740387736895316 8.637349264379498
Cu 10.676069486509395 7.535746868076038 12.172982416642263
Cu 10.066046174917473 9.232203241241894 10.834768204802145
Cu 8.611899835395413 10.329422657794295 9.223114963933302
