6
Energy = -12.64160547 eV
Cu 9.536286669441361 7.0536298151512655 6.944758173867113
Cu 7.309891168770622 6.8423882200767805 6.194053654715788
Cu 8.259497887420011 9.366279462950752 9.98439830822754
Cu 7.808199310018947 8.159121121934085 8.045139813318528
Cu 6.054862798178218 9.201201370022842 9.162813783763113
Cu 10.118184057068955 8.475341633009746 8.768946855699747
