6
Energy = -10.68652629 eV
Cu 13.713978657258172 15.179143939890023 12.137452556223865
Cu 11.96059152763043 14.401335768371245 13.337667693169513
Cu 13.90491456098019 13.135439244064482 13.492162337680437
Cu 14.08481923304636 11.470849532154228 15.037260996279578
Cu 12.779428087957406 9.583758584433754 14.981954447085736
Cu 13.631123516247023 8.38645489904039 16.676122360574276
