6
Energy = -11.83381597 eV
Cu 8.21659881264993 11.644079501133442 7.726045341508414
Cu 9.109280465291569 5.865461649777544 9.90735055786062
Cu 10.157127678284679 7.975552928267241 9.9928354273493
Cu 8.26569528600464 7.626712908168863 8.594183957223976
Cu 9.249972489525543 9.816184718997139 8.80162491102877
Cu 7.391591414958033 9.462274440370027 7.368225951743611
