6
Energy = -12.78552848 eV
Cu 8.803807 10.881450966685206 8.626311498889121
Cu 10.779374431720603 9.44565657832526 8.626330107524549
Cu 10.025549971153247 7.123047450498698 8.626755262247276
Cu 8.803807 8.80398297566689 9.690359761567358
Cu 7.5820640288467525 7.123047450498698 8.626755262247276
Cu 6.828239568279397 9.44565657832526 8.626330107524549
