6
Energy = -12.63416637 eV
Cu 7.872908561552814 9.32430765677932 5.794120790564668
Cu 8.038047001502893 7.817848702235208 7.559177218276653
Cu 6.994011074883195 8.225584673503977 9.70792621290627
Cu 8.291780324399918 6.255907210823841 9.265944029979092
Cu 6.881812301506993 9.804043210630079 7.886754323509267
Cu 9.302649370833253 5.915112585702961 7.15367683867786
