6
Energy = -12.80182864 eV
Cu 9.06085675236201 7.7060883432893705 9.613102635425712
Cu 9.886608529401672 7.6526280158114774 7.318901935969164
Cu 7.709315087196777 6.997076012743941 7.841039005830766
Cu 8.005165152051786 8.26418554000436 5.900153842644709
Cu 6.694432986837582 8.284186755801862 9.51117270036763
Cu 5.957378779812978 8.399164234427321 7.189242497706623
