7
Energy = -13.76514896 eV
Cu 9.871885456234805 7.942532559957521 10.544248698905685
Cu 8.6945013 10.150292417748865 10.471625196247034
Cu 7.517117143765196 7.942532559957521 10.544248698905685
Cu 7.517117143765196 9.44647004004248 6.844753901094316
Cu 8.6945013 8.6945013 8.6945013
Cu 9.871885456234805 9.44647004004248 6.844753901094316
Cu 8.6945013 7.238710182251137 6.917377403752967
