7
Energy = -15.1487738 eV
Cu 9.233144159335101 9.393726614663734 5.992538279749603
Cu 9.38666896280402 7.710257653116171 7.6407444624917655
Cu 7.425309675415296 9.129296308958718 7.420466540992773
Cu 7.158861585584304 6.725113217888948 7.647464043460651
Cu 10.209953556410651 7.7000145167079665 9.859626058290601
Cu 7.928119095102501 8.000258212167028 9.565164501367299
Cu 5.694547172539093 8.281640888138902 8.809103635811594
