7
Energy = -15.73760098 eV
Cu 7.348120036128923 5.775132012998209 7.4553587462330775
Cu 5.635893128979408 6.708114109801099 6.076825455216754
Cu 7.867228189980756 7.536839608889201 5.83998611112233
Cu 8.938773747059495 7.540873126711033 8.031294123688662
Cu 6.539783529824799 8.064315431272616 7.846262457359184
Cu 7.386461184547932 6.71893986756753 9.649080801719187
Cu 8.211021558800446 9.5830672180822 7.028473679982442
