7
Energy = -14.95463966 eV
Cu 9.265359 9.265359 9.265359
Cu 9.265359 9.265359 6.903563173371334
Cu 9.265359 11.332398356601834 10.499478410758927
Cu 9.265359 9.265359 11.627154826628667
Cu 9.265359 7.198319643398166 8.031239589241075
Cu 9.265359 7.198319643398166 10.499478410758927
Cu 9.265359 11.332398356601834 8.031239589241075
