7
Energy = -14.01417072 eV
Cu 7.415464824572687 10.226380295328653 6.419757122246298
Cu 6.954860615735233 8.710565171265282 8.065462328896803
Cu 9.253472221195718 9.379640120117378 7.811176078072585
Cu 8.881169713005788 7.137658312287215 8.413787914184736
Cu 8.573780887720178 7.852683629572765 6.137032694570999
Cu 8.319848679789665 6.924254430006577 10.529996156046261
Cu 6.799375972448461 5.8982011325599695 8.903704497114644
