7
Energy = -13.99737333 eV
Cu 8.867545708715902 9.678167671457915 8.879634663100166
Cu 10.255014656935968 10.232519722899886 12.243057923243217
Cu 10.88521900009617 9.501653729119436 10.129236410965047
Cu 11.641144249503673 11.714934251035173 11.074471951261788
Cu 12.579897602607392 9.60811131057757 11.828704527091581
Cu 9.339615366331868 11.435921121842368 10.389553277477043
Cu 7.864246184703751 9.892237344484105 6.852662699119694
