7
Energy = -15.33117194 eV
Cu 9.479813129563103 11.514855126720265 11.525503541108039
Cu 11.643811867499393 11.655303826107932 10.475401763131817
Cu 9.655997924084863 8.811177757901545 8.5702602501894
Cu 10.442126526006817 9.452752426473952 10.744535236562728
Cu 9.681553493836423 11.155151507330928 9.150094360484452
Cu 11.770930548119379 9.913260602546247 8.826352510146034
Cu 9.316757027042557 9.504521560897045 12.779096658162908
