8
Energy = -18.19828327 eV
Cu 9.01296872708343 11.17696377278776 12.799991543705204
Cu 11.726925393541716 10.138893420443368 10.265013099313613
Cu 12.989734598926205 12.063002134634003 10.498325797523787
Cu 10.488469837355241 9.416608951379036 12.194331514564977
Cu 10.790712488430241 12.260192661310175 9.62273510366267
Cu 10.071220100705554 10.30184886399028 8.398876609630959
Cu 10.146278120043197 8.424119658309994 9.999617017585221
Cu 9.238828105758396 10.670290884494758 10.559390505033035
