8
Energy = -18.53387448 eV
Cu 8.285380437757103 9.015497399478264 6.391905181233684
Cu 11.034484448878214 9.125266991847493 9.39398050154651
Cu 9.087522193847411 8.044580413222588 8.446040933568828
Cu 9.61306728134537 10.303589725551547 7.896679333922651
Cu 8.527357644618077 6.093547602741982 9.564960258242241
Cu 7.287791301095388 8.06188101011724 10.059559009783834
Cu 7.268746372616417 9.81356234676066 8.425439057212955
Cu 8.892936044136341 9.836180536068953 10.211076979961483
