8
Energy = -18.17719074 eV
Cu 9.89519874852774 8.023440305196944 8.168104604674241
Cu 8.4828280846632 6.604937135583381 9.401820005148856
Cu 8.969383372622417 10.219289663713479 8.498297558780646
Cu 6.085352267365735 6.896504716512525 9.520187248190645
Cu 7.099113716683613 6.300728547830504 7.412594880758698
Cu 7.615058547006106 9.917675614468537 6.527141582792604
Cu 7.436018533657876 8.456178898287597 8.345752437716714
Cu 8.532220119798685 7.719286931323119 6.2058545409851655
