8
Energy = -19.05303018 eV
Cu 10.060623677654398 9.814372113343758 8.620745319236024
Cu 9.685013646237755 7.686794523266099 7.607929780816363
Cu 8.916074331576903 8.118758894830563 9.890058349059512
Cu 8.166320842961202 6.181731558171678 8.74772177666935
Cu 7.505737945010648 7.295584972287404 6.621901378884741
Cu 8.116041181095092 9.51232891225873 7.2104852905401335
Cu 6.767115430352123 8.175544875520863 8.757747042122297
Cu 7.766645760356212 10.21621343641706 9.489339753506712
