8
Energy = -17.67826668 eV
Cu 9.570145564041878 7.164523560157097 7.5472482717369935
Cu 10.619358672209707 9.231891874288351 6.895324272481283
Cu 6.016445081503043 6.7321856222149705 9.580855299415147
Cu 8.789147936710515 9.266208596000611 8.46506417983075
Cu 7.120803197045764 7.599960429126868 7.613272781600967
Cu 8.39257634464496 7.110064579177921 9.622144291532447
Cu 6.666551281341408 9.026740995450485 9.489346140784566
Cu 8.375238058666191 8.94275590448156 6.116965621566443
