8
Energy = -18.88220898 eV
Cu 7.663984043425531 8.995572092698414 8.117708528149675
Cu 7.35890039614571 6.831304996620891 9.099427049258653
Cu 8.814488756719424 9.1586228993412 6.000086571376912
Cu 8.221765118775007 4.909890460868117 7.927035492651544
Cu 6.625203822503729 8.152489636483567 5.933489516172061
Cu 5.484441787933622 7.9464446397916255 8.057551699637346
Cu 8.526585882696862 7.031679495667139 6.968520482560961
Cu 6.320009846714523 5.98937543344346 6.911560315106895
