9
Energy = -19.29947011 eV
Cu 8.985880179996727 7.838389839222927 10.135484628795167
Cu 12.489494911553683 9.78794962723359 10.75639283312903
Cu 10.571421666257292 8.668421318998545 11.653772671910593
Cu 11.105235044844543 10.854328694343527 12.423358548127528
Cu 10.821276765580672 8.99439204006147 9.213517805910312
Cu 11.096311375005033 11.322043321576007 9.583824497873799
Cu 12.682757317131994 12.167323452255122 11.153963166221331
Cu 10.435998647066492 12.925103078282254 11.30146277581898
Cu 9.073922506638711 14.732393258954305 11.500071909444623
