9
Energy = -21.40907595 eV
Cu 7.574630057704583 7.291963351440802 6.360425591334825
Cu 9.700794322347468 7.58245621990702 7.537724081869295
Cu 9.822207378383506 9.856474538220171 8.405577597610984
Cu 6.87763489286128 7.989948357374885 10.30085766288997
Cu 8.845421083376236 9.448634111786474 6.209492842883957
Cu 7.572020774448363 8.877593322642358 8.172514079900992
Cu 8.141975314078847 10.141984824715479 10.147052496312734
Cu 9.28837487053436 7.992364729701733 9.877893391940074
Cu 7.833596306265007 6.475235620880075 8.645117178588277
