9
Energy = -20.054636 eV
Cu 14.669838899287626 11.657630805263002 11.710107405274618
Cu 12.5088574078601 12.737818410101736 11.542006651044662
Cu 10.5516637438833 11.583532678260507 12.390046293129293
Cu 10.914614440094923 11.915830503646356 9.907022575989323
Cu 8.855555423719634 10.821589839790258 10.75601882960648
Cu 6.686774530087756 11.206823086379117 10.75828323794283
Cu 12.691451572561606 10.487918667327916 12.541931836652305
Cu 11.070888883472929 9.672358181432719 10.904314940748026
Cu 13.061962322546476 10.818618705103265 10.078044764437417
