9
Energy = -20.64875414 eV
Cu 10.755769960574511 8.863595120617909 9.431288850272106
Cu 9.797560400403174 7.030417017159898 10.70744963312192
Cu 9.140174450472765 9.7763001171419 7.953943139382356
Cu 9.408678968281455 7.294219967137332 8.301776142457635
Cu 7.909645041888285 6.176291195380876 6.918919081886528
Cu 8.241616352656104 8.657110742753986 9.977406549364986
Cu 7.229116335502897 8.252645165166712 7.721524175724497
Cu 7.324958879628132 10.413728111757756 6.565297835109682
Cu 6.81980812539514 10.22997847738357 8.929545226238567
