9
Energy = -20.26877105 eV
Cu 8.366221495476173 8.762360495841696 10.0211246832814
Cu 7.273376559710625 10.90278050738677 10.024729566126295
Cu 8.623583869990126 12.883051899525173 10.007671367056666
Cu 9.652932870118832 10.765634113680866 10.022866143316161
Cu 10.770233672433568 8.47912713340683 10.017479357814512
Cu 13.116394538146658 8.481235313885751 10.011913251078548
Cu 12.02591970436477 10.544048011272798 10.019807215075337
Cu 11.013901285100125 12.717717830110853 10.026032122931705
Cu 9.32332361408793 6.62993269488941 10.014264032938865
