9
Energy = -20.26649617 eV
Cu 14.949750477137732 10.818762859723044 12.47019552471471
Cu 12.816931862579876 11.018543392234033 11.777747610363622
Cu 12.250849380015111 10.921290663518393 9.405999698767523
Cu 10.873049715436137 12.215500888847613 10.928492602746392
Cu 9.867038549551404 10.845407379085719 9.17877857769787
Cu 10.952402681061642 9.631063869611886 11.00080298356863
Cu 10.696508233734873 10.97574898316983 13.006644819307045
Cu 8.898201785988716 10.878642114550525 11.425264760739276
Cu 7.584145570885542 11.310065500550559 9.531858757192293
