6
Energy = -9.58455670 eV
Ag 11.012204433607108 10.570434522815296 13.531804196663373
Ag 11.700128127771785 13.025012743751232 12.507741731722
Ag 11.205215799129556 10.781182366375864 10.872371418089553
Ag 11.530077717288032 13.20265575896585 9.767173795472074
Ag 10.993890459441689 11.012189935870214 8.222346767301193
Ag 10.486670938149517 8.439083451894527 11.924788643394303
