40
Energy = -86.23339777 eV
Ag 17.828513236010828 12.454937229765184 11.100029010272168
Ag 16.270745836899273 12.414741662886666 13.456811231033743
Ag 16.03233983946882 10.365414419956442 11.549060886382037
Ag 15.876596026549048 14.48096035997645 11.45270306502029
Ag 15.387753886643964 14.94669236755162 14.301455816301036
Ag 15.49375142929576 12.360137237722709 9.567215151670606
Ag 14.391269662860957 10.20919552840621 13.817516718727457
Ag 14.341856442262602 8.097101548996578 11.971674590406689
Ag 13.853642144079775 12.535447337853025 11.930326065887018
Ag 13.795845860899183 12.719685320028118 14.870543401943841
Ag 13.632600092263866 10.237623280442431 10.112783284673398
Ag 12.26368751793181 8.224566337630003 13.893024237024818
Ag 13.510102943285846 14.43339675060264 9.767427183681832
Ag 12.662763604798839 15.240379277864623 15.25058821866276
Ag 13.117730855401488 12.211334602798521 8.067251868695767
Ag 13.399612147383325 15.384056486163631 12.445885615886544
Ag 12.35330491178436 5.964160258619597 12.379581848682756
Ag 12.085813943950395 10.542006385182388 15.371138438456839
Ag 11.880307830963497 10.639534339449236 12.46689138743772
Ag 12.01164562103336 7.979442078900039 10.471455898786873
Ag 9.649648316307736 10.75157540903052 16.716140431595775
Ag 9.971853871128445 7.4736829365181 12.445188627242002
Ag 11.389275202946175 12.37855179775432 10.344307020783628
Ag 11.356304560179103 13.390522459299845 13.22928123495932
Ag 11.304442042464249 13.008607949301014 16.253195337317884
Ag 11.073552081579525 14.296815742650859 8.246216908735285
Ag 11.398380217182853 9.957939125799241 8.470964588447847
Ag 11.058881545829575 15.25384387693982 10.878419627100556
Ag 10.657069643508082 11.982802071716906 6.700521160794739
Ag 10.946160618822585 16.376342935925525 13.385203840317725
Ag 7.682898113868045 9.376457469773394 12.294880257094094
Ag 9.721531551537081 9.790807138142782 14.066389529981974
Ag 8.961863914988488 11.953015560605236 11.873611519772515
Ag 9.675659105543854 15.099842977314012 15.472360061482918
Ag 9.82555029210181 9.631682642586311 10.674916657386795
Ag 8.998677281101518 12.475757334630792 14.637431342253523
Ag 8.708986364533393 14.117091130793673 9.97314788107315
Ag 8.977251692205302 11.570060077779804 8.920312574426092
Ag 8.816362856196264 14.635019147241932 12.752895141069406
Ag 8.54228260654752 13.740379572665368 7.191019558896076
