48
Energy = -103.96827698 eV
Ag 14.645416596920477 8.415737462857587 11.87128780874507
Ag 14.643540088251955 10.587502959013898 10.150590100024584
Ag 16.961433296576413 11.9684203107079 9.62234956031739
Ag 14.751369536922223 6.249843961811106 13.572503072901425
Ag 12.012377852842146 11.391977239877667 8.661600198757977
Ag 16.801325124511628 10.22795165487571 11.89404436511885
Ag 14.386233286950212 12.917137772037213 8.446001262023833
Ag 12.317815050564155 9.06910529643335 10.402291725981112
Ag 16.12692184105882 8.725816591539882 14.22903412569339
Ag 12.254019109250132 6.899950592305669 12.258922889462774
Ag 9.90724899578197 9.599392513074429 8.74221039939778
Ag 11.878954693484099 14.05692844590205 7.597029191372442
Ag 17.50667478877421 12.936786183832668 12.191586160602421
Ag 15.526504218728435 14.108288997423744 10.694440482984247
Ag 9.865087196704437 7.872322288173601 10.99010983632181
Ag 12.985025456808875 12.654888862242043 10.942304546422392
Ag 16.965108476571867 11.470812303613783 14.454454638791068
Ag 14.626113723736792 13.039201907919212 13.178009059870035
Ag 12.917321612421876 10.72339608620969 12.852267219727327
Ag 13.27362070690785 8.362085308136171 14.471271040307755
Ag 7.567868201286295 9.274463307094322 10.233786251702304
Ag 13.054328060579502 15.244965474698075 9.789354030297957
Ag 10.421242563392187 10.985417917778888 11.063366358374598
Ag 14.450670546965155 10.811483935924594 15.23887079811413
Ag 16.44702133335542 15.091643641301449 13.634154257169309
Ag 15.409545942985925 13.483482764723433 15.787194890076538
Ag 8.127341035337357 11.928991123470896 9.677772820785098
Ag 14.332030905639346 16.097997403313816 12.122137531407365
Ag 11.918637781924822 14.436742880629396 12.679088857033914
Ag 10.451242117841801 13.599650201259147 9.945619442783482
Ag 10.527393767487899 16.269693664778192 9.070906103842672
Ag 13.80737340001849 15.663026466489352 14.824397808226905
Ag 8.13662954882243 10.521469571866918 12.64657452790516
Ag 10.644625235254566 9.035798676685616 13.360823355924861
Ag 10.414826443884047 12.015494575503633 13.635652764822366
Ag 11.695662160364886 10.368742422297148 15.639604169757689
Ag 12.638871808333006 13.036304093925049 15.199651825765523
Ag 8.058825164129246 14.877557050014683 9.628015041294331
Ag 11.985251368118826 17.363773679719102 11.307675514844584
Ag 13.5465910103434 18.31455070335872 13.508546927387883
Ag 8.477407674539077 13.356666539472771 12.037929895705672
Ag 11.408374457283283 15.24607300577712 16.345364690930907
Ag 7.692048065289581 12.52215144086383 14.624602183223637
Ag 9.635300625558783 15.906587451072276 11.742594640829754
Ag 10.08786961345922 12.645726311032895 16.354968140021942
Ag 8.929098201116487 10.134347454743635 15.382129652470793
Ag 9.545738710817602 14.670491737013375 14.329146349424187
Ag 11.270905320136242 16.85399248523844 14.002596203086211
