30
Energy = -62.64569539 eV
Ag 13.941188373248613 10.167207261385778 13.328380842639751
Ag 15.950429376593219 12.020184696929638 12.751859486612602
Ag 13.99861072813803 12.587939533191685 14.823667874087018
Ag 15.448933170014513 13.688865222768014 10.47052969430083
Ag 13.451207647679393 15.242991413572435 15.41952275728055
Ag 12.721299174357206 8.989908771282847 11.082691836021619
Ag 11.727889409376294 13.25746449578305 16.335442992484943
Ag 11.956212683598993 10.588449957376394 15.392666821418171
Ag 11.866825800426858 8.285601334813459 13.725062928456655
Ag 9.650604922475678 12.301179493236141 14.625878534641746
Ag 13.327826511630839 12.6744685605983 12.026984517169543
Ag 12.878679592292464 9.818771767996068 8.430012645788542
Ag 9.395678052118246 9.560849087438298 14.347163044366567
Ag 11.283072745134666 10.956837011366776 12.712936524501275
Ag 15.110575761992155 14.660858932368015 13.19401850703405
Ag 11.480660517417634 14.208010993206104 13.666018008223356
Ag 9.781819007612867 8.722815460955363 11.67097225854902
Ag 12.989093306785763 16.473092253029737 12.942507030313982
Ag 8.687871015556643 11.400356672091716 12.029522266319146
Ag 11.617576119557116 6.505004455828729 11.559582620718585
Ag 8.725731769488226 14.16262915905198 12.71821511127869
Ag 12.587355465895408 17.70062168684148 10.488159513075043
Ag 14.763890009886618 10.828156325147168 10.447805648646614
Ag 15.133038285021744 16.447292698376856 11.027851020217451
Ag 10.524366022043953 10.702933107345816 9.828733757679707
Ag 10.67762589221189 13.257666918196264 11.025944671837117
Ag 10.506632582576438 16.078368524031756 11.717781450374428
Ag 10.912491719523851 7.98453090872271 9.214797458066526
Ag 12.76234346383478 12.463969449870708 9.241751853803986
Ag 12.8324532169349 14.980420059839775 10.465975184989746
