11
Energy = -19.40722902 eV
Ag 9.779263454453448 7.524038799317224 8.833904637495717
Ag 12.078269368806891 9.123569182796045 8.788017059463952
Ag 9.35638361227555 9.672493650466794 7.074705283653336
Ag 11.761754489724156 10.855610603502363 6.641317874149739
Ag 10.549132794004555 8.893515232319638 11.0867701303209
Ag 10.418462634827044 9.598029790689502 13.810952570691288
Ag 10.46097840348314 11.2951293300768 9.097426670199946
Ag 8.032093581751218 9.509253464517748 9.528005368065593
Ag 10.799166232521802 11.501260505813956 11.83559156041805
Ag 8.152326419336681 9.722358684818515 12.318070007312572
Ag 8.306321697742943 11.979947224181851 10.6553093400908
