52
Energy = -114.46355354 eV
Ag 12.8415052104766 10.88096589561003 6.605072628447444
Ag 15.395237087397236 11.20850889517715 7.8208212022066785
Ag 13.863507997608345 13.447893883604298 6.866861984700416
Ag 12.919775669299572 8.853136384837155 8.478837464889903
Ag 17.191888226840852 11.629765648080257 9.958897730222704
Ag 17.184823514471983 14.271398820981759 11.185760626738492
Ag 11.216782157168748 13.082763661657626 7.6445860402009815
Ag 15.545630593749094 13.829259636241273 9.00723259538703
Ag 10.565347571501752 10.375568856494972 8.145400559953536
Ag 17.342161338496002 9.423953928987194 11.671010837240658
Ag 13.101512516050475 11.827022839151466 9.346900996471543
Ag 15.012360029131388 9.66351594311692 10.143026668552295
Ag 17.3372078333951 12.02521187692602 12.89859657184531
Ag 12.697800107719448 8.079088712698974 11.121752212389284
Ag 10.380430877443484 8.096112188699369 9.64258923865379
Ag 12.841772745057938 14.913338993818254 9.042419096551194
Ag 14.574284427149651 15.437902572982088 11.212832844074507
Ag 14.98720767602717 12.476229903429497 11.464374902549654
Ag 14.8890024583245 8.616186425349456 12.724947591570782
Ag 10.093166313028277 14.50455940998737 9.920299266303452
Ag 15.762267376202397 14.43124316585887 13.62199916003659
Ag 10.17424817857933 9.314359900275031 12.200280503345397
Ag 8.667534575976816 12.4020061485167 8.4396441849673
Ag 10.492865582731534 11.774136696770984 10.690802570961395
Ag 16.841641589249793 9.710303404812088 14.403235975093683
Ag 8.346983480176982 10.16330372953925 10.206216238580792
Ag 12.381637016696786 13.605741424066947 11.593784568253454
Ag 12.908609652617239 10.70844985468878 12.026516004435475
Ag 13.576291203671204 12.729245776657345 13.960726483600224
Ag 7.830508911596969 13.09231614665863 10.94581994101823
Ag 13.10796340098173 15.704940245620527 13.678360104630201
Ag 12.158544388421028 8.509688662504045 13.917962860162737
Ag 14.145476437135027 10.10099402462857 14.96656173811271
Ag 11.721770960509902 16.359475849477448 11.253644887416892
Ag 15.908568086917663 12.231014043609132 15.440200625920102
Ag 9.304884262578787 9.638807468490034 15.164936532779707
Ag 14.142643517324917 14.584615394604239 16.040976407614647
Ag 9.863806192893875 13.555618160576833 12.929573179662615
Ag 8.22821503688669 11.145086510238166 12.968561677615364
Ag 8.6259327987684 15.838542694170622 11.99902877399108
Ag 11.15227374595137 11.309406845208999 14.197023131964633
Ag 11.32399219669777 13.87710076919486 15.314507299795425
Ag 13.315010714480936 11.96090700815268 16.820845907882926
Ag 11.821695542967218 9.567301996870105 16.488459437150198
Ag 10.607475031026159 16.909508974739897 13.685973599912488
Ag 6.988832937693524 13.683485806878638 13.478287587221509
Ag 11.658443737485575 16.394507167262447 16.207250102240888
Ag 8.669487734479972 15.413983074270622 14.881924849423251
Ag 8.630328860942711 12.510825927703504 15.420071823118112
Ag 12.16154533476804 14.197189066808031 18.028587607671355
Ag 10.539355012287318 11.860869119306912 17.31971707859884
Ag 9.501820622567804 14.578193972066238 17.348388538012646
