16
Energy = -30.42222950 eV
Ag 9.512712296295895 9.94235768219133 12.768415066773288
Ag 10.270301134151902 9.592015151449933 8.27003732154591
Ag 10.190698382431023 11.603709006451231 10.455336352792308
Ag 8.399631384126728 11.626601300947188 8.328187087750642
Ag 10.779406071693998 8.500457839603618 10.721599102872364
Ag 12.29450912940195 10.163058921965819 12.428414459065234
Ag 8.184618760560651 9.598081128776096 10.235489801025452
Ag 11.973627050600145 13.98737563844732 14.906532129987566
Ag 10.919167507921426 11.437313522338734 14.55082209165492
Ag 14.209037490514037 11.92358001246172 11.459017246511369
Ag 11.141648362497547 12.120020566064971 7.584922256992547
Ag 12.4343886239856 13.25545000517041 9.709595228575946
Ag 11.673745710132762 13.014982600241295 12.359853065113333
Ag 8.469497491771723 7.521810860800768 12.0277978477759
Ag 12.576218040541121 10.409936574527984 9.582104793239353
Ag 13.664093242560405 11.889119297665644 14.149119571842357
