48
Energy = -106.25251440 eV
Ag 13.497380886396227 12.329873705689083 17.046779251861434
Ag 13.906209328921332 10.025472994710046 15.36227470172873
Ag 11.207050916197378 10.7652036038342 16.289828542081285
Ag 14.254586263813032 7.807043875812493 13.533023331497706
Ag 11.061106847593496 13.657572263047571 16.398458928974563
Ag 11.583624261788092 8.433772880898063 14.483795123403507
Ag 8.955061740888636 9.248078760770111 15.328639880686843
Ag 13.798117699139905 14.723160227954253 15.501698549528982
Ag 15.803146173233209 10.224997506359585 13.069452935143062
Ag 12.694896054041887 12.416370224022545 14.436896655318014
Ag 8.756998226616618 12.128020777005709 15.575178957986765
Ag 17.206102784099173 12.701697943701483 12.58674422866139
Ag 13.005120821030376 10.136503940728774 12.681189585282288
Ag 8.63771360347412 14.972320383282408 15.65185696611074
Ag 15.613231787268273 14.94914564471151 13.298098638650373
Ag 10.327491292115898 10.892590688731598 13.587592162393133
Ag 12.056099751950066 7.6172753948945795 11.70406960205703
Ag 11.335471893931926 16.087872812289227 14.983440637304481
Ag 9.314132034467027 8.359487481446443 12.631806771941568
Ag 14.492246590701368 12.612702381510195 12.280717848939421
Ag 14.651169383130348 8.720871810098359 10.819319450208337
Ag 13.88074481703258 17.105370727019213 13.927456290527086
Ag 10.106230710170532 13.88905501587044 13.651561375021474
Ag 10.759982138813578 10.082898512475602 10.835332568171019
Ag 15.987040211123018 14.1488937449351 10.423960879182175
Ag 7.2940773478426415 13.397336776300715 13.512956187841537
Ag 11.721674323208015 12.508950002198533 11.803610721127885
Ag 16.15692054147176 11.25412116184175 10.352514119679343
Ag 7.5324527098728025 10.567520091876064 13.220034731874001
Ag 12.717780831895091 14.930316591273137 12.796553716702363
Ag 14.924713660310102 9.818833163639367 8.183633298074044
Ag 9.858152623051224 7.658345944594723 9.893767800160703
Ag 10.46068480736463 14.812133737496799 10.950287950936405
Ag 12.398809049546742 8.646920974329234 8.934794097747105
Ag 13.095522601226929 14.16730126118299 9.991886549302503
Ag 8.927998299979945 12.404535534446682 11.391207048780537
Ag 13.32506957967495 11.172333454076613 9.97533968695385
Ag 14.451223239917251 16.42495260954483 11.121030093920115
Ag 14.69346851320067 15.542048697544475 8.28854814905128
Ag 6.270042135359036 11.940042079667533 11.107852443406989
Ag 10.787932574404138 12.580421540368624 9.135532770537816
Ag 14.896476962858861 12.70436827286789 8.191199677464963
Ag 7.959808969329206 9.746169322294701 10.491052542583729
Ag 9.934300862077857 9.928002009988454 8.137142436897046
Ag 12.464530931488552 11.00976904358295 7.285997591449347
Ag 12.484785010220852 13.864859419259725 7.217647004828713
Ag 8.045714139137644 11.960924860309746 8.717468783121484
Ag 10.038289402694513 12.254925483587488 6.542154068969048
