49
Energy = -105.84607370 eV
Ag 13.392121265788726 6.939777432214266 11.27599319098853
Ag 15.734164169720856 10.577890849170856 13.551597303650059
Ag 13.488434867790547 8.898210158591775 13.269011787405987
Ag 13.382437442971005 10.624379002945124 15.581829608114692
Ag 15.260099436411913 9.191690046502128 11.049632989671586
Ag 11.634293497603272 8.495760582757464 15.34658503261724
Ag 12.10824897321276 6.413557586289892 13.635102818996339
Ag 15.420868322777304 12.417689198007002 15.732968584060497
Ag 15.327846161714747 14.168150449444978 17.858164121839547
Ag 14.025861136332743 7.818533888283389 8.774381726412797
Ag 12.881511747632802 12.954224055759806 17.200599462496417
Ag 15.75571360579625 13.341527410776846 13.073635260671393
Ag 15.800844684155175 11.968978703379744 10.488934088834313
Ag 10.440646194841849 11.865060550613029 16.031844387651926
Ag 11.20642723363643 7.415159920729141 9.540409747110829
Ag 12.540033761633866 9.667879363531073 10.543607425212835
Ag 16.26240198980425 15.060008756056774 15.292291076696507
Ag 13.60466494192313 11.683616649884042 12.127224793107578
Ag 11.342775270818436 10.779716965990266 13.564348762965635
Ag 14.826348395184649 10.369839529680219 8.27260349486285
Ag 9.174528860587316 9.417192867167458 14.698425854977804
Ag 10.61968040834275 8.369779505443182 12.284149819868219
Ag 12.82181788762696 13.15353542465079 14.389886666145097
Ag 13.632288056861826 15.521924857754513 16.125638070872235
Ag 11.944871083002297 9.483348744359102 7.774714447354644
Ag 10.97354137251994 14.721282119512175 15.859882574403995
Ag 14.149600464071344 14.250918043485232 10.939775589036216
Ag 14.307800410189031 15.732133599250112 13.376115305620747
Ag 11.944809606833083 16.886242342752876 14.321211058448307
Ag 12.95977065782075 12.311768969808105 9.239006403575504
Ag 9.84242891899351 9.857541482167024 9.838835991127217
Ag 8.684571382337083 10.707496201899184 12.276086896399782
Ag 9.699333781674293 13.170635988410925 13.607562351249006
Ag 7.619684099209915 11.65211773566985 14.819952307673537
Ag 10.973466181064618 12.289137004620146 11.167482546700843
Ag 15.219527209182184 13.139412936662021 7.956817920433179
Ag 13.840340332430173 15.566944582744934 8.510623748678155
Ag 8.28436474646653 14.124133777281891 15.810797754868412
Ag 11.63767567207653 14.852989059839027 12.491658457987446
Ag 13.027431572011626 11.679368082283954 6.498848730375924
Ag 13.062001379513923 16.818238043188682 11.08821566448537
Ag 10.412175776239389 11.861316610157507 7.934035422519949
Ag 9.288031074358335 15.93709040343686 13.8335787209877
Ag 8.408754410625624 12.296758124877089 9.949502582612768
Ag 11.844942932662175 14.104813344086804 7.10200028866161
Ag 7.161859215951976 13.15606336513775 12.431525364338086
Ag 11.470535323224858 14.896045926737276 9.72798747498929
Ag 9.095775057175633 14.7665783962465 11.183194156445609
Ag 9.189587909944994 14.389456040974613 8.274501377345505
