42
Energy = -90.46429277 eV
Ag 13.446302454109365 16.3247917618762 13.664951930859637
Ag 11.578073033869218 15.57770432087555 11.71495074767736
Ag 15.266444234349853 14.194495417197807 14.114392077619689
Ag 14.214312102528273 14.733604324829214 11.454834564151488
Ag 13.173830641117071 14.951885654157442 16.098174794285715
Ag 9.922572293533179 16.669216646711796 9.80181780208429
Ag 10.764024012408681 15.658380051876367 14.48241709980122
Ag 16.336614843248867 12.988167464577884 11.738102725489547
Ag 16.43608191664204 11.788958937171168 14.763076630597574
Ag 12.324390557015494 14.909389980016012 9.098157549638238
Ag 14.79582858284574 13.47505484055949 9.037365805187493
Ag 13.87347551896604 12.235795175547514 15.764112949763456
Ag 12.515455648902599 13.650975050410292 13.59766688576279
Ag 13.093327705365375 13.652969205460407 6.738950674432606
Ag 17.311347515463527 12.20153514450397 9.29058607332107
Ag 16.603011604007374 10.25259849831678 12.435913437259739
Ag 8.852543011980325 15.742034886809083 12.31506137446575
Ag 9.762016398470086 13.988504925147652 10.251279764592814
Ag 10.998462531779806 13.13783280389833 15.918179394196743
Ag 8.5368374206245 13.990967135330862 14.499988856116484
Ag 12.407699765661533 12.61392655012045 10.756490005055435
Ag 10.229007249564146 12.428863502156275 12.70392487582685
Ag 15.037477960352112 10.923036006813591 10.188588828997556
Ag 14.111732687888596 11.567162659334812 12.825884270760845
Ag 7.5940320212500705 13.184237105673626 11.867131558374291
Ag 13.394947404240396 11.18150580648879 7.952591555331177
Ag 10.951985982223908 12.449370269588313 8.197053634430098
Ag 14.49299533430967 9.61512610935537 14.74008578618232
Ag 6.444665841802492 12.166701900432225 14.287590620600904
Ag 11.804994996213603 10.780853267858385 14.554832536866707
Ag 9.019910281643085 11.292785318352808 15.074828439336807
Ag 11.681977862622325 10.14169960662746 11.819906227248326
Ag 14.242172118651814 8.83610372214308 11.892852881127851
Ag 9.304993008509333 11.299262397964258 10.253457460861748
Ag 13.779018607987354 8.672639430335401 9.129485961075972
Ag 11.206005581613814 9.72321220673291 9.062695262656737
Ag 7.930872385912029 10.513807055891 12.568787684611282
Ag 12.342515748048443 7.998174240988513 13.741660084499703
Ag 9.745316692084039 8.871559655007621 13.89256278449232
Ag 11.928445178898281 7.479344779065983 10.86547129783567
Ag 9.337370214957184 8.599094957975375 11.049043277890865
Ag 10.107655718929086 6.437415896411566 12.695838499222674
