35
Energy = -74.62612172 eV
Ag 7.923792480795873 10.524879978073853 10.911146302727516
Ag 7.159905714628123 12.372662983116948 12.852899353533797
Ag 8.017486639784801 9.821165956028766 13.576894780937835
Ag 8.890741226896699 8.753509751869391 8.901622748174468
Ag 9.212607161455955 9.864759303981801 6.314358838734526
Ag 8.938442920186985 11.537484629846793 8.520340670117072
Ag 8.357842891282816 13.355023771796095 10.538346177680316
Ag 9.310640314415538 8.093191600715064 11.72249240945582
Ag 11.182293253909098 7.291430585076668 9.679297863428049
Ag 9.315318938491966 14.158114562034806 13.14991545859945
Ag 8.884279495353406 12.157324883095711 15.022095395590553
Ag 10.438498469878862 13.884897026194057 8.647601393337949
Ag 10.831545794676853 10.050449054880229 10.520875130033373
Ag 10.69799585689321 9.131348974694642 13.93093531880705
Ag 10.295624975985568 15.460168007806557 10.934012905658133
Ag 11.543093719936738 9.373879455706225 7.806660535015836
Ag 11.060546632138928 12.704281501222248 11.27432384912138
Ag 13.021589789187603 10.83186751811376 12.018902083810724
Ag 11.093438658895254 11.8964128970327 6.768497790300568
Ag 13.541262112404125 8.891837324349376 9.713067517146158
Ag 12.30817535577147 7.900278578605072 12.126581747440012
Ag 11.102580847312652 13.858155014112526 15.23682115262239
Ag 11.462573064260818 11.13625741135049 15.702434799668318
Ag 12.84833255809221 11.629778829109734 9.132408672304575
Ag 12.279939362098329 14.733311192504077 12.874328500862683
Ag 12.950095817679063 13.847455964474443 7.421885162598767
Ag 12.851494660354007 14.675520713159264 10.082110631472956
Ag 13.446818716111077 9.580349383707357 14.43043611306545
Ag 14.966450556295898 8.66933459110577 12.1337360624351
Ag 13.403933028987927 12.567810685650008 14.334788281619172
Ag 15.40192844597518 10.915913544120547 10.422415209797185
Ag 15.588631314119777 11.142640635655466 13.29727135446397
Ag 14.546737462006192 13.332910900331065 11.859656129054311
Ag 15.139909198269299 13.335256626527228 9.12234878476284
Ag 9.12632877920752 9.655172797970732 16.152871239265355
