20
Energy = -39.88359954 eV
Ag 16.410102970352952 10.578820141511429 10.909000556605122
Ag 14.174709471354884 11.635435027813443 9.637543524083714
Ag 13.934072794316444 9.203249008578414 10.960125275078246
Ag 14.3857594940118 11.404177897299347 12.588172050687849
Ag 12.016965056444674 12.289658081942406 11.292491724514836
Ag 11.80081734606987 12.870717831360484 8.614940374961074
Ag 11.831719470788476 10.116181383141969 9.306014199883238
Ag 12.000225464482812 9.862398610573862 12.920825478807638
Ag 11.456910512842583 7.930661142710999 10.973493071693053
Ag 11.22118790998109 14.8630841094973 10.621159534651264
Ag 12.232831315237881 12.496448837614833 14.002598438111718
Ag 9.690791517397711 11.15621033134437 7.875002569107145
Ag 9.2736012158092 8.975582558672432 9.653530350686058
Ag 9.90859481483027 13.514371919342459 12.715935847420958
Ag 9.303282382583152 13.046463421981244 9.942310562985627
Ag 9.38697149393006 8.853697790049209 12.609783470892168
Ag 9.834289321927862 11.104015511544226 14.18849019741693
Ag 8.186436204540088 11.432886732463086 12.017036984435624
Ag 7.385823540767715 11.132952992932278 9.409193496420174
Ag 6.985907041255529 9.062054452222478 11.213655940499077
