19
Energy = -37.46928161 eV
Ag 13.187609136647948 12.775812913292755 10.586230459306917
Ag 11.97102406960621 11.463657581277984 12.767292723564692
Ag 13.171606915856826 9.971893169743732 10.706405921492859
Ag 10.689318075584625 11.499235634829791 10.243455699369251
Ag 10.251664403121227 12.799457289555427 7.802027451347289
Ag 8.290204332381045 13.14905833176279 9.796725363109376
Ag 12.705298674851093 11.276616635192648 8.256336255859019
Ag 9.514947660214888 12.962654303530746 12.322423127033913
Ag 9.488066441437397 10.590392625446778 13.736640405169023
Ag 8.03714534204006 10.791740941706145 11.301410391435635
Ag 8.06638786038925 8.411421804671118 12.758463343187268
Ag 8.50616839101667 10.695497400239516 8.466843050657658
Ag 10.7820593939445 9.022151554666218 11.80928256325827
Ag 11.241017720212376 8.914932473737148 8.974357616493783
Ag 10.645157550998563 10.335096577633243 6.620877884725546
Ag 8.557042725601478 8.365985321995156 10.009720686943401
Ag 9.778057742820975 6.459169978842833 11.654421110235988
Ag 8.956025265324678 8.227312753325418 7.248288555884083
Ag 10.206837560725909 6.353984628516817 8.942105455252833
