32
Energy = -67.09650265 eV
Ag 11.135449194297964 12.389645452174438 6.002165168988121
Ag 10.894857433157465 14.570023811296535 7.752420231157253
Ag 8.521992564150752 13.060539117834395 6.975439281626675
Ag 13.132511121933652 12.660939735293121 8.253419596502697
Ag 9.327755972779372 9.75954346801987 7.318282623741271
Ag 12.203166357239228 10.171674329926669 7.251215898534432
Ag 11.630036035109942 13.932638116294005 10.353152832907604
Ag 8.871106086069553 14.076661967514612 9.774362213673074
Ag 10.352628135207018 11.93373604979281 8.612197233506
Ag 14.239054104076633 9.751808847085941 9.144733948150469
Ag 7.5985920476416435 11.390161871638364 9.060635582489104
Ag 14.121494249876113 12.853653762585227 10.890113385354631
Ag 12.143863369819137 10.811630586459232 10.352570079487208
Ag 8.588298838337993 9.011290551669733 10.06239584855603
Ag 11.16974425579216 8.43538968778445 9.05631262460932
Ag 9.360071402324703 11.703475141719776 11.243560477544603
Ag 9.878332719262483 14.185950914327407 12.508904300845332
Ag 12.899153879250301 14.731713037793448 12.705263301522397
Ag 10.143562995578414 6.607274988581199 10.83540106786457
Ag 10.533291102758664 9.264062913027525 12.08198776334132
Ag 7.82649673490664 9.900381037346852 12.705116819050392
Ag 14.488318975945958 10.367240461016651 11.994818069778246
Ag 12.94555152631347 8.085164320312703 11.272231811040148
Ag 8.650622309510615 7.266342020398839 13.022276128433099
Ag 11.785901964414238 12.04346639939041 12.745808394434572
Ag 9.342124373794269 11.8896619050669 14.173012986897001
Ag 13.9948117839008 11.965216621169246 14.282788113739933
Ag 11.601848655122428 13.764459096498257 14.915704515547635
Ag 11.402772972846774 6.9683867095636245 13.422659821308606
Ag 9.850771082231846 9.135287580519146 14.773067012113797
Ag 12.84050651070631 9.298977492522253 13.928249896537391
Ag 11.623682591759318 11.11811643297624 15.630345808206215
