48
Energy = -104.01124295 eV
Ag 10.906869986145345 7.216014433444497 12.157499986194193
Ag 13.503302431958165 8.07892667993419 12.59372930584959
Ag 10.670803557226813 10.195932123278432 16.79192850491008
Ag 11.350190814784188 9.004935834223279 14.347183064200502
Ag 16.154984230134982 9.062047578320481 12.941479573376014
Ag 8.828362704308748 10.643245878494657 14.79123125097163
Ag 13.349937098804892 10.007750363281227 16.279286117895836
Ag 12.67337602598063 7.339331920755173 9.987007692185768
Ag 10.129659456658734 8.699101780968428 9.845207833876172
Ag 8.960577116520637 9.118815513490656 12.473704549351835
Ag 12.302588759335658 12.369466598467262 17.438316863192647
Ag 14.98249688042191 8.937126819113821 10.399112439274543
Ag 11.639672821305503 10.21649614778396 11.791139620968726
Ag 9.65526514121036 12.817578166073494 16.483034392929234
Ag 16.091127307977054 10.315377048510436 15.450922533422457
Ag 11.382036554256791 11.902005907931278 14.216801334583213
Ag 7.156991371055913 12.82841926023133 15.038795870488693
Ag 13.859231300336798 10.597525013912682 13.651629573687202
Ag 15.47351462167056 11.21077465612063 8.727127509351863
Ag 14.45043704343317 12.590038435948767 15.629126328323276
Ag 12.715919948067121 9.936666013084674 9.063141350038467
Ag 17.33147709591751 10.428979699166051 10.808394173293044
Ag 7.802746351576271 10.326416348162358 10.20709421624713
Ag 6.722169982386303 10.91661674704152 12.871466531598617
Ag 9.222443392006536 11.986104270718691 12.177099313778971
Ag 16.336382990115027 11.880246014607817 13.119719318345004
Ag 14.064454828071556 11.666988071352028 11.053860767914006
Ag 5.582428453291629 12.075143697711507 10.617790525179926
Ag 10.278323995619537 11.444957994841683 9.32307768866875
Ag 16.74961822501249 13.065972241597168 10.516546987600936
Ag 11.978139531651543 14.313603682434296 15.503472061519428
Ag 12.837351478464802 12.633477076147079 8.594117087594581
Ag 11.578772770418597 13.116697003055169 11.31714024001126
Ag 9.353424217892558 14.211450426241758 14.054530045027578
Ag 7.98612824927798 13.135563738603917 9.730601724509842
Ag 7.0069834435476475 13.773843826760007 12.407018872033612
Ag 13.655323190304195 13.573541773111259 13.20102380804843
Ag 15.340605335403923 14.02342744126036 8.229769179083616
Ag 13.864628382607469 14.51994338810287 10.496646464307542
Ag 16.200347624339685 14.606742684084397 12.822826399676144
Ag 10.4332791326395 14.218044842336784 8.871142942819889
Ag 9.303516422712999 15.017462214167685 11.370112353644595
Ag 11.578209912922823 15.488239238264079 13.001557303958982
Ag 16.396480584389806 15.804631643660581 10.354078580125096
Ag 12.831349510790792 15.356910010405795 7.911895209963596
Ag 11.575614942442945 16.326003171259007 10.353526121289397
Ag 14.111646988912437 16.485761189815083 12.35364517157899
Ag 14.102625194000813 17.22437667220418 9.604096279226981
