46
Energy = -100.14191275 eV
Ag 10.720268649242264 7.765474249447278 15.34416532820138
Ag 9.758587878448227 6.397278513065967 13.179362648704961
Ag 12.46722065389631 7.475684338376575 12.961132144394762
Ag 8.140043547749041 8.480127179166546 14.301421471831919
Ag 12.69042805798376 9.663160768987005 14.815700590171865
Ag 10.780524280223803 6.931941168663204 10.670558067437971
Ag 9.996992302277611 10.428891595409075 15.643078635124356
Ag 8.16367701385415 7.835685500144608 11.458194394304671
Ag 14.595468748110392 9.449880859856428 12.703454849117984
Ag 10.420932730587898 9.420387260535641 12.948970423298212
Ag 12.22260212493726 12.05028278359173 16.382057720484827
Ag 14.309992048657504 11.824366298273938 14.375116713295437
Ag 13.212639165882651 8.430558723868543 10.415647734160235
Ag 8.826014605024362 7.960750836745732 8.744837935120074
Ag 6.370699250379528 9.64578833377763 12.481619223834885
Ag 12.69887274298808 11.085449225501971 11.551313753576743
Ag 7.911892981701246 11.357912605347668 14.071873733536918
Ag 15.209492540834919 10.320910920835694 9.946276256919006
Ag 10.573199275636274 9.704303504029419 10.198005542228145
Ag 9.676929960416684 13.306939443859934 15.520875307922317
Ag 11.51146656442089 8.10901638392365 8.113397876007422
Ag 11.41428615053931 12.177502042489383 13.755043193685578
Ag 15.641605143329933 12.156725716681807 12.012722770610512
Ag 15.764722554354517 14.23541119190785 13.877223454257322
Ag 12.789855032540752 10.564936086523762 8.45548930476353
Ag 6.700321148436035 12.273673725536655 11.626892972151223
Ag 13.070335683980913 14.287969732607426 14.770533577663382
Ag 7.714626838493148 10.186743730955522 9.988960437750512
Ag 9.512350925592944 11.836015394880413 11.745715620602368
Ag 14.025807707156646 12.908998133991568 9.79018654813419
Ag 9.967093279704459 10.845231217711357 7.792126284659829
Ag 16.808045716862562 12.841936598561665 9.505001129764516
Ag 8.289534174393706 14.010794234553199 13.163738036721218
Ag 15.849292586686555 14.877024654081156 11.13991703184402
Ag 10.702912868526209 15.247309153701337 13.633716309352128
Ag 15.161519164346288 11.910681079620925 7.446331102583259
Ag 12.543205031108668 13.995400039715888 11.897113387995166
Ag 14.076493219472177 16.202142607946204 12.879805529402914
Ag 8.438547885477938 12.826775994329738 9.352267294785548
Ag 11.177813335746764 12.642288684926276 9.60515462952788
Ag 12.695451093436183 13.221149480763316 7.3194831478224875
Ag 9.85150318128757 14.757141977902437 10.933882311086363
Ag 14.990473757894602 14.974800400010135 8.262515860437178
Ag 14.269219117536542 16.932702169237476 10.200528268048451
Ag 11.725688663055523 16.83060351654311 11.484328082802785
Ag 12.284827639024599 15.245343385164565 9.242810057183888
