14
Energy = -74.42997044 eV
Rh 11.661831098571238 7.3652975713816575 7.846661643264838
Rh 9.287800092094143 7.671137518460327 7.109658597855136
Rh 7.6468292662592505 9.27442145752859 6.354787376016191
Rh 10.886218167063431 7.2642844976032395 10.13728634490134
Rh 10.618294538650359 11.956405043483686 9.125553690495328
Rh 8.768850894524713 10.990311795405594 7.707519609516106
Rh 8.812233574065854 8.311851358288127 9.409258627159899
Rh 10.718443945093162 9.624252732447623 7.9399607655388955
Rh 6.913072697401868 9.538960833530721 8.677211663021296
Rh 8.646195904202152 11.000455693329515 10.320388741063386
Rh 10.877496651937005 9.814970727532087 10.386732955034633
Rh 8.270299375856963 8.854299929296472 11.69060538930598
Rh 10.53320771964659 8.288961827098708 12.332979928024125
Rh 6.386652920394025 10.197155328932983 10.96373995296856
