12
Energy = -62.25182797 eV
Rh 8.64201479087642 11.162380626869707 9.264605554346973
Rh 8.64201479087642 8.610544373130299 9.264605554346973
Rh 8.099645049015367 9.8864625 11.45487837730906
Rh 9.8864625 8.179242276847631 11.472904044311191
Rh 11.130910209123579 8.610544373130299 9.264605554346973
Rh 11.130910209123579 11.162380626869707 9.264605554346973
Rh 11.673279950984638 9.8864625 11.45487837730906
Rh 9.8864625 11.593682723152364 11.472904044311191
Rh 9.8864625 12.372865648565167 7.50049254623268
Rh 9.8864625 9.8864625 13.35433509369944
Rh 9.8864625 9.8864625 7.3682426768480065
Rh 9.8864625 7.4000593514348285 7.50049254623268
