17
Energy = -91.40596498 eV
Rh 11.52012712196073 11.757786067839959 7.373172555888432
Rh 12.516869071780663 9.884306477014858 11.157400197799417
Rh 10.014177866789467 10.486606672846639 11.407804132332124
Rh 9.107908091102235 10.591507935902154 7.5152336055058555
Rh 7.1215181717045875 8.28736822452493 10.431832690453938
Rh 7.867117388042439 9.893279555999444 12.320094171208673
Rh 9.12025520818891 8.373184520351195 8.826635079055743
Rh 11.146533131100755 9.807813290221008 8.954468087105857
Rh 11.767843974170063 12.125405558798919 11.93383250035458
Rh 8.727278345505512 7.581967569745202 12.244000398726808
Rh 10.047399797313622 12.07330750554051 9.35898261911665
Rh 12.290976605759436 13.023891726082457 9.764233107454338
Rh 8.912677116074377 6.2957349946893775 10.096640543320195
Rh 10.700043697859341 8.047213004662709 10.821927425075668
Rh 8.000055138224411 10.654431258013176 9.815816959052565
Rh 13.325282378568366 10.970893887312666 9.06033679126561
Rh 6.925924063818781 9.246188513961547 8.048036645229432
