14
Energy = -72.1890484 eV
Rh 9.06114895966595 11.92648509424894 11.393879028303918
Rh 11.241210361978583 10.863152691697724 11.30858508382558
Rh 13.141329991507934 11.91800698499067 10.11574
Rh 7.090150008492071 8.31347301500934 10.11574
Rh 7.110505729253412 10.7733564475508 10.11574
Rh 8.990269638021422 9.368327308302272 8.922894916174423
Rh 11.170331040334046 8.304994905751064 8.83760097169608
Rh 13.120974270746592 9.458123552449198 10.11574
Rh 9.06114895966595 11.92648509424894 8.83760097169608
Rh 11.241210361978583 10.863152691697724 8.922894916174421
Rh 8.990269638021422 9.368327308302272 11.30858508382558
Rh 11.170331040334046 8.304994905751064 11.393879028303918
Rh 7.529891958458938 13.302981597891115 10.11574
Rh 12.701588041541056 6.92849840210889 10.11574
