16
Energy = -86.23076849 eV
Rh 10.05272563998031 13.72753687417963 9.402487224597925
Rh 11.537769972607729 12.90113893744023 11.13100479517614
Rh 10.434647144166801 11.630023860256262 13.086380588182442
Rh 9.18840719648513 11.867148472133564 10.862915360073401
Rh 10.06489970216055 11.548376386649618 8.398958977860714
Rh 7.030701631160187 10.629746922279553 10.672877214701554
Rh 8.621996102193325 9.920389272136845 12.397038252339673
Rh 11.560915895802596 10.776546240681792 10.10257516388818
Rh 8.444864668692844 9.694254621018448 8.976232473681618
Rh 10.279858329145295 9.333152852352447 7.251389372907258
Rh 13.265901744426838 9.00353712755732 10.649081550971042
Rh 11.659528610590172 8.404567008196363 8.968228688742405
Rh 11.559271846863483 9.509556167010771 12.347085494485965
Rh 8.56380326842748 7.593252653918138 7.744243565060068
Rh 9.875820992698495 8.818726742091753 10.666517667714686
Rh 9.962419540832865 6.736967613316101 9.436210663333764
