11
Energy = -56.51339242 eV
Rh 9.79586419318529 12.424437715104755 8.976909264895532
Rh 10.18145267500878 11.184143919140013 6.8496732008272545
Rh 11.671566128324631 10.647512203976694 8.866635931535226
Rh 8.85009274760558 7.102615275417063 11.466531892298313
Rh 8.416024433259473 7.835162448015547 9.07571814266446
Rh 7.639765599425198 9.292499233519372 10.993789322843112
Rh 10.373203037071471 8.823036431860025 7.7053237936012975
Rh 10.707904228308918 8.24558990566844 10.167632573440105
Rh 8.367138975482566 10.277101825044959 8.41232684605024
Rh 9.74170020381376 9.170288453015607 12.513732831343061
Rh 9.758674778514358 10.500999559630046 10.4751132005018
