13
Energy = -67.87198893 eV
Rh 7.386799015979537 11.465468098903873 7.597985093071246
Rh 7.10586592310861 10.40451159445654 9.75238139660249
Rh 6.744398664063126 9.138630825974007 11.816470691958123
Rh 9.693406414424045 10.771105147413284 7.443148636871921
Rh 9.46455528936266 9.79112928582431 9.678940512360386
Rh 11.979295058031987 9.950160616617472 7.234344271410326
Rh 7.867867731999676 8.983325396544428 7.720506832685328
Rh 6.90595144836063 7.8081787538590675 9.733950410263255
Rh 8.883743245283402 8.08425039981232 11.311020558649965
Rh 8.576623036659111 6.648553234955067 8.173940642502886
Rh 10.147686825301324 8.285747628534885 6.883229389807745
Rh 10.152025395712894 6.565515467345809 9.928191699147343
Rh 11.402768765728448 8.437928221142096 9.062255466682709
