14
Energy = -73.89000609 eV
Rh 7.135395889645602 9.997772142367463 5.472322969515864
Rh 7.39836299938482 7.430686210174442 5.483309636883434
Rh 9.335116776867514 9.180929072252074 6.15199717337672
Rh 9.843307476021787 6.74791044486282 6.639672719912838
Rh 5.470342022174728 6.260395543134054 7.242177817181395
Rh 5.4104834300032065 8.763635391996855 6.681126492355823
Rh 7.810595265680397 5.089927019292051 6.960304345554667
Rh 7.6683248646495 7.4087142162410125 7.852183072684607
Rh 9.905142897414294 8.497502304627874 8.519804992649213
Rh 9.297253809130298 5.9694398410165626 9.122601500079263
Rh 7.48471826646389 9.780982214793559 8.020568567188532
Rh 6.727924709758002 5.703689005888472 9.460138570267194
Rh 5.53674838541212 8.002447943945057 9.123078888154835
Rh 7.9284785303444725 8.118163972358067 10.22290857714625
