10
Energy = -50.8058087 eV
Rh 9.10592417284033 12.314455596949575 9.606444068392088
Rh 8.4521617832266 10.269165343838257 10.731831970777616
Rh 8.562927929342404 10.365146260942977 8.171634513080873
Rh 8.111638523946192 8.099787045452782 11.790848974092492
Rh 7.965174660302652 8.171889626269888 9.358166546737268
Rh 8.161704580944546 8.246700565687782 6.943945491784859
Rh 10.784210715733794 10.574782428790854 9.43767238441943
Rh 10.228406051662969 8.32876535161167 10.687891566693077
Rh 10.296603089072885 8.478071785038779 8.063583909099941
Rh 12.274142651514182 8.648019851313009 9.475790640893363
