12
Energy = -57.73664964 eV
Rh 11.979166744220157 14.257163561369737 10.694676
Rh 9.410185255779846 14.257163561369737 10.694676
Rh 10.694676 12.141777537281653 10.694676
Rh 8.19579312210397 12.12999858209235 10.694676
Rh 9.424073383171876 9.966989068329436 10.694676
Rh 6.951392114377424 10.00968278906181 10.694676
Rh 8.222438017647569 7.822364731379317 10.694676
Rh 10.694676 7.821936921893938 10.694676
Rh 13.166913982352437 7.822364731379317 10.694676
Rh 14.43795988562257 10.00968278906181 10.694676
Rh 11.965278616828119 9.966989068329436 10.694676
Rh 13.193558877896029 12.12999858209235 10.694676
