12
Energy = -62.50716971 eV
Rh 8.40876839137391 8.567345685241442 7.269790059085102
Rh 11.444713227881929 9.657375548138157 7.374569131617865
Rh 10.199374447284319 9.505493320533523 9.430287609687467
Rh 8.106819936371148 10.025618932861859 11.882343561148893
Rh 8.792294095936125 7.094953093810568 11.305673286354125
Rh 10.597815319985685 7.499837023589614 6.765888229064754
Rh 9.669360085159042 7.139740124557062 8.992777173113641
Rh 9.30766659516921 10.92133411394942 7.485411047783278
Rh 6.873689373702885 10.395071448451272 7.9713111685889
Rh 8.342576182623102 11.267960615190797 9.819947133282254
Rh 10.259025840080298 8.9644393742587 11.742039115940235
Rh 7.777850504432603 8.740784719417832 9.739916484333351
