18
Energy = -97.72798669 eV
Rh 11.780021473655763 14.21769494615529 8.91161295574266
Rh 11.524513729115965 9.04773280831224 12.992140615477862
Rh 9.85371527976576 7.701708613501386 8.379162093043231
Rh 10.109782425577787 10.627940959932541 14.427206512457012
Rh 10.066355659954343 12.017478622465894 12.336430089493792
Rh 12.04227778318522 10.526332066728575 11.031485988156264
Rh 10.659244545141906 8.382393541372258 10.627338957095246
Rh 9.805230661947844 13.357375806770289 10.215888652096268
Rh 12.096441809634277 13.100892311439035 11.197312566090698
Rh 12.312741278110789 11.448113825011099 13.38729823737653
Rh 11.434871780632365 9.765667764994815 8.58445883474368
Rh 10.594558471235755 12.146541241106599 8.097874403259256
Rh 9.143531941476164 9.608120701061697 12.328933092363787
Rh 12.877074635791683 11.899860536795073 9.10147889671823
Rh 9.016044345217324 10.081248462397209 7.816872085607388
Rh 9.566528049502738 10.86954538254092 10.116106387566209
Rh 8.159711192346434 8.789007661230453 10.00101550823554
Rh 8.968307332433108 6.507528009944888 10.357722083270527
