14
Energy = -74.14444571 eV
Rh 8.946621890502561 9.630727345169229 11.37720403763383
Rh 11.520479587528389 9.9479359376355 11.747482429450162
Rh 7.92459106401548 7.343272482232142 11.6699592284198
Rh 10.448326166844152 7.62787244528035 11.389476813046947
Rh 6.794763052769017 8.946576703099007 10.053110676725645
Rh 8.822672121748713 7.668997771021124 9.331450858673131
Rh 10.930739481140169 9.171879460297335 9.42905575432264
Rh 8.517432470923318 10.446635863384005 8.954360047446723
Rh 12.601664225889603 11.070170866979103 9.719966161114698
Rh 10.233558273330674 11.66856630289861 10.34620469735328
Rh 10.70220060824634 11.147083426204235 7.846659651036366
Rh 8.46348214472974 10.785784426410249 6.443859703244036
Rh 7.29244376701708 8.782130127203509 7.531626788970996
Rh 9.83089417426634 8.792235929040993 7.189452152561475
