15
Energy = -79.88236161 eV
Rh 8.000055317232748 7.52386457640883 5.720139833002004
Rh 8.587590978722346 10.073082937601777 6.140997169862014
Rh 6.261062574280379 9.337782593690036 6.593045795802636
Rh 10.318997081255903 8.324432927552317 6.508932018974892
Rh 5.800391282125712 7.114735404765185 7.4876334884477584
Rh 9.788857079088586 6.099192591826026 7.439443320467027
Rh 7.485438897779411 5.475736534204303 8.086301769636925
Rh 8.228049426533975 8.063038518505593 8.194615082546958
Rh 8.836422860822108 10.648604781478893 8.488765347145506
Rh 10.730753866219253 9.146402633593652 8.721297044743787
Rh 6.45585164306272 10.173017197227344 8.817482865448577
Rh 10.154720068914285 6.949844648944452 9.659272957475709
Rh 5.833368496164526 7.983999829267481 9.760054843725445
Rh 7.79662476164335 6.483436779535663 10.2364067641649
Rh 8.133503596899702 9.014515976142777 10.557299629300612
