18
Energy = -98.44341031 eV
Rh 11.497457641883743 8.992903306363589 9.747682891119272
Rh 12.265606410012367 10.329651799189413 7.873571775715226
Rh 10.518467953706706 9.228445300525408 6.5128659303842955
Rh 10.658351353515892 7.162234025565475 7.94013085431961
Rh 8.584920511212077 7.578213884335362 6.428442514654273
Rh 10.09640907459434 11.511624415281082 7.939733385274256
Rh 9.975872775996843 11.116828859545667 10.422672992425655
Rh 10.079636765489937 8.967169175139906 11.861426358501898
Rh 10.462951268838093 6.801761319882061 10.501692439914633
Rh 9.2903884252378 9.240281559205595 8.734721357707787
Rh 8.300654167070979 7.020296287928816 9.015580060641879
Rh 8.209358332482006 7.277914999680687 11.577526733091743
Rh 6.357569282309297 7.902952972256582 7.588894706971476
Rh 7.844920663848115 11.786770555018695 9.074449332053565
Rh 7.731014735953925 9.99319010273187 7.122782447989077
Rh 7.846072693819028 9.657542933684187 10.66806475978873
Rh 6.091724169635195 7.810849697140231 10.139795034924807
Rh 5.97841282107354 10.073654973182261 8.960501427234142
