14
Energy = -73.40644252 eV
Rh 11.077832146153293 10.840270635911585 9.9466135
Rh 8.909597498951502 8.682680138825901 11.845192879952036
Rh 9.565308113540281 11.14820222168891 12.009529690596105
Rh 8.467459796165627 10.237085945413279 9.9466135
Rh 12.102068048601947 6.782562389249728 9.9466135
Rh 9.684543684733447 7.207064632663608 9.9466135
Rh 11.332355181310616 8.793559435068891 8.608969454506395
Rh 11.069423064484333 13.062795294231885 8.673508874067702
Rh 8.921698991463119 12.759221891607545 9.9466135
Rh 8.909597498951502 8.682680138825901 8.048034120047971
Rh 9.565308113540281 11.14820222168891 7.88369730940389
Rh 11.332355181310616 8.793559435068891 11.284257545493594
Rh 11.069423064484333 13.062795294231885 11.219718125932298
Rh 7.245618539949518 8.051909401881861 9.9466135
