16
Energy = -85.92729233 eV
Rh 11.375503365602809 10.370736247798026 7.159155661603633
Rh 8.016507429348302 7.917833360689258 6.919725313274824
Rh 8.971408013826037 10.084715786686324 7.707672683138937
Rh 8.741095953930131 12.62626549961349 8.17961062873847
Rh 10.450321769078913 7.992216241655814 7.363719784547398
Rh 10.490729073126767 11.507412338220735 9.382282399062683
Rh 12.025973752198487 9.411996664302338 9.344176191847646
Rh 7.2741557179405465 8.53974356870499 9.136274810335971
Rh 7.401640643598817 11.058813207087203 9.431432633652587
Rh 9.746224222324546 8.537893460815452 9.667152048068164
Rh 11.57918110883672 10.620199305517007 11.479896606451701
Rh 6.573142749102366 9.748153336775323 11.303798711095975
Rh 9.063989855401628 10.368421318767027 11.21145307233049
Rh 12.882139976294349 8.429819459473947 11.42672972288131
Rh 10.578934283529358 8.283956218727889 12.060400696694192
Rh 8.21651671365383 7.888566706858855 11.562407413436057
