14
Energy = -73.96742683 eV
Rh 10.384363 13.8982273809553 10.192463915754328
Rh 11.701897846028954 9.062650101308513 9.820772413263992
Rh 11.701897846028954 11.706075898691484 9.820772413263992
Rh 12.144264652054002 10.384363 11.956452307479426
Rh 10.384363 12.151619734402004 12.019186414371411
Rh 9.066828153971043 11.706075898691484 9.820772413263992
Rh 9.066828153971043 9.062650101308513 9.820772413263992
Rh 8.624461347946003 10.384363 11.956452307479426
Rh 10.384363 10.384363 8.050454265874414
Rh 10.384363 12.810957385231584 7.928079910633467
Rh 10.384363 7.957768614768417 7.928079910633467
Rh 10.384363 8.617106265597997 12.019186414371411
Rh 10.384363 10.384363 13.855172831873107
Rh 10.384363 6.870498619044698 10.192463915754328
