17
Energy = -91.18336821 eV
Rh 14.185614655330019 10.677305882294675 9.592591945243614
Rh 13.618172946412955 8.69173670532848 10.88483386877982
Rh 13.425145220156542 8.643528497597565 8.442120684886044
Rh 11.98857430258203 11.481729211887712 9.84262111217129
Rh 11.498811491261227 11.617217033211238 12.389720633151375
Rh 10.252052146882424 13.09400737965059 10.49939812856429
Rh 11.215222083109897 9.331074797674713 8.550540107920165
Rh 11.414072990228869 9.424619157092888 11.119544739756982
Rh 9.617993740765614 11.399264466815177 8.71975410053945
Rh 9.123280487170554 11.242779101276438 11.6612321836872
Rh 10.057657209568427 9.45728185505269 13.134194651919023
Rh 8.922281181115224 9.247241196193908 7.493562852496908
Rh 9.021309239927051 9.14761832452658 9.963552911957477
Rh 7.326347138211354 11.054950041233461 7.583570013241212
Rh 8.206310857510411 8.352530064600083 12.100983254631064
Rh 7.284453507725195 10.887097289562096 9.948624997523247
Rh 6.869546422056223 10.334333569045363 12.243586461909935
