13
Energy = -68.34639075 eV
Rh 7.748486462988467 9.625366332946003 10.452759509651903
Rh 10.35377287583015 10.014155597065898 10.719233427844506
Rh 7.274204572148645 11.870335732777532 9.562690901382457
Rh 9.07651083210817 8.547291472271603 12.202831575837964
Rh 9.580390938900113 11.709796513164374 9.108665533249741
Rh 11.936411907760979 11.352126226891965 9.318312788862567
Rh 11.799217636661355 9.66325395594208 7.615127972324982
Rh 9.338452164508114 9.886095490731318 7.644648961273031
Rh 6.930822155031091 9.922523932423898 8.01575525540915
Rh 10.592227267732605 8.278256730037414 9.101248512080067
Rh 7.9465661659238 7.758037055022814 8.858818180186592
Rh 9.3356400614063 6.735047449049819 10.671115161484654
Rh 9.642505494597877 6.144543026553624 8.24418850628414
