17
Energy = -91.47048545 eV
Rh 10.551074641731178 12.997547982825187 11.392068063906716
Rh 12.451297151695488 12.474237355094566 10.057452417839805
Rh 9.078595381372281 11.684263553817495 9.860237034308062
Rh 12.075623470391113 10.076880001197424 10.350541596851928
Rh 8.939079397816688 9.600022832821667 13.617529409648649
Rh 9.06196194904755 12.852755258781542 7.745582115412995
Rh 10.260479289475066 10.648543581991722 11.823390005783546
Rh 11.038783336992635 11.380759073136366 8.443036150912285
Rh 12.068331980149374 7.686994970211466 10.910526795454865
Rh 9.194976570143213 10.604580144705547 6.8159149132037475
Rh 11.270709106451925 9.306669978605917 7.045377998460839
Rh 7.99706528723593 9.52189582339211 11.318647852568322
Rh 9.943965135109888 8.057024153578821 12.005160987720132
Rh 8.344413072485903 9.514185315666126 8.74193941007214
Rh 10.457201683204666 8.4872031706249 9.131404701645016
Rh 7.2290327215923185 7.699636605142952 9.900753755384903
Rh 9.342784222090184 6.596699863841603 10.14129060553449
