12
Energy = -61.7210467 eV
Rh 7.626789931081566 8.058695188031859 5.253716838190718
Rh 6.724253834940229 10.157858911273987 6.134719996202144
Rh 9.125928977097836 6.87402973474346 6.837339389244934
Rh 8.955868138508784 9.467823934941528 7.089477075966124
Rh 10.762022712324127 8.028549194714433 8.215953672292056
Rh 6.950929511090149 7.9826306271163565 7.679464938205001
Rh 7.095057935115117 10.362980989127244 8.591232665019929
Rh 9.207920493480213 9.45766291519695 9.71195030931602
Rh 6.8679642198243895 8.528837335853297 10.174576631380924
Rh 8.715133090634643 6.944613410416344 9.390964051464422
Rh 8.65149229782701 7.847608239902188 11.76659268006296
Rh 10.867628804975753 7.839699465581876 10.705001699554447
