17
Energy = -91.87471819 eV
Rh 7.676498386950241 12.952569354234612 8.540360307861823
Rh 9.083276731626361 12.541320821818708 10.57968475498308
Rh 12.666065850712485 9.851917912946055 9.840345860543433
Rh 10.008157291145865 11.762345317254193 8.344593390252818
Rh 7.114971195100821 11.013032102219078 10.210585566371346
Rh 11.746537903431172 10.290247797193492 7.521985332186262
Rh 10.468038386175799 10.44422724495936 10.51327849552739
Rh 8.643718123268826 10.647629286960749 12.259813683825518
Rh 10.672371704300105 9.00711537105102 12.575654922894298
Rh 11.969374779703783 7.892094131399225 8.514357431309692
Rh 8.789867888133971 8.441048930244051 11.01680098351677
Rh 9.733583243455977 9.067571193519623 8.449613424404644
Rh 7.847435402617859 10.618459414134653 7.849639801965948
Rh 12.077234455457365 7.6681275668227995 11.1120661681024
Rh 7.258598134217044 8.547986121228647 9.138681530195518
Rh 10.089037770436711 6.78040570439708 9.900432368669998
Rh 8.591905649575583 6.875268565906835 7.983603420156556
