17
Energy = -92.2541467 eV
Rh 11.902052909283753 7.923384344233209 8.227948885122098
Rh 12.800262464210192 10.012031897578883 9.268050098777456
Rh 10.282663200439847 9.747460114119203 8.954739662094566
Rh 11.137099858714725 6.994238745821442 10.312412624949166
Rh 9.606211362320247 8.021566355472785 7.2218260520400515
Rh 11.141335300601947 12.066435608212274 9.157627233786245
Rh 12.276761105188402 11.533344717442953 11.297399973687135
Rh 8.424726276575333 10.37518186846303 7.435474148359228
Rh 11.39816581599671 9.209037600959249 11.233693146716886
Rh 10.029066192459426 12.805922340882764 11.356130527454042
Rh 7.152235358679945 8.328662474110503 8.02232484424825
Rh 8.914475263659028 7.659797494723281 9.640974619231478
Rh 8.619491797555048 11.503378750313878 9.829244363878708
Rh 6.4681681086254486 10.579462215767807 9.09108513962553
Rh 10.263419836790186 10.845428414922978 12.843459395110086
Rh 8.867195222076075 9.590705132752948 11.308587300087469
Rh 6.749803209407512 8.635798814970444 10.601067507384867
