15
Energy = -80.42834337 eV
Rh 12.22466867823399 10.565851040008752 7.9935582952649495
Rh 11.635834513488584 10.629441283221222 10.31703826801258
Rh 9.826089037150119 10.81851408120001 7.39520415831351
Rh 10.874913349982108 8.56207903397245 7.736369989511781
Rh 7.468697858164351 10.727377185601096 6.7275796103295695
Rh 11.071566067857145 9.296552330935144 12.26966218074225
Rh 9.25219635458427 10.83211266792892 9.726430406167855
Rh 9.308196239438912 6.772582689168812 7.363884475457156
Rh 10.43599148451357 8.359257268018384 10.05744255924524
Rh 8.704792018493542 9.59555670901719 11.710107166599151
Rh 8.171980218948274 8.831576587795462 8.167519555963283
Rh 6.873397122618241 10.86477139715905 9.083957037832649
Rh 9.386454770633442 6.139664464577427 9.68552022532288
Rh 6.310036804199209 9.591974320701054 11.037844146979364
Rh 7.737929289560732 7.79512618437873 10.253722999465857
