16
Energy = -86.13664488 eV
Rh 10.06215496730899 8.30844269541677 11.805287590827188
Rh 10.881806930385135 8.89384175931498 6.642584678448454
Rh 6.829985145107584 9.59723875887196 8.440210063205098
Rh 11.06744027838323 10.998608545134493 7.914235305244941
Rh 11.220564763982704 7.615274897083987 8.735978275764946
Rh 8.081368163925541 9.567030700108418 12.724641742164762
Rh 9.913427255745173 12.806110203360397 9.74732446267828
Rh 8.840026827973011 8.106293721729163 8.21412439606924
Rh 11.140405665353494 10.645527587916552 12.218140231697596
Rh 9.487407818721978 6.529940573146615 10.159642623229422
Rh 7.875650317445254 8.553156313070133 10.53839103226332
Rh 8.735169078098904 10.329065061176037 6.945751154072042
Rh 11.251201391956927 9.608781155351188 9.994371720945932
Rh 9.028196364147334 11.532535981363095 11.689518381874276
Rh 12.092729549133294 11.913138367614524 10.220038435760625
Rh 9.043915120484336 10.497634803506461 9.453302152329378
