17
Energy = -92.05889666 eV
Rh 10.40661689134766 10.026716951990865 8.746512083430739
Rh 8.198605375835351 11.074193239420948 8.40112000366282
Rh 9.060076993294118 13.3072778523636 8.57277678479133
Rh 9.364481217408413 7.9253282801924 8.044940570247787
Rh 10.819476571081273 6.364420624789476 9.176419805910344
Rh 11.75997651077131 8.607111974993108 11.957137563533594
Rh 10.634816337490971 12.143425939716298 13.064429368015217
Rh 9.727135920859416 9.88179239645111 12.852917377167167
Rh 7.20145588353742 8.873633293845776 8.264432446063001
Rh 12.964084483759084 10.5358475282275 9.090651747600873
Rh 12.277464317772102 8.238852397352534 9.617257355665018
Rh 9.637726498538235 12.786138882568638 10.925057882394098
Rh 11.265113234182122 12.379553335207822 8.99928420101139
Rh 11.558938245579037 10.895221731784877 11.133605305265778
Rh 8.669912495915748 10.652982992563924 10.719414288875704
Rh 9.72608156879662 8.209446700433096 10.538859687642407
Rh 7.333340881576275 8.637368458662552 10.664089365857862
