10
Energy = -50.8830029 eV
Rh 10.379178951836664 8.874629264176768 8.142268745713707
Rh 7.747443781742518 6.819002684386101 7.45561082777041
Rh 10.017965541475485 6.470667665833568 8.211064711434549
Rh 9.543374110036607 7.617478117679967 10.25842612093949
Rh 10.608798974907446 11.22113930198654 8.542930634681069
Rh 7.952415669687673 8.873277984086606 11.67095231308754
Rh 7.217670856527018 7.985907552193825 9.480527723927864
Rh 8.165696207109871 9.21211555353674 7.395945466768675
Rh 8.376746892663546 11.556994532028016 7.796197133818708
Rh 8.749800191110523 10.169436474577369 9.85581062730357
