12
Energy = -61.76683326 eV
Rh 7.141245063355678 7.653683578364444 9.395711921733401
Rh 9.02346954999712 7.2214708231255 7.8113103528217875
Rh 6.885192634085827 8.185888930965419 6.971400471616824
Rh 9.80830967700829 8.74438656319467 6.152175571401132
Rh 10.531742695381318 9.941995308411355 8.225474606391082
Rh 8.659108072387003 10.491431132232895 9.795875752457583
Rh 7.876625859758683 8.916924972566342 11.436766003684067
Rh 10.719781907497882 9.463317748331445 10.686143480454147
Rh 8.187296973756894 10.224123745486352 7.352943325070621
Rh 6.365791681222326 9.946398853908667 9.06270798259086
Rh 11.340068167815776 7.670866243009466 8.615575349236174
Rh 9.490843127389603 7.40259114071131 10.2640513704055
