12
Energy = -64.6164764 eV
Rh 7.676490992877338 7.679271058649509 6.518078943493653
Rh 7.708515707106991 7.70601231111039 8.891109570216978
Rh 7.688733994125786 7.680655523411879 11.264287138128225
Rh 10.089059002486431 7.682127053688535 6.5118085386712625
Rh 10.069648976479298 7.7084759779049215 8.884994660482548
Rh 10.101866442299608 7.68309047002783 11.258372878795429
Rh 7.6739969739676575 10.091896786730102 6.517386709961916
Rh 7.705936842862013 10.067100897036664 8.890501002194739
Rh 7.685991169137376 10.09366929996806 11.263811124773426
Rh 10.086474876127694 10.094580521077221 6.511032769236477
Rh 10.067037271033337 10.069631699902379 8.884088772213115
Rh 10.099151751496455 10.096392400492633 11.257431891832224
