17
Energy = -91.28129472 eV
Rh 8.206676571263145 6.146070408443436 8.820424087593242
Rh 12.588815774077032 8.020852784211481 7.9842968707346555
Rh 10.383698707285106 7.1342229534534845 8.490038590180722
Rh 8.249731229768097 8.622979444732817 8.321139383520986
Rh 10.030285610644817 8.62937575637589 10.380286883578917
Rh 12.35605493340608 9.36495196807372 9.997765137388356
Rh 10.7217722200582 9.693526301313245 7.962085235825777
Rh 7.79458040292278 7.566768801278254 10.71463416771544
Rh 10.568004528208123 12.08572902116644 7.351715684230266
Rh 11.122099998664531 11.586626199665952 9.683816853142341
Rh 8.702136777687366 11.163032461064299 8.643516382149436
Rh 8.759899233229415 9.38081397761692 12.435039721640655
Rh 11.184208631323678 10.389040782805157 11.986221106109086
Rh 6.428935238561552 10.270892588184706 8.144564701077872
Rh 7.248987622928239 10.011418604219351 10.435149059449374
Rh 9.028939371810612 11.589424200019458 11.195874100921788
Rh 11.029655349094252 12.823477453882466 11.874959703486613
