13
Energy = -68.75188997 eV
Rh 10.000922036629975 9.709191133614508 6.718551108433462
Rh 11.488560608229772 8.264141072596653 8.13068615624405
Rh 9.484362388968755 7.056322874339272 7.335577084131166
Rh 10.12541009021628 6.676679417628235 9.7563131374872
Rh 9.12528498912129 11.2458422871629 8.578316930179795
Rh 11.580419068503662 10.73773323343228 8.477872265661388
Rh 9.986280959611332 9.187754461294393 9.865131874229432
Rh 8.062676191414953 8.93053204356952 8.197824291066768
Rh 7.67866601698286 6.691390190073828 9.26800783205492
Rh 6.6372087639651625 11.04728714157305 8.827145720408295
Rh 8.404251556207358 7.9329367592512305 11.352785339639233
Rh 8.151915811215076 10.657892546287874 10.881226623939504
Rh 6.503850283207054 8.922789392835508 10.119083490791473
