11
Energy = -55.96875058 eV
Rh 10.099015952069092 9.810739934674361 8.811557757844456
Rh 11.767913166053825 9.98429924060742 10.672895698982298
Rh 7.382854568554368 8.849607754323538 8.097633119655795
Rh 8.074505578658108 11.29511931495955 8.564739858353365
Rh 8.60559449582475 7.468850582193521 9.815522909148179
Rh 9.621953675712884 7.708162097852508 7.520245180026403
Rh 11.108692066415879 7.706285329157344 9.736281754373403
Rh 9.735602097772466 8.834274515970826 11.606518286538991
Rh 9.567007521142857 11.281683532270591 10.779703197027652
Rh 7.663871551252974 9.684551346967808 10.457287971457687
Rh 9.004600962039307 10.008037851022253 6.569225631094988
