15
Energy = -80.37823349 eV
Rh 9.571237148067631 8.658883943412471 10.712248427088376
Rh 12.122004030063257 8.646121591868626 10.567321561533614
Rh 7.0216923046157005 8.646342376244176 10.567018516031258
Rh 10.865835507930521 10.866108005684646 10.554713057332497
Rh 8.27737620640189 10.865867235634342 10.554607118978959
Rh 9.571710057089923 13.00901060414306 10.426344700874928
Rh 10.804531817856004 6.410089894406867 10.612206066527701
Rh 8.33873005964371 6.410269325754546 10.612058588725347
Rh 9.57116639130615 10.017899896863266 8.351457789405783
Rh 12.096428753574996 10.002457538192559 8.432362741166623
Rh 7.047302276114501 10.002318991577622 8.432482951573572
Rh 10.841462654995766 12.261718605115906 8.376981555312835
Rh 8.302021381480913 12.261628008689101 8.37698400160337
Rh 10.82729683012923 7.75787808495908 8.498926728178489
Rh 8.315826991952989 7.758028486231239 8.49890878444428
