17
Energy = -91.64503474 eV
Rh 12.628282143098781 8.906815570427586 11.223041799416155
Rh 9.030351286182654 11.139533959769333 12.313527088745772
Rh 12.037964125369314 10.456446320389608 9.198786167597676
Rh 11.23439426099898 12.476338356954066 8.118705235137153
Rh 9.715094145759569 11.612129933863372 9.883959566031342
Rh 10.336367552295116 9.428415669260689 11.138253590056854
Rh 7.20959667866166 11.467717618910513 10.611746083027832
Rh 12.477232217673096 7.8795394997128705 9.032945376447904
Rh 7.922876706382131 12.972334537201046 8.802601361230527
Rh 7.89468320848119 8.957481827808426 11.417360486233434
Rh 12.067423693616139 6.48703241614794 11.070907972951716
Rh 9.928486904893784 10.422188069812782 7.581414115382834
Rh 10.155963614149309 8.31927765936008 8.892165408699274
Rh 9.757719796501021 7.026293976048956 10.993033809409
Rh 7.881855243818181 9.70552739393533 9.026245942809645
Rh 7.718902337053651 11.279618707107412 7.140997698299265
Rh 7.838217785649062 7.274556715326397 9.416017664858169
