12
Energy = -61.82074377 eV
Rh 8.897525666434998 10.19473309936796 6.858159701247905
Rh 9.332567474758193 7.856994266760767 7.264930255386351
Rh 9.33806472618488 8.178993752080375 9.584069870511847
Rh 11.11021748594765 9.690757883307446 7.993252656907649
Rh 10.373646328044872 12.119116794303709 7.561169319422165
Rh 9.071661775958939 10.66587934186187 9.27223658200762
Rh 11.453244243196368 11.506373805053657 9.79250457387629
Rh 11.566267796499647 9.015970182612637 10.382308700228423
Rh 7.907334953409588 9.4833494476686 11.221310589890045
Rh 9.822248100918776 8.139644442274852 12.068084535736476
Rh 10.109445474906398 10.68128271522051 11.705139066979777
Rh 8.68714731303403 9.892605473716511 13.523668284487897
