11
Energy = -54.65141197 eV
Rh 11.543321859441908 8.637037506830612 9.649810249515442
Rh 9.225583604316002 9.299180539320144 9.52068622807839
Rh 9.331527074687019 7.119505216266501 8.650428789987147
Rh 9.348509358297711 11.58629593830519 8.732087422810602
Rh 7.53570358461993 9.539015897271058 7.9014581062093425
Rh 7.2072956090258256 7.973716409631716 10.075002756571505
Rh 11.851787604022615 11.030506529812163 8.792828706222092
Rh 10.336095783344243 9.489672470806536 7.396477681603793
Rh 7.719612351915507 10.534796446839204 10.83717725003186
Rh 10.536939848327444 10.737388793957702 10.98285915578342
Rh 9.46433478830633 8.15359618356862 11.56189442003455
