11
Energy = -56.15133709 eV
Rh 6.952118696278971 11.670888483815002 8.715364505963278
Rh 8.803438485801534 10.041276678610807 7.878661444351206
Rh 9.362619456426252 12.227327361984598 9.170259058440445
Rh 10.787589393157624 10.248424087098027 9.583322770387438
Rh 6.527354925665349 9.196079795292901 8.79091483596388
Rh 10.72120331902229 8.264902355995053 8.006234403508744
Rh 8.290660925175288 10.209088580686556 10.400447694304514
Rh 8.558100153762457 7.8491755307308395 9.291683632827352
Rh 10.059028308663086 8.486085022780502 11.252253230344857
Rh 10.565519782071927 6.4703019819974354 9.79541024520988
Rh 12.281948429241384 8.318668485518696 10.019777130576943
