19
Energy = -104.38927103 eV
Rh 7.200988933692277 8.530474971871364 7.693022820768474
Rh 9.418487947554118 7.481292645104809 8.245714680266218
Rh 12.42022197761049 9.292546677965284 10.988103035285938
Rh 13.645244557696929 7.864823764092456 9.488510164450249
Rh 7.07625639655748 10.777515396203146 9.008204715869491
Rh 10.958743340840842 10.613229240731972 12.631004605708238
Rh 11.717019881787708 6.475134990865571 8.996656528829195
Rh 11.965407719951093 11.900882511182933 10.541854035896831
Rh 11.537400370273348 8.953161513367784 8.517614938542188
Rh 8.052785295317742 8.643140423669164 10.07057633224541
Rh 9.99491343158595 10.28745201199947 10.231791049470171
Rh 9.248857483909738 10.020485107170064 7.792362853929895
Rh 10.492760521518992 7.742082987722 10.674673226686613
Rh 11.332227829535823 11.467231401155114 8.283498051385285
Rh 8.998417242520379 12.406895986796098 8.770930747492484
Rh 9.17252929054599 9.021533674996395 12.381022614614498
Rh 9.521383443191638 12.523226288066564 11.25162858140924
Rh 7.626959821968877 10.81805726892719 11.485376065476803
Rh 7.148032123346752 12.989570791471353 10.360059601432841
