17
Energy = -92.58614314 eV
Rh 10.549520215731233 10.057691136704962 12.03228859065273
Rh 8.253284467409111 8.93161711436908 12.378978828436239
Rh 8.484144981009045 11.40043725763676 12.726627289215218
Rh 9.868620801132185 7.874122597340724 10.673290496215984
Rh 7.820499971880879 10.456097990883988 10.419805176121322
Rh 9.696250821907006 12.281012848642014 10.676850709311143
Rh 12.19765251634908 11.352966880057815 10.540218000050523
Rh 12.274805059757483 8.754926546575218 10.418447303673103
Rh 10.194428329402935 10.085004532393802 9.496816445945962
Rh 10.222979202528958 10.287262810110034 6.875825632926033
Rh 8.315452730190144 9.104580392364934 8.17016586093561
Rh 10.90599388641054 8.057164107988552 8.189654235354626
Rh 8.517144889280793 11.73082207466052 8.287002818695568
Rh 11.00752180315114 12.311753032428271 8.395132195768321
Rh 12.527350261395956 10.093313531573314 8.213182959670425
Rh 7.38333837129637 7.902013661697002 10.25566774410821
Rh 8.839326130685137 6.667383002761961 8.663786768594512
