18
Energy = -97.72553396 eV
Rh 12.287171820141669 11.91256117443531 9.883828785987042
Rh 12.1538135367032 10.261840593144267 8.089690775746162
Rh 11.346847802407328 10.107828571958215 11.327989458505025
Rh 10.73345017971476 8.771562731109151 9.399543904681954
Rh 11.52025254390724 7.6504826529521415 7.315328444821767
Rh 9.868058735989145 12.081733196655861 10.719069939923672
Rh 8.82013798577941 10.462790926061393 9.198982535977354
Rh 9.62167553902903 6.6704797882819875 8.827876543333629
Rh 9.24811180625742 7.250754730145035 6.302256103524665
Rh 8.616169273203282 6.543031608734318 10.987994976686128
Rh 10.361049082187058 12.04854661158643 8.127549354186156
Rh 7.913988493437023 8.272572105877344 8.11389503522045
Rh 9.46956188752762 10.789267183581096 12.891922621882156
Rh 7.702829361517899 12.186754105772005 11.929500019263985
Rh 9.894153401856732 9.613681214762028 7.015824976015617
Rh 6.826548762794227 10.488475684869867 10.523989675603412
Rh 8.930426548486693 8.958742639754979 11.308275342217305
Rh 6.806136856855477 8.036323534925932 10.178637778064997
