10
Energy = -50.19880672 eV
Rh 8.03619268620421 7.487014144511706 7.341133238730994
Rh 6.430006407748625 6.020603028967262 8.78952573537321
Rh 9.734399845314348 9.72249573278122 6.853615230742957
Rh 8.468216357266336 9.712558910931309 9.043511874691102
Rh 7.211776602499718 9.892551499128535 6.803253182707462
Rh 6.195455332606237 8.42795912183622 8.644375210078902
Rh 10.369370302373005 7.934698144668542 8.495967108699219
Rh 10.948392948133277 10.355864953172624 9.045911705962675
Rh 8.24040767958891 7.292762181330013 9.87019117668067
Rh 10.066386938184577 8.854097382591549 10.813120636252046
