14
Energy = -74.21646081 eV
Rh 10.65860055484626 9.070119673019649 11.733759085185875
Rh 11.077065465765035 7.840050269282579 9.373571452620055
Rh 8.205073160728018 10.172785573971339 11.670946262442715
Rh 8.875340739875332 8.191155727798703 7.854132063076803
Rh 7.12976694942351 9.565400722314587 9.314389222925007
Rh 12.148331748461416 10.271160341969145 9.834191653602822
Rh 11.061782094839813 9.658878665088176 7.489221828830633
Rh 10.3895382903777 11.635575521730848 11.285045038534696
Rh 8.609841811046843 10.828904286910285 7.4265362229370755
Rh 8.208174461684262 12.022159261913554 9.725467581617409
Rh 10.582833857441068 12.07881624348615 8.617124713640328
Rh 8.62844067106746 7.7816636907048435 10.506352945674971
Rh 9.632272544166687 9.926347395600336 9.5682230237157
Rh 10.585814657219807 6.603912389847589 11.469604555198867
