14
Energy = -74.24731437 eV
Rh 10.831734 12.641498939915143 10.831734
Rh 9.021969060084858 10.831734 10.831734
Rh 9.596422020096714 12.06704597990329 13.050733232108946
Rh 9.596422020096714 9.596422020096714 13.050733232108946
Rh 9.596422020096714 12.06704597990329 8.612734767891057
Rh 10.831734 9.021969060084858 10.831734
Rh 12.641498939915143 10.831734 10.831734
Rh 12.06704597990329 9.596422020096714 13.050733232108946
Rh 12.06704597990329 9.596422020096714 8.612734767891057
Rh 9.596422020096714 9.596422020096714 8.612734767891057
Rh 12.06704597990329 12.06704597990329 8.612734767891057
Rh 12.06704597990329 12.06704597990329 13.050733232108946
Rh 10.831734 10.831734 14.919264708078263
Rh 10.831734 10.831734 6.744203291921745
