15
Energy = -79.91741092 eV
Rh 11.202202925729994 11.45815703732568 10.513734776774804
Rh 9.709208476907362 9.48518570222593 11.659720727172735
Rh 8.578893011725137 11.43406971280197 10.378913434537246
Rh 7.198198718085474 10.021150062197478 11.941796426698799
Rh 12.026028579851237 9.023858363137272 10.54663337484839
Rh 9.909683744076318 9.767952546785377 9.135539742539768
Rh 12.303454718700225 10.483473947683677 8.369350379731868
Rh 7.919256913801779 8.32288841517429 10.17389360434026
Rh 10.16964884381076 7.2003824036301305 10.29252719240354
Rh 6.437112751198876 10.222180883617177 9.56266160632976
Rh 11.59960127215954 7.960800973248314 8.249621239682986
Rh 8.039920791567118 10.068946626403505 7.539377604564686
Rh 10.487334898422562 9.668588146727316 6.69458505205044
Rh 9.012813246080766 7.68726549421367 7.917853396493659
Rh 6.467197675583391 8.190921516956282 8.083486236648204
