12
Energy = -62.80373247 eV
Rh 9.211795543404431 10.493706401894757 11.046194738558178
Rh 11.30982574090409 9.598608775980637 9.919456644096973
Rh 9.929895281617268 8.105060007587257 11.41430999088608
Rh 9.573998194779413 10.996742457511996 8.462804546897784
Rh 7.45415045261642 8.587111790558845 11.530062071082021
Rh 7.687608544531309 9.63552379083113 9.320863209052922
Rh 8.555440226752994 7.217392411439814 9.580553030656905
Rh 7.302823562925279 10.802192877899406 7.186363539472098
Rh 11.174959879347888 6.987781331159845 9.52495254960657
Rh 10.083645114760838 8.60999395061463 8.03652783023452
Rh 7.728255293460417 8.270385605322469 7.197288928773602
Rh 9.347937221650362 9.916843484241962 6.091198607748635
