14
Energy = -74.73244265 eV
Rh 12.171937220900226 10.067849047347172 8.132730106952733
Rh 11.195580897172041 8.231201698714843 9.335855369924285
Rh 10.123879806052408 6.5442494642433084 10.790331280529903
Rh 9.888545649513382 8.81005085623285 11.50209587588797
Rh 10.450595655129723 9.887216754709266 6.473217976427156
Rh 10.507523848431147 10.720094558298369 9.77203472415261
Rh 9.442788411855009 8.094364970321239 7.767551353860835
Rh 8.800891472835845 11.098368769444956 11.498656335928533
Rh 8.095702279212478 6.771506269075731 9.490371631575682
Rh 8.796169352708098 10.428998748385233 8.147415971317512
Rh 7.826386987968865 9.048314055454679 10.164514481706885
Rh 7.118663395856095 7.370623804068957 7.31053008632464
Rh 7.0959179683961215 11.433842097065881 9.673943483016256
Rh 6.450002812391662 9.525402041059928 8.08714168100479
