16
Energy = -86.52612433 eV
Rh 10.880253086052575 6.737550047186799 9.925762085110101
Rh 11.9569852710879 8.462102866744075 11.540197248547468
Rh 8.41247162115725 7.196241647076886 9.230687783059214
Rh 9.531808409035841 8.470873076895773 11.018491354227583
Rh 7.847374664835655 11.050564537437793 12.344564380784604
Rh 11.41873658802613 8.325967169130491 8.197560863857984
Rh 12.360321132604655 9.888357166718665 9.647646275471924
Rh 7.224020825294157 9.022941392990468 11.15205307245457
Rh 10.172647189374814 10.380110338487059 12.334335230764374
Rh 9.237054957802322 9.364023046955488 8.506253650814658
Rh 10.752314951359187 10.074392767044813 6.597623838563335
Rh 10.246650951686393 11.10508320772099 10.041411948681624
Rh 7.970101874018297 12.121959916723211 10.210881807852324
Rh 11.75321054843344 11.717957592509844 8.093491473828028
Rh 7.029939974310184 10.221019352911318 9.104701469933154
Rh 9.085567812207643 11.767809373745433 7.9099479997078515
