18
Energy = -97.73150504 eV
Rh 9.512287908714862 10.076091779268394 10.848942723642216
Rh 12.018186603079789 8.230510930664215 9.185816362928039
Rh 9.4480053837716 7.817064695135516 9.315636362719214
Rh 8.06733198681321 10.304940249687776 8.665722796538954
Rh 12.794982887550727 10.499387577503875 9.834036931145304
Rh 8.535071100230063 12.322430893667693 10.085299179455319
Rh 10.955475817792328 8.035952308769392 11.39539780072743
Rh 7.7635353384919865 7.060311827410566 7.570251101745307
Rh 6.843711673075713 8.288139784737604 9.424789798779413
Rh 13.481089020696269 12.796410118988053 10.33400851202384
Rh 11.851194322287574 10.255102755102987 11.95866290313102
Rh 12.654857000440327 12.508406220274242 12.557614619159194
Rh 6.981430955145696 10.296897207242587 11.001905482301687
Rh 10.63727119122872 10.269602674443716 8.570367523804556
Rh 10.407414263168478 12.344402777085735 11.6911519430973
Rh 11.179106714859346 12.494361974557416 9.454104514503292
Rh 9.24952593713401 8.89640839095225 7.00484316061518
Rh 8.207228438846244 8.059720643436231 11.541316566397283
