16
Energy = -85.85034671 eV
Rh 14.209490913617753 11.56320842145928 10.221713070557099
Rh 9.917226812077136 10.079568656856969 9.249892628304028
Rh 7.897068691656812 8.952815431730112 9.842032890560125
Rh 6.752206689352086 11.091552700314828 10.245787276396767
Rh 8.25013883849773 10.096188862348754 11.988067769142976
Rh 9.812672294646017 8.24275237622291 12.401283680933183
Rh 9.048869327317506 6.96194517033275 10.486540571230268
Rh 12.440379736443022 10.144646538679096 8.877239493598928
Rh 10.658726812800333 10.440429760540612 11.567247615051198
Rh 11.990819116623472 12.52097388887417 9.761547405211726
Rh 10.022142271894873 12.759114118415843 11.324822263386167
Rh 8.670463973070104 12.24545799947032 9.453749885395922
Rh 10.563003269114372 12.069133026185565 7.8973871895904475
Rh 12.978013999743828 9.614723540236032 11.238035760220523
Rh 11.200099317868323 8.10950345654143 10.135410128140956
Rh 12.549786427761735 11.969017940642116 12.178077104163238
