13
Energy = -68.61032058 eV
Rh 12.538447065220941 11.47032237784034 11.409557842878332
Rh 8.016354934779056 9.084479622159655 11.409557842878332
Rh 10.277401 10.277401 11.474236873567769
Rh 8.122022298415366 11.61338833497994 11.295035871807631
Rh 10.384451479748794 12.822717549279536 10.841407263482559
Rh 10.17035052025121 7.73208445072046 10.841407263482559
Rh 12.43277970158463 8.941413665020058 11.295035871807631
Rh 11.244571610135813 11.124101645519643 9.160337368473405
Rh 9.310230389864188 9.43070035448036 9.160337368473405
Rh 6.9342112005403855 10.328471095874193 9.43995177373061
Rh 8.853300174513617 11.91824204077793 8.91969790466381
Rh 11.701501825486384 8.636559959222069 8.91969790466381
Rh 13.620590799459611 10.226330904125806 9.43995177373061
