13
Energy = -67.46699242 eV
Rh 9.460580664423539 9.50307555047879 6.617116453351512
Rh 11.265705320998958 7.683090800838839 10.07670170417856
Rh 6.329567797608473 6.2063236292194945 11.00976601092652
Rh 9.312522760642297 11.192497739135103 8.521566253639799
Rh 7.537788990187842 9.274184806997397 8.377063256333889
Rh 7.582750472475685 10.904269164076597 10.24433374418441
Rh 7.867437264727546 7.625143365975842 6.552612595685313
Rh 11.292529474006137 9.51388263629412 8.46555645958241
Rh 7.275054555639581 6.725599084049919 8.870713602305408
Rh 11.059532712418225 11.313840049120728 6.839066623296527
Rh 9.41431245051779 9.208863095632111 10.31989639030045
Rh 7.116814134280411 8.457142094980961 10.817754441066228
Rh 9.56978800645408 7.4953802594006795 8.372262136806143
