11
Energy = -56.04126961 eV
Rh 11.115489182819545 9.578673548306348 8.607880115458228
Rh 10.562623096548858 7.505123862053229 10.006646031541617
Rh 10.34706587235684 7.266055322997806 7.4664773433762335
Rh 9.004528042613565 11.243657582638336 8.617613566942463
Rh 8.472913514985047 6.213965884130513 8.861940736006176
Rh 8.731264930021213 8.726707595921178 8.765440528222435
Rh 9.726817559872707 9.976686328469336 10.722719410368946
Rh 7.758527068326084 7.506014359273197 6.770593775796621
Rh 6.929990372627527 9.962439209345323 7.480193246910992
Rh 7.123510122557485 10.220697606825057 10.020882957669302
Rh 6.347952072756424 7.894098152552737 8.872838773603075
