13
Energy = -68.42930226 eV
Rh 10.664694623729314 7.114944957793339 11.118167564250577
Rh 9.497001048485764 11.104229492268722 12.154618737628146
Rh 10.553760567504169 9.439110546698345 10.531971692833103
Rh 8.294637075867037 7.073338289244515 11.358426276765028
Rh 9.263014300657503 11.692538364740766 9.874939008639233
Rh 8.197568785201504 9.399421838239654 10.778057067482147
Rh 8.066339546573765 7.593326695615974 8.944214380349285
Rh 10.387664043911135 7.630338341704933 8.708666173661147
Rh 9.03306542681642 12.271294873378427 7.59577185890878
Rh 7.942937743523037 10.052762470898621 8.214485772362705
Rh 10.296643149231638 10.092267683101074 7.969190477559788
Rh 7.79068446603475 8.303682219144212 6.582407300928334
Rh 10.159138722365611 8.33983604826125 6.33991195587114
