15
Energy = -79.74546889 eV
Rh 12.802405288917123 8.258300866606778 10.541893076656768
Rh 11.248418480907707 9.377319190378314 11.964228520530746
Rh 10.152398507825687 10.370444810017318 9.986738001987286
Rh 8.38799974879999 10.182934395279474 11.823828383694574
Rh 11.699373924901757 9.08794573223339 8.541423078588332
Rh 11.265296829331954 11.428977317043307 7.977334497144601
Rh 9.509635270702535 8.04794784439746 10.935025214401396
Rh 11.050354067382878 6.851552512639156 9.539245203228937
Rh 7.667408673754443 10.936524574729624 9.609741499619881
Rh 9.032722859170363 10.830129496188931 7.478673786876598
Rh 7.2484799635809525 8.434976129386744 10.160497644502627
Rh 9.238670040740418 8.397259768531077 8.351733563798255
Rh 6.813984402021989 11.81289920410684 7.537522861089454
Rh 6.950336198047455 9.310054393561074 7.646352319182813
Rh 7.244677566327427 6.938904068677937 8.21002123547443
