13
Energy = -69.90856307 eV
Rh 7.37271221541264 7.751488073522372 6.563843312239271
Rh 7.522864590955107 7.778745257844287 8.940625077411084
Rh 7.640596405036718 7.759093085812462 11.32649484775943
Rh 9.772589542417215 7.751022783011441 6.429009978800326
Rh 9.913372717646128 7.784805349484708 8.785225414119456
Rh 10.057263964831176 7.742145069380493 11.229571015822607
Rh 7.374362050574536 10.168084791080405 6.56213523553288
Rh 7.5244303088489355 10.143961383967254 8.93895128185795
Rh 7.64216852072973 10.1668938278078 11.324788163911679
Rh 9.77422911815972 10.165191749021291 6.427278675331386
Rh 9.914934498260838 10.13454339299375 8.78353630478237
Rh 10.058874061852158 10.180513003810843 11.227808306297415
Rh 11.91731550527522 8.959225732263022 9.946445886134404
