16
Energy = -86.45459738 eV
Rh 10.321566542870169 9.529500826646485 11.849413584803111
Rh 8.16910690014127 8.287966044370917 12.42839026498753
Rh 8.259477786874301 10.803460074588822 12.516981472386096
Rh 10.48583903456595 11.974548291159204 12.563091770014946
Rh 9.47377205472884 7.577899625840074 10.371751447349483
Rh 7.748073792692622 9.614885697280641 10.283732255497334
Rh 9.18431316201055 11.890234627067855 10.366382971866813
Rh 11.766144786910344 11.211915967894715 10.507811642645851
Rh 12.058136743719473 8.496369583396337 10.289742526541804
Rh 10.077538138030942 9.779330557287599 9.259342178086102
Rh 10.11017129036491 9.84713801118735 6.676801403939745
Rh 8.345936761500743 8.411484716336492 7.997116740038798
Rh 10.873105363033412 7.681779882723566 8.062671041571022
Rh 8.116972639878593 11.056607940945128 8.133752880810281
Rh 10.603076234861922 11.991343329104359 8.12896722016827
Rh 12.354793611281174 10.029165455048709 8.151383657128845
