12
Energy = -62.14679255 eV
Rh 7.576487972526393 10.589020245681148 10.729520400254973
Rh 7.554802468527096 8.187877465252265 9.917856448922855
Rh 6.189859571668616 9.998903174572714 8.834114861991814
Rh 9.976560909802892 8.47676075173773 9.507203881895526
Rh 9.628700351458829 10.90930471862789 9.573737687300659
Rh 9.088359356112898 6.5818349292882505 10.854386255772399
Rh 8.443943850804033 9.88864434619064 7.664145933716289
Rh 6.362678932256547 8.97786930834127 6.647133304103029
Rh 10.833424621998358 9.37710372464232 7.375018589375067
Rh 7.988069286767588 7.458688506605412 7.573457674963579
Rh 9.83942978768168 6.105845084872986 8.60418738111933
Rh 10.276547128606348 7.23388527837468 6.505950699683133
