16
Energy = -85.83939574 eV
Rh 10.00690872519335 11.550276220820821 8.619516626986673
Rh 10.654896226443128 9.96892534798671 10.501328904516669
Rh 10.875110664504641 9.168399075015536 8.155633491954584
Rh 9.354397413083536 10.119153656325391 6.435185540225882
Rh 8.306015002507124 11.016680515085374 10.588548062977836
Rh 10.90197468923002 7.411817556581749 10.024162528904075
Rh 7.621129524777894 10.838696778195697 8.12850864126603
Rh 8.587496231566547 7.855716912604008 5.802021559120683
Rh 10.042176221192205 6.741249927752267 7.658701510477969
Rh 8.445962480457231 8.544584029245478 8.284961488945248
Rh 6.353474584426962 9.596404281930386 9.905485570670185
Rh 8.795899024982107 5.9569253886722695 9.84157401976733
Rh 8.624666002389944 8.442010022703489 10.690886122895963
Rh 6.157395744281837 8.399775563643686 7.367462911976386
Rh 7.553779622074391 6.150103076175383 7.369830664889998
Rh 6.581216376469359 7.0991654560896205 9.484095555828866
