12
Energy = -61.80390704 eV
Rh 10.294654 13.69334829598578 8.705514635507654
Rh 11.525364181057917 9.086577894186332 8.933296863055242
Rh 11.525364181057917 11.502730105813665 8.933296863055242
Rh 11.510711723549448 10.294654 11.208470884539285
Rh 10.294654 12.668100949291015 10.908061963530328
Rh 9.063943818942084 11.502730105813665 8.933296863055242
Rh 9.063943818942084 9.086577894186332 8.933296863055242
Rh 9.078596276450554 10.294654 11.208470884539285
Rh 10.294654 6.8959597040142215 8.705514635507654
Rh 10.294654 9.051401601295789 13.079282713952995
Rh 10.294654 7.921207050708983 10.908061963530328
Rh 10.294654 11.537906398704214 13.079282713952995
