17
Energy = -91.42785172 eV
Rh 13.327804755553874 9.128414935644926 9.666607548709129
Rh 11.150575016704101 9.222967064195009 8.272892912337737
Rh 10.676317896012906 10.480455236973512 6.3650549163918715
Rh 10.252839353209554 12.218920253656092 7.917292335883086
Rh 9.11273987661736 10.465139433460156 9.23689419582827
Rh 10.418454052369116 11.57138148683385 11.244776629173835
Rh 8.63487120330354 12.836567021290309 9.93744583889009
Rh 9.121707363492588 9.218578179187631 13.556966454180188
Rh 7.976248745833563 10.841941359967473 11.613846935870773
Rh 11.44338318680237 7.579394031762245 10.197643010225896
Rh 11.360679048395241 10.099528379517889 14.007587128344682
Rh 9.762053370314128 9.008692242265823 11.277818331643187
Rh 12.096183957979841 11.281942812654565 9.423606570228737
Rh 12.083421620577276 9.779257452071723 11.770934779906632
Rh 9.100738318204375 7.922576605174181 9.11460237603704
Rh 11.113021103918232 13.563325658901705 9.86879297888394
Rh 9.56397236660177 11.699309549543885 13.493147907838834
