15
Energy = -79.95906273 eV
Rh 9.914275874111313 8.281172040375228 11.943717295686435
Rh 7.5836096775646205 7.250642515105227 11.820387416676898
Rh 9.1331456988518 7.266672796273817 9.80117537918058
Rh 6.5648021229171505 7.796084485659396 9.57799140419789
Rh 11.714179177043334 7.543102588664897 10.0588465234617
Rh 10.618289186244935 7.935394545557394 7.816988882262849
Rh 7.996659423581716 9.516346458833468 10.730879641603366
Rh 10.442733089148613 9.674008734067549 9.910975163773234
Rh 8.255364270616427 8.822469292382749 7.91839144534165
Rh 12.326418364287502 9.719751633080984 8.302228865522244
Rh 6.380859345535604 10.22717685807219 8.79445519951035
Rh 10.142304272798341 10.376429287276885 7.101445435457775
Rh 8.679913876507802 11.322858792265615 9.003492913810385
Rh 11.08681760962893 11.910317060091094 8.945244333271107
Rh 7.677822931139766 10.943932405527704 6.68999333994898
