18
Energy = -98.07582328 eV
Rh 12.105335563457357 10.863226659822205 7.3535501173509985
Rh 10.024092457510584 11.871391407451378 7.9544268367818995
Rh 11.312065147765209 10.13705309273226 9.655133157905782
Rh 8.994270205369189 9.540741237714572 8.201225973206503
Rh 10.794426558509347 12.465832093470091 10.337513111428525
Rh 11.237627647294412 8.638477763022518 7.37270046861091
Rh 7.561489889660956 11.601813436882484 7.722560685978163
Rh 9.17754169870466 7.322640354032195 6.941538202138217
Rh 8.53558413041094 11.366164551460145 10.022156856712428
Rh 10.03764676037355 10.640925934992056 11.898158119002316
Rh 7.525070250300784 7.492469170162095 8.809241063957518
Rh 6.637179984543204 9.84139480852805 9.250840742035846
Rh 10.026233796650894 7.394405386304997 9.302618691519495
Rh 12.478923048066006 7.9496954011228205 9.5333828140435
Rh 10.914259558724433 8.275276307546536 11.473996375866427
Rh 8.384834539163613 8.80853167379973 10.941544038685121
Rh 9.254297814531524 8.73669811815227 13.233870891309541
Rh 6.08141405519884 7.958164313978319 10.753037650230874
