10
Energy = -50.54325805 eV
Rh 10.091264033448994 9.504724152378488 8.045904864493986
Rh 10.17530792297769 11.379655862747178 9.725160928351304
Rh 9.763308687473865 7.332395866595228 6.698087261438348
Rh 9.857739897691786 7.18427176268169 9.13720579901198
Rh 8.946820074137559 9.280694949859475 10.31639224892218
Rh 8.00044693899699 10.955509927096246 8.578842644580583
Rh 7.893994070881313 9.055578565657315 6.914508562465032
Rh 7.8474150520655845 6.960637186326967 10.526795530636363
Rh 7.662199666406791 6.739220433132259 7.996702404227857
Rh 6.761825472543519 8.8274274090132 9.173514526596616
