19
Energy = -103.40348255 eV
Rh 11.401028040764636 8.367152392430835 6.205738913613834
Rh 8.735148090354798 11.735340146775528 8.09600019012818
Rh 9.519831000314737 10.549295610550342 13.060668253721774
Rh 11.495558309616014 10.88068227127204 11.182824707211859
Rh 9.615111502378168 8.380380274863645 9.083760808317118
Rh 11.52254694307013 7.104089471577487 8.29213775550655
Rh 11.569629330982982 8.986557433093695 12.860108945119439
Rh 12.794320724440377 9.254423164036492 8.064181715589609
Rh 7.902399342670701 12.169566669728734 12.145358544859256
Rh 11.217164316777524 12.252897401001075 13.172410431291443
Rh 11.79892853327413 8.468483155604229 10.466439249978027
Rh 7.48413328819928 9.614146947852129 8.734342323367628
Rh 9.715484004475684 13.719562769553281 12.00025537811292
Rh 9.48265753088168 9.551900884033689 6.947248689437828
Rh 10.950884916938545 10.63079196853994 8.66669604913272
Rh 9.37633673644631 8.459245928920632 11.66736712842132
Rh 7.523932361251046 7.703924563094308 10.302790464346119
Rh 8.962898406931197 10.722071975390996 10.47473135395899
Rh 10.352575980280633 12.789963044872522 9.894995750477571
