12
Energy = -62.47396494 eV
Rh 10.708722711171037 8.577578032550926 7.223981844654312
Rh 11.024485774617478 7.5028716017751895 9.535154018593666
Rh 7.273320099776662 10.774963375592089 8.684248009709595
Rh 10.176713216577602 9.868286999291385 9.413238757586846
Rh 9.274149871838517 10.616071780259256 7.06786137637447
Rh 9.315925704563425 12.266337613922918 8.913047541419857
Rh 8.666697452836347 6.7391044479309805 9.990147429001137
Rh 7.178431200928403 8.807612800099735 10.520022988645039
Rh 9.665723758170591 6.382384964628121 7.707516392359649
Rh 9.475041339202244 8.586214704442714 11.474497350263666
Rh 8.325055078987655 8.518492944475195 8.291608435664028
Rh 8.488550042619517 10.926780729561955 10.886327672861938
