19
Energy = -103.97601986 eV
Rh 13.696817755112885 9.24776768753186 8.756816339467209
Rh 12.824876808263218 10.351131300142029 10.731372999910867
Rh 11.794142343601983 10.859826718056846 8.297977399817924
Rh 10.199786523142953 12.703756503511615 8.011158947782022
Rh 11.548477028800852 8.28271788852329 8.287503638557482
Rh 10.893489460539957 12.171791228501686 10.415680802762747
Rh 11.735860313549978 11.480987595377055 12.666536535302926
Rh 9.564361011741934 7.296964423060326 9.657052625697164
Rh 10.568321960810225 9.564921524958747 10.223780029731792
Rh 9.10488915027576 10.422314994142193 8.259750484609507
Rh 9.279901279754814 8.12436403934489 7.280375810101583
Rh 10.835117364263315 7.506816356168656 11.824024758648669
Rh 9.972126820266391 9.708719968635418 12.622841527267346
Rh 9.19252355167849 12.135611317055817 12.26337751267664
Rh 8.424428771627397 12.487174205624612 9.807909317784505
Rh 8.138812447492244 10.220621882834449 10.921289406658225
Rh 7.455331004933343 8.532016337182538 9.186137035156118
Rh 8.280018978370636 7.835918078364483 11.747249616156996
Rh 6.691006291420872 10.934607168899428 8.904387221281276
