18
Energy = -97.65283436 eV
Rh 10.444479390046004 11.597440042773169 11.05907954339308
Rh 7.679484781115689 9.316927123939962 8.973024478802284
Rh 8.287024653360819 12.63740349754199 10.34765585044971
Rh 12.753488028537149 10.891326050613861 11.661556518353253
Rh 10.538498070617095 9.49921528793001 12.357891121475063
Rh 8.590002733362478 7.935521269438246 12.416931634227833
Rh 11.288444258065391 6.861032747046886 9.104352625863731
Rh 10.355962591706023 12.778045811071909 8.83697409802437
Rh 12.291539257991131 13.184523233333644 10.446968497973112
Rh 12.502770561307917 11.077257469298017 9.089537874275454
Rh 8.26518264467833 10.230053705795013 11.253921875784105
Rh 9.529116429852278 8.210300075756814 10.094082115454384
Rh 6.303818026883599 11.216193055035948 9.909562564551024
Rh 12.084068319308427 8.887513559536735 10.351645038697198
Rh 11.949660334284097 8.889013995150563 7.80672038541307
Rh 10.087378352542101 10.21552545216896 8.655946371468918
Rh 10.960306873291161 7.022843876013709 11.761484864494326
Rh 8.11181364514437 11.657748444864213 8.055429225548917
