16
Energy = -85.60437417 eV
Rh 11.332401050990917 7.245239572552948 12.298451049352071
Rh 7.608339365270185 9.618625788282406 11.418696427590774
Rh 6.620697021412399 11.403952587282392 8.322610776438257
Rh 9.352456991523463 10.904628650606615 10.157961512215422
Rh 10.040948964776659 7.605360674278242 10.164412188302066
Rh 11.210111733059689 11.94262350293777 8.860376972004508
Rh 10.095530202340823 10.922645596823738 6.8172830650090805
Rh 7.743318223407561 7.9655346086975305 9.658072072984258
Rh 12.231199467278865 7.398114121212837 9.001648558143597
Rh 10.943801633743286 9.381769981874786 8.62169366944198
Rh 8.396877819140315 9.779138142672709 8.200447498227813
Rh 11.857819111558307 10.282638391924301 10.806932972497611
Rh 9.89250247842881 9.142881615479146 12.02028563511651
Rh 13.079527764018838 8.27476165593659 11.058789791079782
Rh 8.808874210490798 12.562227317730938 8.307204234996325
Rh 7.109790556119316 11.894245373621418 10.607359606498132
