18
Energy = -97.94415723 eV
Rh 10.539114113864715 10.70548334830933 7.481423699572202
Rh 12.147585039919875 11.309051930378441 9.597585940791237
Rh 11.63201294886106 8.841695467767304 9.008885962510863
Rh 10.220784077596873 12.95452285513871 9.176933594747265
Rh 10.700066488221305 6.477468599164495 8.873949409884139
Rh 8.138315136472158 11.733731772900825 8.117105343333266
Rh 10.29494371480691 8.18532307869389 6.983049481033679
Rh 8.314309485498585 9.197426448507532 8.122950299506746
Rh 9.707490370115778 10.398608368122417 9.822749250439342
Rh 10.643572080758943 12.090039259405962 11.557703098399637
Rh 8.34358555235791 6.713511708491295 8.013283965368819
Rh 9.911974632692372 7.907948900293397 10.781722850998689
Rh 6.9098248650060725 10.319620536597348 9.936148631127509
Rh 8.20257061504681 12.335020785514677 10.703382359893615
Rh 11.535879951451008 9.609797933775962 11.490222959430024
Rh 8.801947585341994 5.684269458803651 10.302740492000595
Rh 7.533551390471162 7.9048874588023885 10.206649041330536
Rh 8.505876925273867 9.85224646855113 11.89141612406408
