19
Energy = -103.02709747 eV
Rh 11.54628569740281 11.629267355330668 6.63934109885928
Rh 10.795832697713973 10.87382587310263 10.826750932568972
Rh 12.97543213858386 11.859561259805886 10.08774527095589
Rh 12.730828595090165 11.21990378139835 15.103926066355001
Rh 11.649909520417241 13.233890721916456 14.301610839898151
Rh 12.595890711026689 8.21659101998564 9.706278191243165
Rh 11.277670529476545 13.350981061905799 11.383780909124948
Rh 10.756811247552976 12.625707945853351 8.899592663516549
Rh 7.7455500988239505 9.191070459036464 10.40926623356508
Rh 8.408001189655028 11.494183034700924 11.199944443798714
Rh 11.798517733493588 10.169608121377268 8.505617548106901
Rh 9.190560500998131 11.99402300639885 6.960179554061704
Rh 10.17421745937469 8.529140782383285 10.250518687485672
Rh 11.409391435132331 9.695606248329572 13.841903678821726
Rh 9.14280950245887 10.517992480324585 8.837801223388603
Rh 12.938584163110875 11.871531065992377 12.626273118876956
Rh 10.159830461938899 11.781138696708194 13.092685160324212
Rh 9.253423077013291 9.453416140788082 12.479578694802647
Rh 12.572303775520595 9.498269219185923 11.776653595685538
