15
Energy = -80.12090347 eV
Rh 8.674438865702882 11.277762821017694 7.183617894137876
Rh 11.943040401193363 8.318608176968942 9.643292877856778
Rh 10.463891006975773 12.343961092391842 8.499331452949814
Rh 10.34603310955197 9.810277104554201 8.258580472160386
Rh 13.759689331394355 9.50853503732108 10.693539097858526
Rh 10.117664896960074 7.353676433172817 8.385280200905557
Rh 11.791216175691636 10.902683495373108 10.123220968339872
Rh 10.299946659982519 12.580249756554572 11.046024177884302
Rh 8.62749049690626 8.549660747958821 9.863359862260008
Rh 10.380862367611668 9.103643007994934 11.42290542391692
Rh 8.501252802295932 11.189068022591332 9.629160854327012
Rh 6.985689947658852 9.909754938130856 11.034431112775092
Rh 12.219336433184132 10.17779016455884 12.538003544921924
Rh 8.92377195419629 10.842846542348715 12.196742434192052
Rh 10.809696374575942 11.97140770164207 13.327701104764445
