17
Energy = -92.46303984 eV
Rh 7.5908067181418835 6.7801080987034945 9.953749987736636
Rh 10.022726546514194 7.347531910693905 10.393650479174916
Rh 9.483976078294388 6.515959942692253 8.09164104488381
Rh 8.05575357835538 8.746055729874396 11.38497957569219
Rh 10.491188011399041 9.54673597813461 11.718640721738845
Rh 12.377279743776024 8.37376822053177 10.541572433734919
Rh 11.175790994907853 8.372289853131136 8.240001275874187
Rh 7.779193969305808 8.330603493008109 8.035180942241512
Rh 9.225672063919538 9.671764251230705 9.42372333757271
Rh 7.283748594974818 10.88727304456977 11.962589464670888
Rh 9.522602375496845 8.566429082118207 6.310218063404562
Rh 11.64372067304057 10.560920791874057 9.581481118853182
Rh 9.625136993037186 11.67470616253959 12.215060853247326
Rh 10.293279993804996 10.653509848733192 7.380345091596515
Rh 8.433383770432808 11.850785359878943 10.003015248313613
Rh 10.785026373761236 12.678957855681768 10.106679171105434
Rh 9.51438316300469 12.78755511857222 7.970008503560954
