18
Energy = -97.316428 eV
Rh 12.952936496013768 8.500233476233078 10.768713248162411
Rh 7.987073249213487 9.45141345153707 9.898926613481922
Rh 11.717573790000761 9.958077206794782 12.500013231011085
Rh 10.287579175714352 12.151330884750081 12.53312487865347
Rh 10.978810722757833 11.142521102022114 7.190690513194439
Rh 10.473691247695804 8.259980863062207 11.090172495876969
Rh 8.90465098085868 11.308855606803691 8.690498360490919
Rh 8.99358467714119 7.102102557380309 9.406734386751477
Rh 10.635620963801076 10.810712878236787 10.445707450213597
Rh 9.763442608824061 13.127530270961833 10.226954099587726
Rh 9.048268112143287 10.029610465486634 12.330618368769464
Rh 8.124526291131943 7.69656290264467 11.803389471398294
Rh 9.948032460563644 13.418168376326582 7.672783222231519
Rh 6.627421990629903 9.622647156274796 11.929489528633818
Rh 10.318180110826978 9.082019036950703 8.511379018682113
Rh 11.514608077757876 6.945832318802058 9.20615449206522
Rh 12.565122160455381 10.104144761273055 9.01452475019497
Rh 11.941558512434357 12.546105820363007 9.005125150301202
