28
Energy = -160.34824509 eV
Rh 9.56693513583938 9.554677240946509 5.957727132542611
Rh 11.602612900939864 9.543036499752507 7.37318536412239
Rh 10.384800949302274 11.868715803749577 7.114370078809441
Rh 12.52750202571085 11.644092178122488 8.626142293375475
Rh 13.822406982643358 9.36175696170621 8.607658557222862
Rh 9.72574921969516 7.752329453258858 7.9494014940829265
Rh 7.6240082875647115 11.197622066993185 6.495820869089203
Rh 12.158196173234213 7.416777761141228 8.824806297337707
Rh 7.4331361803399645 8.72991995967845 7.200028864847751
Rh 13.868102422761444 10.015897883872148 11.068980656402962
Rh 9.163068897931842 10.166355026450901 8.493376581119351
Rh 8.255336660066515 12.653215496389217 8.429935155165696
Rh 10.269176570532268 12.130579389435798 9.845295645286159
Rh 11.524522895958226 9.697380872614293 9.96309842751534
Rh 12.298828623796565 12.049177827488652 11.303198747867956
Rh 12.66575304311567 7.78180795615231 11.31613603852266
Rh 6.7122600276589095 10.626589154001895 8.95830912391606
Rh 7.8095265622610555 12.074417485234989 10.862546995215919
Rh 11.680264737653868 9.921197868935563 12.54340674257863
Rh 10.150658616916264 7.5377868845882645 10.518580119316951
Rh 9.202530704867637 9.902761177387198 11.037190741659753
Rh 9.901367515966985 11.941175486491911 12.416852290012047
Rh 7.764279316391077 8.265103926268722 9.66871802268751
Rh 10.717435663139625 7.611028033754163 13.014944098466605
Rh 6.674960431462113 9.851588944892073 11.427824144410119
Rh 9.336411693374286 9.693000902597412 13.599989867865778
Rh 7.515392263099125 11.363456911570259 13.30935574432917
Rh 8.221494289732082 7.835341250797815 12.189749123609527
