26
Energy = -147.24506442 eV
Rh 8.93843926477113 7.006343158919944 7.418835740888612
Rh 7.019424899395508 8.387676106107989 8.45619500757523
Rh 10.683107287480043 6.5734032542658625 9.28217120593243
Rh 8.371046179493607 7.075425556084849 10.256481440144457
Rh 8.041986012627518 9.023974598246731 6.188081012456492
Rh 11.358612937299625 8.139780173102405 7.343126193432988
Rh 8.226255374048108 8.297606188016385 12.554639745363767
Rh 7.56391418228753 9.747283034704294 10.54895498382933
Rh 9.478080787549727 8.994310848664595 8.96022195631309
Rh 10.512813798309836 7.451957527049898 11.692069563084248
Rh 11.95005635358336 8.760144171124798 9.71301834989922
Rh 7.794540202388208 10.806373788097158 8.160446136107842
Rh 10.067928023584658 10.297152134441632 6.873429098564215
Rh 10.324744217420116 9.415796915463972 13.67629583758661
Rh 12.443229207751815 9.165762068869219 12.193944695418745
Rh 10.107512299782991 9.882495626194968 11.234899146301663
Rh 12.325214533324004 10.61437242368017 8.017143501373555
Rh 8.24814322743785 10.895301945017534 12.707123651406656
Rh 7.977165574971919 12.287943937675392 10.254322107888315
Rh 10.16319054016952 11.59464169145274 9.107421460713391
Rh 11.83835257500425 11.464126539178126 13.159056205561162
Rh 12.354163578866608 11.218906566214635 10.605735377441471
Rh 10.00421594281329 12.38483270217789 11.775142783687638
Rh 12.242911762375638 13.052736879297404 8.827513137844166
Rh 10.048595248542812 14.023535002482987 9.847927948912405
Rh 12.098226125022098 13.66633400250965 11.339315552635185
