22
Energy = -121.49691646 eV
Rh 13.10089146758382 11.88849696044814 8.424631591441585
Rh 10.79761765068686 12.675732763903696 9.040975132500378
Rh 7.103935822107432 8.913428396222763 11.216509015836301
Rh 12.59085671288817 9.497599305382211 8.922422496686185
Rh 10.385568397000675 10.603353627430893 12.23236130190531
Rh 11.038555937722185 8.53074754425722 13.467048134088014
Rh 12.429249151536347 7.004232138409124 9.294947079014833
Rh 8.818299322837722 11.557987620399315 7.782888597981907
Rh 9.334010528666594 8.015022907487392 10.560059407902955
Rh 6.962250568625951 10.095234665430828 8.998271852573074
Rh 8.200378632648093 11.164077628714097 10.865112073719148
Rh 6.542762079132298 12.362782139451149 8.14961906197651
Rh 8.98859206844747 8.915408249327225 8.072453235869247
Rh 8.787102953478929 7.856528742814611 12.950272539221169
Rh 8.060554350643558 10.223890705601105 13.215619136200708
Rh 11.109558096074625 10.736316103157705 7.250982703999039
Rh 12.30246415878314 11.249976551439671 10.797102321590446
Rh 10.056619508738308 6.604201537276192 8.778169066304653
Rh 11.685485224048216 8.467831931589801 11.151012926560913
Rh 10.235610866026535 10.315104170461385 9.67519282221088
Rh 11.31371696071021 8.166762913479294 7.231175635402978
Rh 8.396736192901633 13.218269461283397 9.668763375634324
