27
Energy = -153.51236138 eV
Rh 11.102122703265143 10.315158500032425 6.724698809803539
Rh 11.307060011286975 7.789506007266598 7.191137781190705
Rh 8.912880521039993 8.797285658360455 6.814481288225805
Rh 12.693086441179243 9.646969321460967 8.607812506833454
Rh 6.750766737496918 10.196321613974906 7.146211870143987
Rh 8.959878661829851 11.348805221498893 7.6867231054947585
Rh 9.348602327057035 6.997705530626812 8.69320477055814
Rh 10.068172955954507 9.395930273225837 9.005882448274365
Rh 11.730525878202917 7.542457779311279 9.752894386621293
Rh 11.2836447730574 11.867239352887564 8.810032060891729
Rh 7.045261013876721 7.940224329062318 8.37650822623516
Rh 7.475092233208381 10.116695995356704 9.589057756786318
Rh 13.704604658159019 8.688871517280978 10.845425829584737
Rh 6.8683318827591755 12.501937170747212 8.426969978290241
Rh 8.029718448685275 7.938810192430612 10.826617692103545
Rh 9.908553107726375 6.273772149115545 11.094330117368424
Rh 12.151763445551518 10.705356808167016 10.920736034960074
Rh 9.157092745749626 13.349384309074127 9.285173432014984
Rh 11.046083815359369 13.114440060949482 11.183048092122176
Rh 12.193731739279022 6.973891164599483 12.14218976643896
Rh 9.563690844522778 11.229293800924836 10.641966628066243
Rh 8.043932784615578 10.122345956933568 12.21045843528685
Rh 7.270407006832479 12.362643087369964 10.876387432765874
Rh 10.347070755447586 8.745251250212933 11.590797423793411
Rh 12.495991144598095 9.33726145230456 13.03028790356212
Rh 10.601424468626243 10.884023036500095 13.01207006800565
Rh 8.904212721826003 12.692181833429755 12.728149523141878
