29
Energy = -164.7799427 eV
Rh 13.380648476712798 11.801706456003522 14.182374422964845
Rh 10.548125149633321 12.360117503669336 15.02203419928647
Rh 13.712540202917792 11.825147579597932 11.62494147046449
Rh 13.579717336015744 9.63574673694267 12.824219217560561
Rh 11.561133056258017 12.941492837951483 12.857977741105179
Rh 8.315456323442211 11.3615022744776 14.982129305302841
Rh 11.326665286866456 10.385053490741736 13.808771937844599
Rh 12.711293540648661 14.208814498248483 11.133972084074244
Rh 8.992723982184726 12.663245523599887 12.976727390616894
Rh 10.123956535962066 13.78976754230308 10.78313909773427
Rh 13.342948747374438 10.974745775950241 9.180697241749082
Rh 13.521468477520237 8.674623824885416 10.254986343866769
Rh 9.194702854955013 9.331803163567887 14.049470395939117
Rh 11.402234003357687 11.660332629121445 10.56835637123391
Rh 14.496210699379338 13.179176394877267 9.679077411097936
Rh 9.28405803850452 10.539055889577014 11.829642890551648
Rh 11.461774834614772 9.311795320880316 11.495555969345679
Rh 7.646602437963406 13.268453050417241 11.08711364952628
Rh 8.740532904668223 11.724262317825547 9.6153990053748
Rh 12.170495815290602 13.401585920967804 8.770461798917191
Rh 9.729061804975212 13.591804987031736 8.18444853451459
Rh 12.754723939233472 7.305365480766329 12.289315098612652
Rh 9.440869223764741 7.9775624903904525 11.88422751191721
Rh 9.691366906903099 9.211747009523735 9.610290288127313
Rh 11.362709643800326 7.217809649887949 10.044382024868264
Rh 10.887275573293225 11.311105264540146 8.080528522139133
Rh 11.933736916743818 8.98585214052067 8.300773513845932
Rh 9.716037539932794 9.29105475324812 7.117399517925575
Rh 8.509902778193085 11.52503324411141 7.189453236314278
