27
Energy = -152.62124042 eV
Rh 10.66131371 14.374684464902877 10.483180317433085
Rh 10.66131371 6.947942955097122 10.483180317433085
Rh 6.625161802568557 12.018914241367415 11.520131199119948
Rh 14.697465617431442 9.303713178632588 11.520131199119948
Rh 14.697465617431442 12.018914241367415 11.520131199119948
Rh 6.625161802568557 9.303713178632588 11.520131199119948
Rh 14.584863936606936 10.66131371 9.269644074212515
Rh 6.737763483393216 10.66131371 9.269644074212515
Rh 10.66131371 12.945696457654266 8.079813983977774
Rh 10.66131371 8.376930962345737 8.079813983977774
Rh 8.106886725562033 10.66131371 13.346842700179444
Rh 13.21574069443796 10.66131371 13.346842700179444
Rh 12.970335064519931 8.458649285464833 9.614209932750617
Rh 12.970335064519931 12.863978134535166 9.614209932750617
Rh 8.352292355480074 12.863978134535166 9.614209932750617
Rh 8.352292355480074 8.458649285464833 9.614209932750617
Rh 9.242234350377284 12.840798183986848 12.236845941565745
Rh 12.080393069622716 12.840798183986848 12.236845941565745
Rh 12.080393069622716 8.481829236013148 12.236845941565745
Rh 9.242234350377284 8.481829236013148 12.236845941565745
Rh 11.998147924416148 10.66131371 8.407759875617412
Rh 9.32447949558385 10.66131371 8.407759875617412
Rh 10.66131371 10.66131371 12.725483724431925
Rh 8.624979495005368 10.66131371 10.942848169175132
Rh 12.697647924994632 10.66131371 10.942848169175132
Rh 10.66131371 9.35644903759781 10.2925299554615
Rh 10.66131371 11.966178382402184 10.2925299554615
