23
Energy = -126.50855211 eV
Rh 15.179111315122006 9.198954248386244 9.302743001226542
Rh 8.820747831039718 11.378170364939098 9.75955613379019
Rh 6.971282820673755 12.061747884991846 12.868635217007299
Rh 12.383311305998474 8.030386145875532 12.53136132302929
Rh 11.14437755633409 14.271868180455867 10.711405331143967
Rh 10.737073656296948 8.604277649213769 10.714761255134666
Rh 10.64409271157861 7.367123604156016 14.007030027539457
Rh 8.352707846343678 8.895273370727478 10.019400598973283
Rh 12.87117147864779 12.760233497193143 11.605169384550607
Rh 11.261778591140798 12.008658794198325 9.516076698162903
Rh 13.490854357954884 12.960423734012627 9.142014105744455
Rh 13.239851719246136 8.098010197580495 10.230494472058254
Rh 8.3030894097476 10.31500288852012 12.048995772777673
Rh 9.106878640418001 15.510596831930402 10.943775056856131
Rh 10.564575949466716 9.857107197072901 12.960571344470761
Rh 8.07961531692603 13.354006556342428 11.2543500265728
Rh 10.4922148283515 9.816534674981614 8.583141112056925
Rh 10.236734475848325 12.16946606293023 11.888555169286787
Rh 8.97433925773947 7.896399044826289 12.351292696355147
Rh 9.327718379904024 13.758309252366798 9.043420831680352
Rh 14.706514890522124 11.27934418369082 10.506171856480993
Rh 12.971411454801025 10.27117628492332 8.792278505928643
Rh 12.63217405753627 10.26911421428077 11.410238204701216
