27
Energy = -154.71031718 eV
Rh 12.66289987749606 8.168685587958311 10.939222946450887
Rh 11.16213516862751 9.881584136330217 12.124313826847231
Rh 12.239011588536002 6.81147139497422 8.81918468963397
Rh 10.662783292315671 8.850183428769652 9.446837232026366
Rh 9.797475671002228 6.36892372764662 9.490493731459225
Rh 10.263770130727126 7.505201189465156 11.73700757736121
Rh 9.564046819354903 11.780144621692058 12.986290078368677
Rh 8.225340818025964 8.320893902908978 10.283308804280503
Rh 13.07508489119634 9.290920942368771 8.616089213794648
Rh 13.205962887526772 10.697195570911617 10.785850668979576
Rh 12.650910493243117 7.928016291522312 6.5191976166692145
Rh 10.260122630557982 7.461166037697574 7.194278795539636
Rh 8.672507844269745 9.326717384772614 12.667375593860779
Rh 7.865291539337816 7.238605708685493 8.045431929233997
Rh 11.465317938703462 12.445498010995678 11.393934318127947
Rh 11.420989548259742 11.315441859719293 9.069370328845363
Rh 9.337571935243822 10.76724868411502 10.583920964157715
Rh 11.179982568861341 9.892789929938232 6.934387424540724
Rh 8.767173190737333 9.593155668140245 7.8638300840771995
Rh 7.132160388490145 11.24801270396125 13.382130702620158
Rh 6.739757512490093 10.309799024381746 11.087810042274544
Rh 9.709206419497542 14.138814572909132 12.025037062391425
Rh 6.4225385839938225 9.400894017359924 8.77784392939007
Rh 9.660764083517218 13.213008103724095 9.642654349197217
Rh 7.647650620211705 11.696312519939216 8.96889189877663
Rh 9.625546556271654 11.924036110576612 7.387702101056135
Rh 7.740309925510424 12.695069626866077 11.362853976501455
