28
Energy = -159.85223013 eV
Rh 6.7719386426778465 11.322930543775806 8.301956044594212
Rh 6.947167786788101 11.747005697981836 10.753241642690137
Rh 8.907877888182712 12.436451097562932 8.982624745450176
Rh 11.375678408234858 11.831122077783343 9.228919770700601
Rh 7.305425309324499 9.31583852018609 9.716089633469517
Rh 7.3093507321851385 12.141191455598785 13.245998449347262
Rh 10.511968759887164 11.712939718328867 6.909715148434237
Rh 8.859677088335209 10.001902389172919 7.755929617831446
Rh 10.560240882513034 14.03176896235015 10.119754577794978
Rh 7.38764618555428 7.506658539732458 11.539709333464211
Rh 9.334530565147743 10.552443080039675 10.73767487878317
Rh 9.06399170132698 12.945684421669291 11.70672895237199
Rh 10.916542286562278 9.301867935613194 9.107460841812548
Rh 7.524789580909438 9.817634436543392 12.428565958790118
Rh 9.51200638576296 7.475824278404894 10.225602702339557
Rh 10.943788233477722 9.200759880018484 6.530631097392831
Rh 9.379957370763304 7.468689115471477 7.613948558591963
Rh 11.504982121578628 12.121808876361309 11.76445155919848
Rh 7.369763489839024 6.9560786959483165 8.963591860141182
Rh 12.871450955080554 10.367052633621624 7.855406049500364
Rh 9.709630306348206 8.465484636827222 12.535244508340101
Rh 9.729333824044378 10.959165035990992 13.269095108621205
Rh 13.486415042561378 11.043763597483725 10.379252738823121
Rh 11.752617935568106 9.58257785617723 11.51515059725762
Rh 11.50153064250201 6.698323496603552 8.838087924121874
Rh 13.000973481312148 7.873296947910043 7.21004865159703
Rh 11.680426459397456 7.058000264750922 11.453250753095817
Rh 13.200460373509111 8.483898247466172 9.732030734818794
