20
Energy = -109.26802147 eV
Rh 14.232338854938174 9.321027332428963 8.309322580630747
Rh 8.093139584082364 11.79600210260031 11.08207319879665
Rh 11.474971530303733 9.026890376554146 12.039835792682394
Rh 9.777185104824515 6.70249361522585 10.191231507311825
Rh 11.96632051845906 6.845864147681091 11.148469781215548
Rh 8.79223601610647 12.234443617701915 6.855464331905353
Rh 9.776804516102423 12.614724429324564 9.16728368773365
Rh 10.391900866779158 10.476427508390794 7.33445470696951
Rh 10.381079363853914 8.222709775357492 8.418480669623628
Rh 9.668977553485421 10.718062391784567 12.782559406121521
Rh 12.079756138599942 11.34900423626341 12.907721741989485
Rh 7.368370997498517 11.53129086375218 8.629986787270816
Rh 11.483712975508764 11.115548037371434 10.481756678642515
Rh 6.859703540840621 9.69939283558672 10.213010982666846
Rh 12.477085906629608 10.940654735577453 8.302313120575118
Rh 10.27031382977871 12.939176391997325 11.65250771567107
Rh 9.016816927125774 8.56104932817251 11.468514504107501
Rh 12.350989363454097 8.739252184272068 9.626623858752597
Rh 9.306418267730153 10.10679435901694 9.591411912780751
Rh 7.294848497215598 9.968664135005888 12.671184165647352
