22
Energy = -121.81142638 eV
Rh 13.077697113640685 11.91447397384043 9.078192324948514
Rh 11.432695126439897 11.760831639973237 7.273942481164045
Rh 11.978234892809589 13.910351087200064 10.007132142244075
Rh 11.430609921693438 12.230940453478699 11.994010917751783
Rh 12.734007371436734 9.972738782660103 10.454844272919646
Rh 10.149138229685503 13.793878415680979 8.228434080188723
Rh 12.025810853032347 10.160678942966758 13.172407575626847
Rh 9.697086233376274 13.874605007193633 11.173858810331351
Rh 8.927540846760499 11.355616908489008 7.5755934241204095
Rh 10.446197367610823 11.775399601885223 9.711663254296633
Rh 8.027462288171563 12.735007307713316 9.590194282312936
Rh 10.598071710236717 9.526568060135821 8.480402525355363
Rh 10.427591911826775 9.554345249646264 11.232460106605613
Rh 12.226242612040704 7.925174657983091 12.037605370198513
Rh 8.841867080993454 11.517866036751967 11.87136032301559
Rh 9.711515419197207 7.46161009492685 12.587040802599812
Rh 8.29856914483755 10.135536452682834 9.662707849151342
Rh 9.619940326317002 9.791505986077436 13.708462770105928
Rh 9.273725426618526 7.688783559092485 9.985740847216658
Rh 11.83588366172149 7.702744498616736 9.57502548602162
Rh 7.865480821281087 9.07543944925249 11.88062032204572
Rh 10.910961397435976 5.9268679610581785 11.0537348185264
