22
Energy = -121.22310454 eV
Rh 12.897287681032873 8.847505218546576 12.39015917334336
Rh 10.396073412881751 13.153553918921018 13.152288377832408
Rh 9.090731191148574 10.950381582054783 13.101416574071349
Rh 11.698413901530177 10.955702875035497 13.269362206222382
Rh 9.358315813580802 7.1649614428289405 10.99609211127564
Rh 7.941466160979267 9.163871423562872 11.710231482893224
Rh 10.50122627529346 9.187814729263138 11.868145243982239
Rh 13.677497393448647 11.044755204095841 11.54052439235237
Rh 11.505691557019304 12.201293646492745 11.131598544016208
Rh 12.274078756404673 9.643689604166106 10.06216702657392
Rh 8.924491692530037 12.531630124909688 11.167211752520759
Rh 9.819381708788795 9.045480187254023 9.292711019932973
Rh 7.581499660463714 8.031050828300302 9.436140200562123
Rh 6.801535527095199 11.373072914693543 11.915149544122546
Rh 14.014264594466562 9.9712673585209 8.33000394589903
Rh 14.940673256265244 11.803855338642805 9.700969641652653
Rh 7.753456128515708 10.701572146305097 9.649747509021433
Rh 11.49285136247698 9.968075259019574 7.645082237992449
Rh 12.589434104614252 12.003680375899666 8.783593714608546
Rh 10.120049164192952 11.615345644866846 9.155762861934905
Rh 8.982379872052114 10.335749381073098 7.281160244223353
Rh 6.788436506397379 9.392185502646887 7.614481876035462
