28
Energy = -159.74917552 eV
Rh 12.235482280134667 9.150456127524281 11.057027205909584
Rh 14.007703345125528 13.362220064439416 9.595595723184962
Rh 12.455692716778115 15.54663027323921 13.180506432663552
Rh 14.698084192737436 9.562818333853851 11.974702597590857
Rh 11.322832290174336 12.825566260904775 16.416672310259898
Rh 10.506349683309383 11.106201264822925 10.909249978586471
Rh 14.26897312290711 13.846016477443923 12.213056268347717
Rh 14.249192740530049 10.22152652291765 9.49100093453039
Rh 11.030571600471964 15.05055880169767 15.166292951486511
Rh 10.082889878020046 14.458158001247993 12.884268173127124
Rh 10.136578390862411 9.427155841648236 12.745160002640333
Rh 11.935717562338407 14.072681125272515 11.161453643847723
Rh 10.581324340356872 10.93518310694263 14.840025584191622
Rh 15.631648721888705 11.842039887812087 11.050193696026863
Rh 9.231755597830372 13.13185023593731 14.9137304077001
Rh 13.438517420331817 11.813029748388631 7.664866202896315
Rh 14.598715464128665 11.624180978194259 13.535059388738263
Rh 13.091828369786583 11.62998590762604 11.276330068704608
Rh 13.016987907198022 13.446041033843427 14.481232223550391
Rh 11.433162408968899 12.39740490160571 13.039875987700743
Rh 13.039259623783733 11.18737851896996 15.66974348551425
Rh 15.890908745521775 11.995099001960975 8.526656062047719
Rh 11.505463607112183 12.697310684610041 9.091856451208969
Rh 12.51518033446679 10.096741878380083 13.410706467234846
Rh 8.942003368650154 11.821563179887283 12.835809998464436
Rh 9.4360290345736 14.393185318295155 16.949049452243166
Rh 9.521267036662477 13.405514612333711 10.593037887895465
Rh 11.797603914529999 10.19393779579658 8.754349033407525
