23
Energy = -124.94898239 eV
Rh 11.360270277016452 13.838973978718995 11.024378381657513
Rh 10.402948936357518 8.453116726604751 10.498254870555442
Rh 12.581356984825705 12.441731832290625 8.952006902655517
Rh 10.99908994281468 10.548098384811802 9.376520278282182
Rh 9.882627839895111 13.382280902813124 8.942576828866097
Rh 14.235492828082116 10.98327268245639 10.05470984958443
Rh 11.914024610394879 12.329780262876527 6.560768896227929
Rh 11.56920008166881 14.458475941166164 7.674932456281641
Rh 9.448629931817717 9.289930019307809 14.755674210925303
Rh 8.717580247910007 6.865637876611353 10.996313316358862
Rh 7.812251777219959 7.60283300494675 14.301714169867518
Rh 9.393279939311531 9.842164862210964 12.388879745936405
Rh 12.85152999494801 15.234053394081926 9.609433688187806
Rh 9.771596306810563 11.774643792195965 11.167012377244717
Rh 10.044519899428598 7.394081510293876 13.057058693295598
Rh 11.724763645197154 8.498702694259325 14.652425497651638
Rh 12.284564973439862 11.460461865753143 11.637378406407239
Rh 7.402306778446297 8.517682857525608 12.116778643363507
Rh 8.847035914891858 14.024037501340516 11.038775103706167
Rh 9.861400101575697 11.47269772499273 7.466106309158258
Rh 12.891806612505759 8.9772117815118 10.141853311266754
Rh 13.855440798684896 13.341197177314504 10.984091651978247
Rh 11.962613221358891 9.244284884891465 12.44451591582967
