27
Energy = -151.6472411 eV
Rh 14.140316848931796 10.99124824180421 7.656937125757689
Rh 10.301375806307373 13.919711534113816 12.522141207158578
Rh 15.61857227951398 11.134213149048005 9.861887224556813
Rh 9.788702725968555 11.484780911632699 11.893891056604675
Rh 13.525490218972667 12.723073169599555 16.088986214639757
Rh 10.245760131681592 14.54446196565486 15.11725762302263
Rh 8.968878286527936 12.485751501395146 14.15386260683251
Rh 13.904367504431146 11.234269433493665 14.028303813898562
Rh 14.509541250257351 8.987072770701731 9.134455731227343
Rh 12.01356475202279 9.668986064252271 7.66079914755906
Rh 10.22798683027051 10.761728554614375 9.54660309013759
Rh 12.45331597640895 9.866902171216676 10.067246934992768
Rh 11.024785357315785 13.064603129972513 10.207943479042923
Rh 13.720849154801616 15.267960674267647 15.858693053543494
Rh 14.441786438190595 13.859167229089588 13.822604862618817
Rh 11.792972521724714 14.287364200367938 17.164638421634933
Rh 12.796991877507276 13.98631320817776 11.790544798000877
Rh 11.534985825823322 16.565058577078762 15.961144742039885
Rh 12.28588004866 15.503011862822877 13.801780251242901
Rh 14.830756301345925 12.417317970372007 11.87351054907805
Rh 11.649224969649309 12.11920107361117 7.873858306646986
Rh 10.74881555357006 12.249619657268767 16.15140126376589
Rh 14.380823376093435 9.891005819146484 11.729935477657934
Rh 13.370265228294747 12.242843906424879 9.705507130727051
Rh 10.822785786410124 10.781118566078916 14.09674674648181
Rh 12.299405108482363 11.340693564458366 12.04426045335439
Rh 12.041551811104524 12.969555503714409 14.098739847492713
