21
Energy = -118.31771884 eV
Rh 7.251969180989875 9.74387985721651 9.900875108283294
Rh 8.617262989696128 9.685545818728704 12.100361328550608
Rh 8.431668966279268 9.818281930514937 7.640982190104323
Rh 11.164312153032768 9.694910380398854 12.03709747314312
Rh 10.977947283951934 9.826415117538975 7.577642934201437
Rh 12.342229209216773 9.76158671557118 9.777092183392735
Rh 7.529011770244407 7.623906193016075 8.534926685796405
Rh 7.601207539888536 7.572710336078784 11.148387030778181
Rh 9.701404888127422 7.669554829149578 7.185415306754776
Rh 9.905450324557357 7.516655931472393 12.359810497407011
Rh 12.004560176698032 7.665701339701874 8.402605047599128
Rh 12.078143151103164 7.562625985945906 11.014012339400928
Rh 7.503931492805145 11.979145913989726 8.667311985370008
Rh 7.608606210589979 11.87600523487704 11.26425905669678
Rh 9.69230420267902 12.030162190082393 7.305586686953049
Rh 9.890974607807582 11.873285731638676 12.510494966497424
Rh 11.974164355107304 11.97067170041544 8.546714345641478
Rh 12.07727258243272 11.91864686936903 11.144739665976175
Rh 9.789371837402985 12.217984988986306 9.915458516790103
Rh 9.796429106485883 9.792294716728852 9.840210375614104
Rh 9.803526000997167 7.423847420542484 9.76776766911396
