27
Energy = -153.14875104 eV
Rh 6.920550847173394 11.402287106025142 13.623411750851348
Rh 8.667191725270001 12.30106063613275 12.031571905637788
Rh 10.597894603085082 13.054033680819735 10.605218474955581
Rh 12.90626286868991 13.264837573668514 11.54209349129809
Rh 9.294837465861962 10.811767071695028 14.038101607504135
Rh 11.334206187748512 11.466918746934786 12.485893424843514
Rh 11.583433281044961 10.089122969814172 14.612954974776764
Rh 6.480327743802471 11.40251386038698 11.066632154556851
Rh 12.698998040102826 12.732944737266314 9.059660601351457
Rh 8.258626331647363 12.285696121569984 9.471706901659285
Rh 13.269889612720457 10.922034431590658 10.731366357709186
Rh 7.910367317022381 9.609548460615239 12.129510269982177
Rh 9.858082957099523 10.562081196957022 10.552001909487913
Rh 12.93385323011575 9.295125299921462 12.627277723484736
Rh 10.442680590450381 11.795475655611929 8.282797706613703
Rh 10.399348888129603 8.929792102318647 12.718585888378604
Rh 12.330622858141467 12.214602908590509 6.6662127962901145
Rh 7.647561753539396 9.700633113759169 9.52613807916038
Rh 12.55316900989989 10.19828236095658 8.268412779675597
Rh 8.368919051580717 10.733771968866293 7.302082089959928
Rh 9.25733996537651 7.932856656613835 10.64576696925216
Rh 11.828820074286467 8.93378759282315 10.322625340989253
Rh 11.384174299721792 6.836149385636863 11.636816737681801
Rh 9.966423955648859 9.061703135094637 8.373064370962899
Rh 10.787290022116432 10.244770783832296 6.229877949849953
Rh 11.146946508182388 6.865696781840956 9.079211163385965
Rh 11.944362875873646 8.07505858446292 7.073329211458021
