22
Energy = -122.72062657 eV
Rh 8.66506047546619 9.910526319323314 12.817368094813812
Rh 12.48822005025966 11.627414343795879 11.049712869167386
Rh 8.886893114076438 9.655973132793507 8.660154359915042
Rh 10.482012030833246 7.893201012854573 9.484508254149564
Rh 9.638387881513827 11.6488553375989 14.401873292622492
Rh 10.375841960529064 8.055811682547672 12.102138592272283
Rh 10.22842921231198 12.394584423806931 12.024968900503294
Rh 12.627853566604982 9.03524887041393 10.512023431574859
Rh 12.640739633392133 8.347071515535337 8.175898972960638
Rh 12.751705862043101 8.402754162610004 12.810112042579757
Rh 7.765778964308369 10.90225105360622 10.600817243349526
Rh 10.46666565805909 8.542306780135018 6.936550401808942
Rh 8.426472694158079 13.350015861659498 10.518161678880922
Rh 10.286023548689455 10.185880188211264 10.718080925734421
Rh 8.221321728461051 8.339957983029134 10.791520370587554
Rh 7.792908659592601 12.336043706221178 12.7597483172039
Rh 12.449413203532231 10.772229849627408 8.623694535780611
Rh 12.4405308995091 9.978618478987713 6.203925800239291
Rh 8.310897867002051 12.08845328402025 8.305001310755783
Rh 11.31904801488541 10.332095514823024 13.162768034660301
Rh 10.402463611768287 11.08026501503489 7.153440922065433
Rh 10.546654222056876 12.302476084885505 9.433282277423892
