20
Energy = -108.77954003 eV
Rh 6.187309737033907 6.73217633466399 9.110636161555323
Rh 7.687520539389699 10.303576060866646 10.524840091206277
Rh 10.823805420740582 8.819617522555458 12.962252054480537
Rh 9.223937455353408 13.37189769067317 8.164093996642427
Rh 10.372705492043 12.880176218218798 10.202917780870079
Rh 12.566514046274882 9.979440383456385 7.336482057987367
Rh 7.372674432272001 7.692904744073849 11.000524953234535
Rh 8.401259403264087 9.33648155914479 12.713910443301828
Rh 12.404479521630783 12.429380744945187 11.659793983701626
Rh 12.299264154461241 9.973808306899816 11.237397631900983
Rh 12.32280551451061 11.583679826710819 9.250528454508828
Rh 10.055446611607788 10.436723956098206 9.803200360035422
Rh 11.73359299380318 8.565687374726174 9.077902295355557
Rh 7.396114127546964 8.692766328865744 8.644750745743137
Rh 9.768390169052381 8.097690416735842 10.799557063002348
Rh 10.587229853321029 11.428209546794568 7.396109781887987
Rh 10.176425830089965 11.20153425627628 12.188532891154779
Rh 12.204450603468398 7.461178869670337 11.236549867723145
Rh 8.122212041869531 11.184297966854649 8.208438447861422
Rh 9.57037689437798 9.040010446065025 7.758230522897284
