23
Energy = -126.92888583 eV
Rh 7.885107643493891 11.20331074742456 6.275522469931384
Rh 12.139166470145364 12.787986763536898 8.37579369870373
Rh 7.981909812036733 13.324496114766179 7.789676070260075
Rh 7.981121629972011 10.9996296637536 8.780105198531663
Rh 10.043235205932938 11.92882871320478 7.464482187595782
Rh 10.371809642067062 11.821389573588368 10.00958243480369
Rh 8.167200601616457 12.99207332748227 10.30066447471083
Rh 9.38374953976135 9.434037372529746 7.2939084128995555
Rh 11.877745524066125 10.156846844690039 7.863599661856334
Rh 9.138975652265382 6.853741554670765 10.868039110732152
Rh 12.86675603633106 11.10523424568931 9.99109392235817
Rh 12.110888546639188 8.024828867895163 13.850605310203907
Rh 8.086545250314227 8.59251841348082 9.437775611791203
Rh 10.649552020292264 8.33969876854706 9.19582288690664
Rh 12.321439609364912 9.632079276496672 11.924965880996956
Rh 9.23658874687886 11.760677419708731 12.31478410302859
Rh 11.780131812731792 12.087058763905508 12.193476212950596
Rh 13.047961234827035 8.551587504475243 9.789461745596283
Rh 7.409761853920971 10.565310815108408 11.163031679060348
Rh 9.784221167779288 9.468414104211536 11.304134540540494
Rh 10.708096294255798 10.2041422205448 13.717476555658756
Rh 11.58906399486845 7.201711462586097 11.454284151956815
Rh 9.715503084125345 7.785973755773887 13.184183595371184
