27
Energy = -153.93886958 eV
Rh 14.735606918990173 11.862682391206244 15.421842163614675
Rh 15.368358617102464 11.841405811867462 12.972698597046088
Rh 14.105723117979174 13.315759344354452 11.25712958347855
Rh 13.610603760056415 13.422367914098983 13.794465659994447
Rh 15.344306195666578 11.245662880582747 10.431600535138125
Rh 13.743475469832811 10.215748566533879 12.108928785947489
Rh 12.518828600939543 15.067161129204132 12.174911672677515
Rh 12.068956893542442 11.888569120738905 10.778423658643403
Rh 13.294319868310739 10.008703137161135 14.746237383618842
Rh 11.07728978948988 13.920824144287606 14.101077806250485
Rh 12.118949457663238 12.144905239828988 15.71709147683123
Rh 11.91998650702881 11.661458092739949 13.245115165103034
Rh 13.218402888374126 10.6789941079569 9.046640709277051
Rh 10.56084126680034 13.667811993180786 11.57093318418904
Rh 12.579982150789546 8.733421894165827 10.49305053533019
Rh 9.564853133508796 12.28758559172071 15.403526610119277
Rh 14.404166703715275 12.947290255040729 8.722472190332168
Rh 8.70415847459127 13.285851387265836 13.23906953426953
Rh 10.781547623863696 9.969072646591725 15.388145916571924
Rh 11.599018457830658 9.121103469727313 13.06551886104013
Rh 12.256506393821118 14.078443271554654 9.605056858931276
Rh 8.824799767808178 11.91256360902805 10.858057096780984
Rh 10.443330969248816 9.94137456896864 10.962331933514173
Rh 9.617863815114536 10.932508232699949 13.194308696777515
Rh 10.47568660121335 11.297172178211778 8.88686803343735
Rh 9.79863879784917 13.659012688993524 9.137087183392618
Rh 12.149369929239572 12.582689393374896 7.579420623622902
