20
Energy = -109.07442301 eV
Rh 8.572110909400648 12.347458816771132 12.401063199876537
Rh 9.91840981757975 8.659798624073645 9.19821080242985
Rh 8.702541555467212 12.72088638231437 8.01663672643407
Rh 9.354880999866275 10.450608269921068 10.98842250423163
Rh 10.610109769127662 6.710417175579814 12.841437944777264
Rh 7.456201331718966 8.861828995016559 10.34595951290391
Rh 8.891897502088865 8.516650300350234 12.531760175900857
Rh 7.512397939773645 12.027828504159132 10.220792865196554
Rh 8.42916983816491 11.26398265737868 6.065488406085776
Rh 10.606106045602694 11.287951725210988 8.742629867656209
Rh 11.75959129895634 11.451369940097981 11.032715205380377
Rh 13.560213916809992 9.915929657676115 11.705562304760717
Rh 8.009144279920022 10.308446015406593 8.406466487549627
Rh 11.505436071410855 7.223500702370474 10.525720600306583
Rh 12.362399281566054 9.431002480700071 9.563900502673158
Rh 12.410063454942017 10.219937537039463 7.322134669621534
Rh 9.854501435247503 13.060378198637261 10.402175745313922
Rh 10.094537296107339 9.711440267391676 6.884862079656508
Rh 9.033632194014668 6.817612221425884 10.73899460141441
Rh 11.281342666900958 9.091825175068527 12.131042992721829
