26
Energy = -146.98523666 eV
Rh 12.187296654441266 11.280313157022757 9.828656312375964
Rh 13.365495281503414 9.027281046026495 9.777669802513172
Rh 11.98101825732298 9.529434010166375 11.847310725550967
Rh 9.619013461436344 11.263600810195834 10.548204618175435
Rh 12.939649607685386 9.692922201739101 7.456972882990232
Rh 11.435388633925474 12.026907167524657 12.24267460530715
Rh 10.669246831063473 10.72645348765887 7.696497949189864
Rh 10.485444441755993 13.02366233465957 8.856381673142385
Rh 10.746565238286651 9.007363587552227 9.67088266762266
Rh 9.68431503870265 13.628315061667296 11.275710157830327
Rh 11.877773744192032 7.096634620628994 10.703750846515053
Rh 13.067247397976 6.994872338593238 8.368359459614993
Rh 9.02910768162542 12.551327234791211 13.456125503425122
Rh 10.711699372121574 5.916353580313492 8.719101909384472
Rh 8.30192305187039 14.235049372481544 9.277464411368285
Rh 7.227877453223353 13.484929990373988 11.661532132690558
Rh 9.836102843893425 10.192793712225894 13.052653307992294
Rh 10.987100764960056 8.114674795133345 7.436355317151682
Rh 8.586690554756768 12.218919026067493 7.446850082552261
Rh 9.414146996444975 6.342274119611272 10.929818497939262
Rh 7.606257779141435 10.999419419006726 12.090680656891767
Rh 10.437435592578005 7.747832156292134 12.775875768106665
Rh 8.64504411037486 8.81415331784832 11.152366196190115
Rh 7.323164718274148 11.97738113792544 9.640522682687973
Rh 8.416270530285054 9.951153901391198 8.631903786490833
Rh 8.767564470778957 7.535506529569071 8.827438912725084
