29
Energy = -164.72992814 eV
Rh 12.978158180628045 14.097504308559435 11.336559975616469
Rh 14.14481890161108 11.896028699739988 10.75547081217225
Rh 13.631778871726485 12.793338786147475 13.262420391981612
Rh 12.321044385742823 10.930725748536757 12.151829399404672
Rh 15.924729988088366 11.16293606823883 9.300786940143409
Rh 13.522815552037889 11.231426259857358 8.234710026903699
Rh 10.646504904725482 13.35859378165539 11.705673194104868
Rh 8.792723684236256 14.61527415399652 10.751641761838759
Rh 11.913955417741242 12.56034414925011 9.625376729916889
Rh 11.219903319657956 12.506293089109047 13.850088968176552
Rh 14.352547866398382 9.37357257610814 9.78099153791902
Rh 9.41794990940216 12.542975189291182 9.396680662945903
Rh 11.889680478851096 9.827229276196435 9.554176438484088
Rh 9.995576136748172 10.43236854279532 11.17034784823228
Rh 10.798609564341325 11.187395945991296 7.806040458981767
Rh 7.002056138882979 13.058133650196366 9.726775661198245
Rh 10.977312215965382 7.922959682725708 13.332830328927722
Rh 8.627372101411543 11.863506880286002 14.151917859659608
Rh 8.220170114287834 12.457559915096462 11.878976831598933
Rh 12.720926032083229 8.608378866935366 11.755598497645206
Rh 9.314804969811629 9.319870353545944 8.964756641995626
Rh 10.31998167852809 10.188682988444052 13.626577072868194
Rh 13.803103644910035 7.073640791663434 10.109887894376246
Rh 11.407519542902103 7.482067834940024 9.835370578940346
Rh 8.13485265918254 11.218240843102226 7.747476928116299
Rh 9.618414280115552 7.96194474832863 11.348089665154351
Rh 7.951969694741368 9.834377172890612 12.573925655868953
Rh 7.461987209895598 10.656384346016367 10.107459274063965
Rh 7.336312596461963 8.285825391472466 10.605142003879672
