29
Energy = -165.00814016 eV
Rh 11.104954898029895 9.343214196566041 8.864864116762558
Rh 11.105987409968547 10.6045468930515 11.067113813855531
Rh 12.096154756497981 13.492376344418487 13.114472443567927
Rh 12.044299522669053 7.642084441274113 10.510332861610882
Rh 11.531995814154385 6.4419276943119925 12.552204283166075
Rh 9.913660984786805 9.683733449258167 14.24682305600634
Rh 14.094356873293638 11.92175171419136 12.638158888291306
Rh 12.48829016917949 11.260680397024018 7.826422746174883
Rh 12.656740526581913 13.661210793114748 8.643549048225028
Rh 9.137940198221251 11.87868705484435 14.883147137088676
Rh 12.149982133550656 8.39424021277539 13.797297412485145
Rh 9.969942899913455 11.540653631645165 7.827102837632397
Rh 13.199599856928856 9.439645227269361 11.768845176553022
Rh 9.093245999790385 11.86808007980621 10.170664871259124
Rh 13.535861331646675 9.341399756371882 9.199823207643268
Rh 10.122511266540977 8.4803987566903 12.021367792789443
Rh 10.122579976477777 13.873345457320394 8.630249638186367
Rh 11.453736845510159 12.505302581014632 15.280213997533709
Rh 8.333320366728392 10.370687465983979 12.316194327344698
Rh 13.344221367410757 11.62763184058692 10.257683017726851
Rh 8.907206052335473 9.369591966431237 7.551901368475729
Rh 11.931015622262663 10.919424524478787 13.473531301445577
Rh 13.702865215601562 13.96080817807077 11.09519061200595
Rh 11.286787617810855 13.230042907982451 10.750974701697727
Rh 7.321148649242089 10.979319396818825 8.679137059941924
Rh 6.509371327885571 10.029603454314213 10.778185175766152
Rh 11.368960756716664 13.142904674434819 6.5270715229181295
Rh 9.782838668311939 12.378779679084621 12.572374239011985
Rh 8.810401420948018 9.24697887245482 10.05131879292057
