28
Energy = -159.20295341 eV
Rh 8.961456892338163 13.7786211154508 12.562495566487259
Rh 10.93325668106084 12.270984649145003 13.204334072901785
Rh 12.875635085499626 10.744450616573584 13.805343065168074
Rh 8.782349740603312 11.232544077067557 12.237149313853003
Rh 10.725959811210023 9.723904449307833 12.870810084309896
Rh 13.483106079777295 7.0411152800554895 10.65049965250414
Rh 7.866191825430255 12.92358503524452 10.479568981130685
Rh 8.600933624321216 8.696827180180776 11.822148795761507
Rh 10.990528088803421 7.675346967745696 11.214576906279591
Rh 10.427500721627764 12.734984267499975 10.713784266936342
Rh 7.526060338718639 10.399370133774779 10.172656663459062
Rh 12.377386665707235 11.247659857216938 11.341723752853264
Rh 8.787516672324065 6.30578212240704 11.183159812068382
Rh 13.054214136896515 8.904302044685313 12.135016241984353
Rh 9.255276163102057 11.884373253981787 8.569195588249983
Rh 7.136234012727909 7.9371599335908 9.734468432135616
Rh 10.163336683562962 9.930089038577135 10.082991777743631
Rh 6.693035759171133 12.128289797919168 8.391838808108503
Rh 11.829688694421593 11.623209345152528 8.850251056786014
Rh 5.896345675655163 9.731365541943914 8.292109575941975
Rh 9.478161060509384 7.4072477527603136 9.076617710309137
Rh 12.729010441429306 9.283967472498192 9.572211816966643
Rh 11.886648485421745 6.9295798810684754 8.747832018621402
Rh 8.083070444372746 11.228883675681528 6.40861881251942
Rh 8.369277759040134 9.329307427342156 7.916306311588491
Rh 12.988674016717336 10.181517458073174 7.151385167238733
Rh 10.881219311149405 8.978611110761703 7.660319771057664
Rh 10.636409746745127 11.217097091068316 6.571241435913976
