21
Energy = -115.11173489 eV
Rh 13.925267844120487 9.063407882481362 8.676135964627244
Rh 13.857882283638498 12.85352633707453 10.69595620931853
Rh 13.550886275569628 11.448574300488211 8.492128938992247
Rh 8.827379326814606 11.675161027282043 8.79288857934977
Rh 12.51346761275199 11.92918630120529 12.574269777552333
Rh 9.515341290984816 13.846128146060341 9.537915387258899
Rh 6.534752702111598 9.156480025333654 11.640469797887286
Rh 8.987375215855018 7.214934682555213 10.459419682753603
Rh 8.878929227763303 8.488672946155676 12.465205064759752
Rh 11.131697633209825 7.250413468990607 11.751956183106405
Rh 11.041021414890595 9.796211684519394 11.973003285042333
Rh 10.503656378134076 12.33185090488029 11.298500182325958
Rh 7.20709170430609 9.402245354861321 8.339056241019234
Rh 11.875395859141703 13.389517046257625 9.441540727812564
Rh 6.5837782884388805 11.040482732967602 9.98708633054524
Rh 11.876110964793408 8.474952475078062 9.782928227841499
Rh 8.73223088209077 10.550820104179232 11.112839134279309
Rh 11.268576182024395 10.973790374945711 9.28627490925383
Rh 13.317613557575424 10.347825591147863 10.817910722635082
Rh 6.68746450698253 7.591738139907831 9.86120355575119
Rh 9.487225870619692 9.171847150513443 9.186259923578218
