29
Energy = -165.66182288 eV
Rh 7.996285157294636 12.480008368957634 12.14308139820747
Rh 6.465851947326806 10.18574313964438 12.117740001231645
Rh 6.317091256297326 11.967822173438568 10.212976385664549
Rh 8.961520317932766 10.172385418781488 13.196545457613231
Rh 10.50137712416716 11.74603916879595 11.600161451541679
Rh 8.809070495476723 12.783652684285647 9.65780369996784
Rh 8.110466354130338 8.164588189124535 11.572101158024509
Rh 6.521622431126766 9.368648232705892 9.615888303972673
Rh 8.441300749401508 10.540679834810183 10.631236955288893
Rh 11.120242612211893 11.504859583054667 9.064595579519532
Rh 11.664214206245333 10.016040807187865 13.257060952360693
Rh 6.95236470273767 11.56627056651754 7.813966625301766
Rh 10.449036051912206 9.193778953872721 11.234690119322643
Rh 10.145376805259842 7.7269798192002614 13.234381860129323
Rh 12.488654376195772 7.834911294025171 12.087646780521693
Rh 7.160666283370796 8.91595281940098 7.18154633166527
Rh 8.990188681048465 10.245184766126195 8.246672645771527
Rh 9.506273771593365 12.452445382903317 7.2138747474102
Rh 10.984066120462188 8.905686105693897 8.843334859054286
Rh 10.408788494802856 6.766224464069167 10.795302571408016
Rh 8.629889645851728 7.7743833224172585 9.03412139984857
Rh 8.557583014596188 10.539118981681488 5.728902346082652
Rh 12.678276063012989 10.190357029987313 10.830194654474083
Rh 12.909825408015735 7.579955733969044 9.623351407070933
Rh 13.150523174640194 10.007577706417695 8.314696779999005
Rh 9.659121511389994 8.234828286854643 6.648624690849189
Rh 11.109148130916248 10.40800849506799 6.666131914539688
Rh 10.785214191006945 6.48118228584747 8.280470027822048
Rh 12.350960670074725 7.994741289163353 6.8742048400354845
