26
Energy = -147.8153619 eV
Rh 12.36465823429597 8.76769102492784 9.423931185394313
Rh 12.484365694752961 9.417126467915798 11.817729964546983
Rh 13.020879101017796 11.320911727823008 9.891976649576508
Rh 9.995000771147925 9.316914847111104 12.657249253943487
Rh 11.067712038787985 11.454948506617239 11.717798138591197
Rh 12.742280257589037 12.96981605395627 7.801768045222698
Rh 10.291100445284824 7.533884834334877 8.524670267304726
Rh 10.891873012040191 7.460302927072816 11.073714750429083
Rh 8.937582719955884 6.990468210955419 12.651697897050576
Rh 12.445703353314881 10.547068373578512 7.466344659504223
Rh 11.18181215444839 13.163934091953697 9.697839364665743
Rh 10.588727701495255 10.624145352326476 9.333650708764889
Rh 9.54494467418373 13.525915765657949 11.501364405561814
Rh 9.066003989400611 9.030684794834146 10.332762131177683
Rh 12.13567010957782 8.163950249413329 6.927905285794456
Rh 8.434703130892323 6.629446668267148 10.092335189061412
Rh 8.503695420067675 11.238369199082197 11.685789117711723
Rh 10.332106973214499 12.194668636350494 7.345045581318045
Rh 7.302190757413443 8.979464501229172 12.096796820404967
Rh 8.643313930993271 12.334712377822562 9.394000028456007
Rh 6.629433547529482 6.517916042918639 11.902394487733215
Rh 7.905092695698204 8.519663862840716 8.163610942523977
Rh 9.975461598552203 9.578420180294684 7.043116965453975
Rh 6.157753499729799 7.950178531294017 9.955726429383569
Rh 7.017890019376705 10.358936995249515 9.732695946210907
Rh 7.94708351872013 11.017499125652382 7.375125133693237
