27
Energy = -153.35821745 eV
Rh 7.795711012718513 8.880686957543583 8.072705295527289
Rh 6.341833923370977 10.169864398230816 9.651976197131196
Rh 8.830496748402293 12.79342775886191 11.820860396527827
Rh 8.284363439466562 6.382702047072129 8.472002252796004
Rh 9.724114988329022 13.122716124298467 9.390555286593814
Rh 12.457798719038438 8.86213269898471 7.21559494535734
Rh 10.887611985717454 9.821261665238454 8.91606770322742
Rh 6.1846622097339115 7.5712350871063645 9.4966804585323
Rh 6.746831228638625 11.3061870007711 11.894929016914228
Rh 9.111644583571444 10.354383895641245 12.635115068719438
Rh 9.369962831350263 7.781637994224786 12.64006784264072
Rh 11.91493388883746 12.187506045464838 8.801422983246983
Rh 7.196453167212545 12.536352389184522 9.454132148713914
Rh 11.36054786866721 11.08882009951879 6.607126351326669
Rh 8.959390333238844 11.252750113293132 7.707191783341029
Rh 13.099197166880696 10.438158962432468 10.222598038170725
Rh 7.221278808597664 8.747930318329093 11.55540726678701
Rh 11.244507927372426 9.134990972318295 11.527799354869122
Rh 7.916696554427746 6.322992676477354 11.072306547013108
Rh 8.816885183880384 10.744791712358808 10.205841075492902
Rh 11.013048054295254 11.658029496408268 11.18750185316228
Rh 9.801842475749249 9.039828135775535 6.633136897179787
Rh 9.186015610928658 8.257188698473255 10.060636705303011
Rh 10.897967115743224 6.631139755508655 10.891270695323254
Rh 13.783291201138788 10.889897383716962 7.752842659187791
Rh 12.675465976857963 7.954065943263301 9.644149422107738
Rh 10.644553906533975 7.2114293949462205 8.263528807262183
