21
Energy = -115.89417427 eV
Rh 9.330140324858988 13.46787982865163 10.45822832726888
Rh 10.542379409289538 10.068706558392961 7.652208700576471
Rh 8.724336493423307 11.338803172565994 11.784673316434999
Rh 10.362606623384524 13.082977733159336 12.6977364047105
Rh 8.481618186982937 9.794410664040006 6.155988775310743
Rh 12.067869616723476 11.82228591549315 11.530427517479534
Rh 9.531974122612969 7.751619217288902 7.229440400432994
Rh 13.474412256267117 8.309299622166286 10.601021057596638
Rh 12.618459033235082 10.405958454257144 9.396035180785983
Rh 10.268535056000573 11.298178286075776 9.842459572075114
Rh 14.133646509179894 10.538679623016748 11.661197098777082
Rh 8.180820837096935 10.972736720060313 8.412579696509106
Rh 11.628435194028436 8.043267678728848 8.82264295001754
Rh 10.772219671979483 10.478422734352574 13.187915319933062
Rh 12.798243301125122 8.990813343008046 13.044782480795103
Rh 8.86784370419386 8.87354145435084 12.116938737371713
Rh 7.173128268460599 8.649661675964829 7.986191707830776
Rh 11.154600722456784 9.12711165210688 11.0887213751965
Rh 7.109038703432895 12.417035457126406 10.072855056826024
Rh 9.21436341568868 8.69945285769249 9.54180354485745
Rh 7.119121256813737 9.794750356799835 10.426457694483897
