26
Energy = -147.28440213 eV
Rh 14.878196587759902 13.913231857095397 11.18543614394631
Rh 10.560019206769574 12.421212868344654 9.654198831214414
Rh 13.008604097763552 9.942166086192554 10.670441628422084
Rh 10.932018495703138 10.34634144613042 12.294130658376774
Rh 14.210050183466562 13.765107674621008 13.70695549945817
Rh 11.788703270030886 12.981902233264135 13.918331149312301
Rh 8.83215675716309 11.343520410924217 11.289280311080814
Rh 13.811136778610008 11.50126865640742 14.775136519336797
Rh 12.238089029663312 11.00640480650217 8.341671881361039
Rh 13.449609664130204 15.522377000496409 9.82825261230567
Rh 11.359460740979774 10.433322621616858 14.798651660985465
Rh 14.414743644122462 11.644841677309083 12.304913140004789
Rh 12.89795212627496 13.53995306336643 16.097316074735172
Rh 14.132838412757826 12.010222730639638 9.705095366834511
Rh 12.470717229576422 11.176608899928555 16.982306062670308
Rh 13.20536358247145 9.532458602235947 13.193271278359003
Rh 10.884600307418982 14.967704132118868 10.000318608146838
Rh 10.505516304033556 9.900712754987229 9.851270606814863
Rh 15.07831719653823 14.03903101710994 8.586374766760063
Rh 12.222068097788195 12.241760555811389 11.417302859672372
Rh 10.524748140592374 12.560727201458542 16.071650794815564
Rh 13.356334454543179 9.169036519704173 15.659820757372197
Rh 10.088173699987971 13.49792797325082 11.978722296789094
Rh 12.473859842325975 14.6371374434215 11.982550980351354
Rh 9.472237733937202 11.827874739686997 13.772376357077059
Rh 12.533856218496686 13.636220756801267 8.497186413887729
