26
Energy = -147.57953286 eV
Rh 9.185659090204524 11.466341245993146 15.009937378292319
Rh 10.797363988801502 9.695829084580929 14.093321754626214
Rh 10.928192992394449 12.224134073968981 13.346792182595696
Rh 8.215907222493273 9.721864428394458 13.530643999274346
Rh 8.394234077281617 12.106715141771751 12.611721387730649
Rh 12.623262483771262 10.472443335006034 12.386965487243112
Rh 13.926765202925681 8.55748994714763 11.366726550730816
Rh 11.421744300440949 8.222554597564697 11.685153315703497
Rh 8.8372483919486 7.9484447143065085 11.911245146505982
Rh 11.71668340404947 12.405021327281998 10.84601929529218
Rh 10.06280498462317 10.35852529709938 11.734410698916909
Rh 9.911801452749948 13.95216782513446 11.685742970795317
Rh 7.625312946827379 10.105978730078304 10.99466779290623
Rh 8.968835241103106 12.18102931753192 10.065928327841382
Rh 10.871801780690138 10.525098162052023 9.31534910318691
Rh 9.922688449394713 8.121317328665688 9.577200521512626
Rh 12.43766271009369 8.433921004575854 9.307872289089001
Rh 8.459118722430473 10.013759182696187 8.576075883658143
Rh 13.400590190474379 10.622127211400151 9.955411689721634
Rh 10.55564387492774 13.918684245702089 9.138702127756778
Rh 12.314982905502207 12.214661880954766 8.209065720409574
Rh 13.298273936165556 9.99068001003505 7.3682461823278
Rh 7.442091768887691 7.9348811662222065 9.707633459956522
Rh 9.767370421140212 11.996050982904348 7.537826138237842
Rh 10.88679411002399 9.137638560291798 7.309556014373623
Rh 11.57681577374392 11.218595321320104 5.985455630531915
