26
Energy = -146.42026843 eV
Rh 12.467112844939573 14.189062101172192 9.408474403189182
Rh 9.544417556993857 7.64496499861581 9.03859587092173
Rh 10.297376514455486 10.527748181236356 15.243230149941565
Rh 12.869289462710196 12.719241967260272 7.504025860717969
Rh 9.606513791148007 9.932180479095697 7.873997859144928
Rh 11.78779075160565 8.890180574118583 9.125596888973023
Rh 10.038632632093059 12.562718607610929 11.34011899299937
Rh 12.405377292916981 9.93672128798218 11.39035307295247
Rh 10.063855595389557 13.966692394066996 9.152332205374263
Rh 8.583789061982202 11.898294497920826 9.117679247607825
Rh 7.5163784912152645 10.966907648931258 11.263888857205831
Rh 13.576618885251724 10.81895996617269 9.13774831945075
Rh 10.23772940747663 12.439588704926093 7.052371290387089
Rh 8.237153315075075 8.444057979450475 11.702800110363112
Rh 9.91534085141374 10.043087528360097 10.855301033320716
Rh 11.990878357120266 10.39379792273037 6.982069875412658
Rh 10.930252228506387 8.043836315093458 6.894662907621038
Rh 12.653513051331398 12.4482516237179 11.141757637507736
Rh 11.19625711153898 11.553354697466899 9.23005472782363
Rh 10.939802054552517 8.998599670971524 13.329260067772807
Rh 8.602205257002337 8.746373032783215 14.327682630235806
Rh 11.519559136646173 11.576503439701032 13.217910908323484
Rh 9.054419803708042 10.922673398194545 13.140082443226646
Rh 7.624745904815491 9.375513567785399 9.333986088433084
Rh 10.93765894001827 7.686957307157827 11.160908998146757
Rh 9.589970713918786 6.813910252858448 13.080106972392944
