27
Energy = -151.89419765 eV
Rh 12.383519730402838 12.12576097416106 12.363915324691023
Rh 12.957583719993785 9.737324228003613 10.3427087558842
Rh 9.138944775003585 12.880233609780335 10.793000182646418
Rh 11.512323297097508 11.69183844460191 7.374450951153636
Rh 9.754717352123889 13.845742228931606 8.504188297342475
Rh 14.051458484908538 11.31636483060232 14.319466232008716
Rh 10.898411824140057 10.91712707047969 14.106990683408796
Rh 14.572190505107706 13.462085289180868 13.01603417370718
Rh 13.539784569244713 13.701909955602176 10.673771795121079
Rh 13.364130894627985 13.52272545903447 16.994018147393163
Rh 11.575607326358966 11.400680619509949 16.654739674015158
Rh 12.120250216745033 13.06213238876333 14.867377748500957
Rh 11.448190335680366 12.179587146386979 9.973674515837052
Rh 13.805163475656954 14.985588786999958 14.893376462067192
Rh 11.047209253834467 9.717034567662266 8.924306730951578
Rh 12.328581709006958 14.702640237694942 12.79512498301922
Rh 15.381090529549367 13.089978638712667 15.531044243459158
Rh 9.268561176014332 11.355197764811535 8.771186933299951
Rh 10.54291412421084 10.499833387826298 11.578107706470282
Rh 13.685338396732194 11.818698996822661 8.951410238536242
Rh 10.219176628991502 13.208464624094132 12.981498620965834
Rh 11.060527980744537 14.622598472181414 10.615825272258988
Rh 14.584423873837894 11.390710343986509 11.428393735302732
Rh 12.315228449617631 13.960235079115575 8.36573658681602
Rh 12.728719862951765 9.626633231121893 12.776109465834377
Rh 14.071774052697016 11.126215372685477 16.82892085360127
Rh 12.619010679568422 9.502491836545364 15.321939256277206
