28
Energy = -159.33345102 eV
Rh 14.476837551200898 12.070410078220162 14.95978793488073
Rh 13.583318320609159 14.282492473549544 11.41000228102961
Rh 12.223766450709531 9.690585500555503 10.846252687075165
Rh 12.875002385031781 16.255283064550444 12.909794463113347
Rh 15.003225053246958 9.974081713691037 11.450707254782095
Rh 10.660107506767886 10.425119940602254 12.948958881184042
Rh 13.712231325417282 7.747698945103713 10.99284363684074
Rh 13.502891587496466 14.04796880476166 13.918173863828933
Rh 15.143634961482164 12.526814981568789 12.492705927115141
Rh 14.87346894043298 8.151198411742309 13.165650422332853
Rh 16.08083127246138 10.37505431199894 13.77976577488981
Rh 9.399722073978063 12.640990569660916 13.686253661412607
Rh 11.8200366091558 12.18384254534874 14.574126849874657
Rh 11.523853196388089 12.826914117679895 11.920560309772835
Rh 11.414697300855877 9.741843440321231 15.276811255220487
Rh 11.080463067471625 11.443935022640684 9.687639287712583
Rh 13.595601841766031 11.938577266281166 10.419358303137955
Rh 9.252077344691699 13.212288509849845 9.246404559903825
Rh 10.422457803061217 16.496250704841476 11.9942067456349
Rh 12.29301488303777 16.235023059656864 10.404430316498356
Rh 13.82613220246344 9.668634286227157 14.898770566889578
Rh 9.162282383490856 11.658710909589926 11.320068164990204
Rh 12.29586327663533 8.459845969284443 13.113319586499548
Rh 9.426138838144652 14.204202325032854 11.616801483466768
Rh 11.05189635726313 14.629769318506016 13.669801604074225
Rh 9.917461702969673 15.74148204462494 9.610536485312963
Rh 11.696502300239231 13.876482929825247 9.639585774392541
Rh 13.207475274807434 10.956930529597374 12.829083161277762
