27
Energy = -152.56202647 eV
Rh 12.659717016854868 9.478189456382239 13.407915999511534
Rh 9.19765543534844 7.686598455164051 12.620681003771992
Rh 9.717924947756526 6.9849379214789735 10.258273489238237
Rh 11.521064202772651 8.197601750869744 11.53459124275853
Rh 7.308583317617288 7.363514130552964 10.989383263094066
Rh 11.780658975254221 11.989185652456058 13.06488330319397
Rh 13.716888121023135 8.625343516704344 10.281708001188026
Rh 12.897676706997213 10.74055209751212 11.253767364229951
Rh 10.252497453811086 10.007423532033583 12.942572760079722
Rh 8.087805226294135 9.710883730799171 11.60926190771568
Rh 11.750376575345092 7.757825209267182 8.97187847841701
Rh 9.612258101295913 7.3003822028904 7.654350424909314
Rh 10.486728058737938 10.20431575872269 10.369822447136455
Rh 8.530613277685768 8.886392673074678 9.206731533227183
Rh 13.867808354160156 12.983887787490485 11.923279007885094
Rh 12.409752890501005 10.230454294113525 8.73648868390822
Rh 9.496944016993474 12.199303020285958 11.856621883858534
Rh 6.129187759274154 11.014831666829567 11.080059036799396
Rh 11.236834003119192 8.954496378638998 6.803874464388491
Rh 9.924556268371928 10.729703283451096 7.936066043405628
Rh 11.550056822389775 13.891477038052088 11.414924558546385
Rh 8.173876986937405 11.441514465699381 9.598521453837055
Rh 12.918353994108237 12.652411854747326 9.639274878887425
Rh 7.252145040384754 13.138320210994058 11.241072245718682
Rh 10.310627680264622 12.830683239321928 9.34713564798074
Rh 9.190742000500256 14.555835605208506 10.734150116486077
Rh 11.887124333276995 12.312392634335712 7.391168326903586
