32
Energy = -184.4995249 eV
Rh 7.4988837006729305 7.198782419271816 14.240661859379209
Rh 10.739679606043746 8.371427084105697 8.50254638110674
Rh 11.41673575587863 10.533566420578284 7.184245552523183
Rh 10.151435242379684 7.047771565774173 10.585238442432008
Rh 8.916327829139743 9.487625525722718 6.906449262911779
Rh 10.009828491619547 14.144413046460699 7.8835844830270805
Rh 7.814014849861812 7.586148414641381 11.709304294923115
Rh 9.514987150381732 10.838875847162223 9.003116061934964
Rh 9.727095658265172 9.497944004430192 11.28672474740249
Rh 12.601527381022134 7.986943324621536 10.410118745518579
Rh 11.90538205028738 12.943091157719872 6.583374768144399
Rh 12.87426554648166 9.998838052150454 12.098808578586848
Rh 8.745097471675619 11.768974172553158 12.253321068918678
Rh 7.232605058943137 10.033272043410708 11.016918719981302
Rh 11.87550864615307 10.326501707947028 9.810131246773645
Rh 13.655779526462005 11.46321453420906 8.048650662676554
Rh 13.225421657733976 8.898186378981531 7.995547886678431
Rh 7.604018717426935 13.186158831704793 8.03646362122798
Rh 10.626143019053917 10.378715816965345 13.462169667073702
Rh 6.846328030700172 12.413628190439711 10.367271385473632
Rh 11.340955464802704 8.033439461491016 12.623122244445119
Rh 9.40905185244014 12.017208213723526 6.67922064905547
Rh 7.074589195089282 10.683098895708776 8.511910786845009
Rh 11.202614990001452 12.072531175384249 11.602297803695624
Rh 13.601345190289765 12.085226619521283 10.618901685009881
Rh 9.286911012223271 12.975961862010227 10.04946316695086
Rh 9.846856350618586 8.172252032456663 14.669310458149525
Rh 9.530306166112975 6.293153850741766 13.022577283569529
Rh 11.77036844454374 12.874201718044352 9.12369290375389
Rh 8.304604249213442 8.433849347763015 9.290622939386468
Rh 14.516205143961516 9.747641461009913 10.030477692668569
Rh 8.123936580107108 9.496166852881354 13.382564979361971
