39
Energy = -228.58979906 eV
Rh 9.283466630588931 7.986800912764798 6.661535979551252
Rh 11.660060355148904 9.018897498362787 7.1311115892580705
Rh 9.505110716464667 10.48238971018932 7.134652781585934
Rh 7.697358295070203 9.15202298831026 8.366014805551055
Rh 10.977331497202643 6.535020060634332 8.024330021483049
Rh 10.175210940606341 13.634244673211258 8.922349096822442
Rh 11.74057915585086 11.654919382550148 7.354849249016042
Rh 10.14718089278114 8.815642592403993 9.153103027481343
Rh 8.489572798353445 6.717697827261038 8.844211325232836
Rh 12.560955501972785 7.874560050709245 9.349723468764065
Rh 7.901671417831524 11.822826402024443 8.677853610865284
Rh 12.208399393167383 15.075436507372975 9.661259571354924
Rh 12.6370230895238 12.562977787901486 9.514644176345714
Rh 6.533691116357196 10.18719586402078 10.298381017381992
Rh 9.840360718511803 15.557980641126436 10.572386185599052
Rh 10.407128232710146 6.798248549286635 10.64021419868284
Rh 7.864678042988266 14.017027553439997 10.008948781928833
Rh 10.29925064681483 11.238016035524756 9.432303706919539
Rh 13.499819650038269 10.225330340806696 8.516364876205166
Rh 8.242468977247581 8.33135213988835 10.787372459917625
Rh 12.277447535864496 10.060538972169617 10.650185900914769
Rh 14.520527884040588 8.768286577143229 10.55862796768192
Rh 10.677514054331292 12.774504498275011 11.354393771834706
Rh 8.486531801400488 7.236799446734477 12.976460938222704
Rh 12.875688916789386 6.963086732113665 11.684004172093069
Rh 8.133607951277998 11.82665753428945 11.239022160012276
Rh 14.59275757988586 11.345551616601922 10.724839826977016
Rh 11.774869453921147 14.864611126901409 12.132431059802123
Rh 13.932255198273117 13.844822497859914 11.229260380564797
Rh 7.519115848633761 9.7814610829091 12.694599948030708
Rh 9.985432202455689 10.107713772138691 11.811440912822686
Rh 8.85190654424689 13.98253367391381 12.424666657986439
Rh 12.8627815819598 11.889130394731437 12.481173769461508
Rh 10.865527138565335 8.043027891296079 12.82605759529751
Rh 13.115353665248799 9.2296591442394 12.80696853112364
Rh 8.983074006128392 11.642386397605506 13.723642032492977
Rh 9.212651765779496 9.123464427824668 14.482816181221708
Rh 11.050230890940282 13.10717376991663 13.841669679675615
Rh 11.313524534336901 10.541923634871068 14.017553562594516
