39
Energy = -228.78265351 eV
Rh 10.560770575278628 7.616664738912493 5.363406626409109
Rh 8.059282327659322 7.5322253797370085 4.700325034367211
Rh 9.110732530685926 9.875589892712588 5.282251293247996
Rh 6.832662872238324 9.260847851059696 6.198277382283336
Rh 8.859369891729346 5.634589018508997 6.2706069845230665
Rh 9.922235576824658 12.026325919241563 6.689913243749711
Rh 11.001235203424509 9.66564268465367 6.913952307480491
Rh 9.007304187065234 7.903384059097254 7.3039771076166105
Rh 6.464473164392023 6.803666852016364 6.668537856183488
Rh 7.442496747432504 11.784630053988215 5.975320787973372
Rh 5.875464435404011 10.882389675891481 7.886792610217362
Rh 7.068453307211768 8.501115054779023 8.877989623447183
Rh 7.765590249729124 5.9242057608495395 8.61679517206049
Rh 12.616603559795843 7.790386295356164 6.998616342632476
Rh 8.644153134082591 10.340192645851577 8.029343319830238
Rh 10.260777513562195 13.377717671279068 8.852341531929486
Rh 4.665689481691189 8.579914649416002 7.433137343482693
Rh 11.417631401642604 5.461445384895287 6.488712896518466
Rh 10.980911176216745 6.789010823409912 8.539099958473548
Rh 12.06727488646126 11.534240750752408 8.137833144059783
Rh 9.529506193169778 8.601818723841859 9.767239126797545
Rh 5.3322334113922185 6.720884232942058 9.102904516732675
Rh 10.334498366655835 11.100827146441862 9.831175789631274
Rh 9.852826143890812 4.600639704562742 8.482245207651031
Rh 7.0418472071178 10.895199057613395 10.102254687122363
Rh 4.9498471231337025 9.35319719757393 9.887762609309721
Rh 12.11646397744502 9.111192350964345 9.311310417404858
Rh 7.829792245513885 12.67931154122354 8.373702413316957
Rh 12.225981250433867 6.592209884012603 10.57483330495252
Rh 7.547205412730076 7.842080448502915 11.321093064801532
Rh 9.495671816059858 6.088464577692947 10.6962650780483
Rh 6.856711000698713 5.521597402955193 10.88481625078612
Rh 8.675199301452137 12.593572499304603 10.864297163624657
Rh 11.687535520450174 10.477509068721728 11.706871996732415
Rh 8.907117937629488 10.10453963728013 11.894792849353614
Rh 5.1162432259648325 7.414520697863801 11.578952980271103
Rh 6.239303570063973 9.756072909535998 12.149195503259513
Rh 11.010939354214724 8.229743424616029 11.736678045213576
Rh 9.179756277876063 7.584225890362039 13.058169986923817
