32
Energy = -184.32595745 eV
Rh 14.544885246550175 9.61803301993033 10.97420655166663
Rh 12.64818014113213 7.941511335522606 8.621738827195802
Rh 12.513775836276734 8.22743417294376 11.303085138323347
Rh 14.533722330608553 10.45216374623638 8.658602942852577
Rh 13.01794315721084 12.569322980687694 10.161459492821777
Rh 10.481637711312862 6.9317421454032555 12.004718620799773
Rh 11.097745294560116 8.863515937538901 14.215032995840959
Rh 12.693444339269869 10.742856538296833 12.162805697836161
Rh 10.509365253269399 8.800787943052331 7.270005044973593
Rh 12.178867323023793 10.244734653480199 9.589404365167567
Rh 10.39620788125908 8.16364941934036 9.782408983106393
Rh 10.838388700902335 11.631729946791646 13.600983395965143
Rh 12.839393776683792 9.804092684474805 6.906878535813872
Rh 10.328256349968708 9.558878503101955 12.039127757757047
Rh 13.025258356637693 12.195743133075723 7.6412902671172835
Rh 8.766705110281759 7.888992048447526 13.58272870392498
Rh 10.699598391160716 12.01254487403245 11.080664731927163
Rh 10.830532129915081 11.391574217436002 6.535431054375661
Rh 10.840240314550893 13.0301909303303 8.693345487469776
Rh 8.903160771216825 10.21795323469528 14.397480987582139
Rh 9.848931591338676 10.723761278161625 8.735547705863187
Rh 8.126245032596229 7.748996887151421 11.088806961150864
Rh 8.390632271979133 10.208738812251351 10.63451744196812
Rh 8.16838185597398 8.668797453947553 8.546592524187092
Rh 8.447465036657182 11.896989629336392 12.493897722084087
Rh 8.497299133866282 10.22095808931338 6.476169473143266
Rh 8.497130515235568 12.70559939789817 9.904893516292224
Rh 8.685618357816969 12.686619787837962 7.3044522309836815
Rh 7.035894901399353 9.61125212854269 12.714660000711591
Rh 6.140266867750886 9.12630394528998 10.174268638265373
Rh 7.022821147289409 11.028303543030157 8.531966443991086
Rh 6.34013897530441 11.661129516807438 11.027175539305874
