36
Energy = -205.2288799 eV
Rh 13.337022477938701 12.67178637956519 9.085897284257946
Rh 9.732822641689118 12.577049141790154 9.993239489159535
Rh 6.725277956959508 10.232458344839936 12.183576427318966
Rh 13.441906150545083 14.587658894564601 10.867894756852682
Rh 10.678975002845744 9.655106826396349 13.562589654815136
Rh 10.852520891514473 12.806780927683954 12.302709569398806
Rh 12.957476758982082 13.676701845372088 13.477914709997979
Rh 11.347773307190431 11.180691669357897 8.709532569301143
Rh 8.879258556641632 11.139757598832437 12.769109203148373
Rh 13.543717824825386 15.381543773553863 15.313261913367464
Rh 15.472301642903624 11.497297577084003 10.236072295698374
Rh 7.848446146340336 11.409664698642894 10.498226360274641
Rh 16.25127724559937 11.259665123897705 12.782883093911511
Rh 13.386361479028096 12.850191298834648 15.912262953084479
Rh 12.152513787731651 15.923638884119535 12.708822998795233
Rh 9.16778053779514 12.972893965291528 14.342440574535475
Rh 11.262281034991041 13.824620684501593 8.48790562098249
Rh 11.307777890907312 8.808275756686664 9.38073062966637
Rh 9.853694348810766 15.104116590236899 13.179597399112193
Rh 14.669272813338525 15.643956517028945 12.987536745994081
Rh 13.27161405081147 12.07971686033792 11.514674138473973
Rh 10.909588907334815 10.457221460972795 11.19710284392493
Rh 17.44814820351894 10.098578626769608 10.99095117984898
Rh 15.419749690105366 13.58980559849739 14.468233528785415
Rh 15.57168893687627 13.525264969892064 11.93738444175029
Rh 12.751108978415894 9.65232210590554 15.018565820357146
Rh 13.071066930459033 9.645163623236805 12.489533250877713
Rh 13.351293564993707 9.982461011433214 9.909102920317116
Rh 11.36847903183032 11.792474464336694 14.680567526391055
Rh 11.757603651232113 13.32563833023309 17.54495511118882
Rh 15.235231735253869 9.210465120430008 11.410608933010673
Rh 11.04977374359 14.342865899730496 15.324377878185341
Rh 12.06167591468429 15.656920877660923 17.20909364518751
Rh 15.474701118669467 13.894618787972448 9.464501568906108
Rh 10.90863831526646 14.760149576097534 10.785627961151938
Rh 14.126372439151321 11.42766989698355 13.917708710740367
