30
Energy = -172.96257362 eV
Rh 11.148740063056257 12.882947170362641 15.495822371691322
Rh 11.90850607189134 10.328191144971111 15.176299900502425
Rh 12.476087798906871 12.125373516323538 13.471158130995681
Rh 14.077540972549603 8.975894245833006 10.762357085433969
Rh 12.937338265428945 9.623023519177407 12.962272401029859
Rh 13.323540574045515 11.337140522600999 11.137361405153941
Rh 12.351099747212851 13.69359125238978 11.27432091301647
Rh 10.842244199829898 11.669014798156482 11.452661996341556
Rh 10.507718473871488 13.806338054331704 13.208938569213776
Rh 10.614197854648758 8.849624711663223 13.440745188398598
Rh 12.707194152999039 7.7542931607295404 8.887488014444044
Rh 9.999383976593274 11.297409534612276 13.898462011310622
Rh 12.936955542934308 10.260460102564746 8.84956750323532
Rh 13.605772998466781 12.74370635746971 9.10092440907468
Rh 11.608901877509641 8.413551779701914 11.103369534140882
Rh 8.441301098672024 12.499824332390466 12.230111280912691
Rh 12.106825884895514 11.697426448839202 7.007877928407988
Rh 9.821277651341614 14.11691733050861 10.742574006572209
Rh 8.979739355988562 9.973467926240117 11.883966673577946
Rh 11.073561902257357 12.65739414205115 9.060097902567895
Rh 10.427411058480754 10.039913268439035 9.50587358422528
Rh 11.238165412827072 9.121593734958681 7.223808171747034
Rh 9.286384493024478 7.501881917444345 11.523788444575853
Rh 10.16342400950344 7.575694263284041 9.050480287557328
Rh 8.063075909370534 8.918804349592715 9.73157639616729
Rh 9.62169209538751 11.237920454014828 7.4208677789828705
Rh 8.654294329771702 12.129350689181965 9.661396062146363
Rh 6.838042477196843 10.84932460934568 10.881945465611476
Rh 8.679181569172945 8.820494425217095 7.262796221170664
Rh 7.191457785870207 10.730489841309383 8.22214796549927
