31
Energy = -175.83420513 eV
Rh 8.38976228451212 14.203829219226742 10.65557336900442
Rh 9.410638951731503 8.192797825169604 9.367650952092372
Rh 11.048482082488372 14.500863093421525 10.320881837864826
Rh 10.983022446813703 8.962442693474085 7.587050978576452
Rh 13.734887639097416 14.193372198415034 10.762369391142595
Rh 7.953014814239646 12.212174358078583 12.239108202586893
Rh 12.411501151489137 12.400542664577896 9.671270389942809
Rh 12.665413758777293 10.131455164495945 12.257185178427916
Rh 6.0973769917779395 13.556824566776573 11.210503406420795
Rh 12.125561754618818 11.31906685176942 14.304862752154639
Rh 10.245542604168902 11.22252572239265 12.703586383308718
Rh 13.733812941724079 8.469996430417 10.570240012443115
Rh 14.455598875311997 11.725163828092644 11.125492401729643
Rh 9.444141278491294 5.871470660939706 10.139655952233985
Rh 11.100368889533263 11.503111201063538 7.7544328676234855
Rh 10.52467764814149 8.76672407741825 12.203769909072438
Rh 7.337707626377059 11.97310986214728 9.730323443348516
Rh 13.0099678033213 10.185737520530388 6.867669182464273
Rh 8.828808288913242 10.472159417297476 8.374951576222657
Rh 11.338633351909433 10.010506640444603 9.92947011562345
Rh 13.76212530740319 10.351580491556465 9.101013017517483
Rh 9.885220626928895 12.271286788149228 9.9191159987201
Rh 15.068504530102757 9.630216437121794 12.234482824678055
Rh 10.368619829318916 6.294793130709683 12.407940312290636
Rh 8.61302709416497 10.086700840121717 10.891986215001955
Rh 8.351827724870844 9.6737667261519 13.340303646191144
Rh 10.025094323269018 13.77822977264238 12.486209854698792
Rh 12.33969443306648 12.771846156121942 12.345526750756653
Rh 8.298355421095822 7.63883319690384 11.685409650968131
Rh 11.59187010425965 7.328429279508463 10.417282344323407
Rh 12.053587363208782 15.244709883918748 12.483122664513617
