35
Energy = -201.77668182 eV
Rh 15.647910136669463 12.462557613297083 8.661340863823131
Rh 13.031596644498217 12.190631507572919 11.076803446592914
Rh 7.010248338232139 10.586073972737147 12.693775004760738
Rh 9.683865624525092 8.993528605802336 8.732156197506967
Rh 15.105463305803555 8.962128703873107 12.631298039292151
Rh 11.95988565862308 13.993601137493163 14.376528918526326
Rh 12.77743187938461 15.550267043472049 12.644355946850862
Rh 14.003243366079344 13.12904737014435 13.17418778234065
Rh 9.437507563817997 10.291314557215744 12.926923777956508
Rh 11.580964929851978 11.69227987042991 13.341446121558363
Rh 7.184977068657738 12.674887969734646 14.055312146615812
Rh 11.39943678754765 13.464623426382227 9.306209980575499
Rh 13.739094894191737 14.547518948622454 10.622784262387627
Rh 8.429636715702472 10.161863562821031 10.54042770245153
Rh 11.584436239990243 15.803177694148966 10.340871870472247
Rh 13.738350052436564 13.99983981900748 8.279834567475588
Rh 10.981778277773769 11.987831191530582 15.725530402491067
Rh 13.350799738615382 11.509095264967623 8.724195876546283
Rh 9.584538277560798 13.266905855296502 13.989666056901362
Rh 12.95608641081674 9.620744147743464 11.598226120939206
Rh 8.77215978800213 10.951913981755446 15.117974544418473
Rh 10.816851272050965 9.50639367969219 15.877599010614361
Rh 15.663024411427235 13.128687123800287 11.00969912045962
Rh 13.758721276566666 10.628750384311418 14.02138686300544
Rh 10.910564071026318 11.129501309792273 8.390976025002294
Rh 13.000506942899417 10.6563749461132 16.261942036011735
Rh 10.623773357669915 8.899598695683535 11.095144589179597
Rh 11.554402898980793 9.147357459247717 13.607956864680958
Rh 10.597108949876533 11.470683648510455 10.807122105441264
Rh 15.027753699727421 10.572838379748948 10.505163164971902
Rh 15.826553369571277 11.356766790942359 12.784915116959487
Rh 12.331113954819036 9.228162187054389 9.18644800274059
Rh 8.500495597573694 12.485848583594665 11.830816881324614
Rh 10.900581464712598 13.87275935817228 11.886878565052848
Rh 11.888749671901705 15.543381592021227 7.951006362194033
