38
Energy = -221.3123755 eV
Rh 15.195860129381252 11.135766077435864 8.711361702329272
Rh 11.921169867906507 16.78972259760023 11.122979462161789
Rh 10.995872241800956 15.58649503939594 9.09207972600651
Rh 13.36211887623605 12.136711154536442 9.99908406224473
Rh 11.354994804662581 13.140756629695641 8.93052911344383
Rh 12.991622047017048 14.63769610039737 10.38102120541646
Rh 15.007749636232777 12.965356336782724 11.618791130044775
Rh 14.936587240420002 10.353958055195843 11.15215743544784
Rh 12.168931812827111 10.862176114339452 8.162787479323566
Rh 11.483975735633841 15.743850789163687 13.350443133144916
Rh 14.038214487800726 9.039557160910604 9.191338889620335
Rh 14.937081058135346 9.543945756932441 13.470752947197301
Rh 10.073084186705831 14.995843490247958 11.37208343196567
Rh 8.944580503065037 13.887560128083688 9.2395148474477
Rh 11.313084090552596 12.84457605876377 11.49745108963428
Rh 13.052107464454556 14.02356157918917 12.836114172159924
Rh 9.686426447195261 10.165544120318572 8.894732686936253
Rh 12.581102210230274 10.54985274162941 11.903468528573397
Rh 13.84832774719052 11.81794602537565 13.574302905271741
Rh 12.610768051281006 6.919252334070905 9.29010164500985
Rh 9.671298814479162 12.135963256020746 7.472182665788818
Rh 11.781941996481848 9.163066586607137 9.955996878705161
Rh 11.266750848696342 12.423010464281667 14.000459808955085
Rh 12.76167595107458 10.273516795944564 15.124882772270617
Rh 12.720749234073162 8.511705574224703 13.248498136694861
Rh 10.097001724181284 10.469732145915879 11.375066160085273
Rh 7.778946190784406 11.595237401443528 9.485604994146566
Rh 11.564488444224198 7.190511596043382 11.496025357072826
Rh 7.72913606830245 8.8792194793649 9.724783068996336
Rh 9.953412402609901 7.601407651210197 9.331389860903768
Rh 9.454402370832579 14.144663966206348 13.66839064119249
Rh 8.792184215134254 12.742845060862113 11.513640269753267
Rh 10.62646657442717 9.970508704964614 13.836703932456007
Rh 9.166442586061851 8.171147934773964 11.685383985079564
Rh 7.664944600346609 10.390530942932779 11.80220065611683
Rh 10.432035589467235 7.44882431174746 13.756198510406392
Rh 8.763952178415384 11.680874836942442 13.86592868396954
Rh 8.307139998302066 9.103733427071468 13.902196450649024
