33
Energy = -189.29506698 eV
Rh 13.826166132111974 16.33542121651565 14.531249739053946
Rh 14.196733383967045 15.3021702429515 12.221455841681099
Rh 13.000619991228914 10.314268257635469 11.750422823011721
Rh 12.36475891942662 7.826448903960024 11.383004496575253
Rh 10.692528588493703 10.37970870110974 14.502363196054196
Rh 9.67012981185946 11.131216057598774 10.550379213432075
Rh 11.234114353842456 13.72908941341143 16.982195861527973
Rh 8.849260641745994 12.181685621568928 12.728618852045503
Rh 10.710404833843208 11.27055498722717 16.90333230945229
Rh 13.90399354987988 8.994033690932083 9.692980974299374
Rh 11.385628307245428 12.169671496826403 12.724333988346295
Rh 14.070533582102584 10.991526701877735 13.950046816096195
Rh 11.895461196045668 16.34683485563435 12.915025894553512
Rh 12.036789286532587 12.19093446134321 10.105643834154641
Rh 10.147369408577719 16.095546585824128 11.05662392878836
Rh 14.724482800832517 11.406229032823598 10.082187619707154
Rh 10.06717121507045 14.466374252375196 13.024903112763507
Rh 10.538235082755357 11.41197345385421 8.222764951917503
Rh 10.567816679807985 9.509148603272314 12.199423989763543
Rh 11.904199414851828 14.752103680831564 14.87884191679166
Rh 12.60535922306956 8.82253824040372 13.768323660556852
Rh 9.939204928564239 12.87261442955036 14.953780677079715
Rh 9.770278987224904 13.600444110623478 10.613302747809394
Rh 13.852512381018562 12.714223447162345 12.067820529792334
Rh 14.710531812151764 12.6000455029373 7.836520039053967
Rh 12.041488825734762 14.448581114040612 11.272405885461023
Rh 15.323789365059081 10.07756127276978 8.001576225985094
Rh 11.40354705747088 9.4687956658039 9.692022929078725
Rh 12.446675970820934 12.259449680009961 15.235222497362264
Rh 14.183690683929365 13.815774126071815 14.312790981191112
Rh 12.691401103371708 9.869678896531562 16.027948335753194
Rh 12.955953831789737 10.872340319545797 8.068487502574904
Rh 14.038357239844975 13.905503256254871 9.82386133143046
