30
Energy = -171.75522209 eV
Rh 14.391323561418996 13.111115699874011 11.364061214104796
Rh 11.876413615977931 13.531003013804504 11.663461193385992
Rh 13.817660085653765 11.364834535151505 7.661371049435791
Rh 11.197002567736062 11.698900703869061 7.645468294971498
Rh 12.884226870517127 9.377644005841935 8.645676655666596
Rh 12.7517404772801 12.74191852305059 9.436595914348144
Rh 10.23280663752436 13.036193405289357 9.746495288687008
Rh 13.78717573611118 10.762577693749515 10.753289766262784
Rh 13.133274856466649 12.441338821964965 13.500082833619652
Rh 9.398792090855604 13.354696550048642 12.20069942782407
Rh 8.647529272723741 11.968600785477317 8.076267544785527
Rh 7.759800978489686 13.33565547445453 10.222303440641252
Rh 9.58308143743343 9.650714939271625 8.439631022813112
Rh 10.945377518162907 13.812181091770741 14.154186408413551
Rh 11.42532764676617 11.54199838688737 15.163977033318208
Rh 12.593125815463118 11.018795690566854 5.601573832334238
Rh 11.360009852206671 9.262145396172453 6.714650343545285
Rh 10.905423575233005 11.223517715241481 12.588100416224865
Rh 13.103849447854508 9.981274379695124 13.030810080589522
Rh 11.3016388272301 10.654587399713451 10.09439863447887
Rh 8.687813133889595 11.015740494004875 10.527324072112144
Rh 8.99439376390146 11.999088604670261 14.347120090436322
Rh 12.250990778596247 9.195513586151655 15.270534029277417
Rh 7.254845499121662 11.934053329071538 12.427232459559631
Rh 12.465958066900678 8.528005614485817 11.01047798585322
Rh 8.678009696331854 9.864615771811447 12.805558261815593
Rh 9.721827197234772 9.63099061963769 15.167595162602641
Rh 10.925256392482547 8.694554238742322 13.122184274084406
Rh 9.861564447946561 8.654999884651122 10.80656177333577
Rh 11.077685312124222 7.626668804513435 8.82623665510712
