34
Energy = -195.17281868 eV
Rh 14.06532968145138 10.234909730111031 10.795931582724185
Rh 9.272784291937215 13.801738927895226 10.325053454821102
Rh 11.129074993169734 13.199045267197723 15.055097567217679
Rh 10.12996327076812 16.084588479882203 10.163237424263965
Rh 10.454570036867013 11.910458738155642 9.108327683542413
Rh 10.532622693139736 10.3493366958556 11.333088744064932
Rh 8.958093939934054 11.46326745825108 13.05673824522284
Rh 12.05782041037389 8.899293682021412 9.971730687849375
Rh 10.096725843435888 9.32204277205074 13.660884100842262
Rh 12.76900432109834 10.934764984188563 8.68435760502418
Rh 13.68992056344532 13.214516711309853 15.20872219771279
Rh 9.92103934986236 8.56549466601609 16.046535076382206
Rh 8.351668771983961 11.474194620307584 10.518677667847214
Rh 13.51369240677143 13.407711746514812 8.911650256902341
Rh 12.158706537666028 8.588100710361168 14.97302153106936
Rh 15.763968471327203 9.970878314404523 12.511487309018806
Rh 12.28564915794071 14.842232019499939 10.735979626386774
Rh 11.124019334634633 14.28589915713895 8.55695772966113
Rh 9.606212025317147 9.52992172048761 9.138121287206383
Rh 10.838980720763423 15.959748343757116 12.486658220026976
Rh 12.403438422839722 12.228521222106925 10.869847567682124
Rh 12.679484041147601 13.891731219575219 13.048294645008562
Rh 13.342333991981482 10.829987849584437 15.066092467720818
Rh 11.633668337044599 11.493682233388109 13.296112381082645
Rh 11.18522339578409 7.94557823159297 7.898780214560992
Rh 7.616331290294873 13.3308946285123 12.174573190972469
Rh 14.50273729568358 8.832367480256751 14.19962584759309
Rh 12.533803225360208 9.196449841513592 12.516286598100201
Rh 14.223527896879698 11.845048322691152 12.899317262241633
Rh 10.777003849571013 10.802627371985817 15.66474102479664
Rh 14.533638568300393 13.715888504915638 11.2148406578921
Rh 11.996009029404968 12.602870366905432 6.950798914731654
Rh 10.154459277316656 13.646803844310098 12.57402406390324
Rh 11.009813044095427 10.209863764038042 7.08702734883766
