36
Energy = -210.38364385 eV
Rh 14.49061082719989 14.109720929629907 12.436842553635923
Rh 15.26147470597185 12.318376695226867 10.77676865981271
Rh 12.930615871868987 13.397522371198255 10.45524487228712
Rh 13.921246590367558 11.842405641676104 8.719620467612891
Rh 12.088049095769977 13.916812224661028 12.860195236112522
Rh 13.444756150908844 11.759481280008538 12.522714687021955
Rh 10.398247888542805 13.366006111170497 10.97335864452976
Rh 11.336816121113232 12.552160230058874 8.580705714967957
Rh 14.088705143548754 10.086027819339867 10.67065326871959
Rh 9.648846055662474 13.880561423000247 13.410166360559234
Rh 11.683035841789378 11.021825911018178 10.59823820198439
Rh 7.903476798066688 13.283894943220918 11.640359724289754
Rh 8.716048575480237 12.783669291931007 9.17072583115096
Rh 12.377171233231469 9.944682586857443 8.343145333711725
Rh 12.249197010979538 9.393805166190775 12.491831967577422
Rh 10.905176189289518 11.630457627555145 13.073297034643323
Rh 8.385566791180839 11.681190363698596 13.675867344165875
Rh 9.077590222681277 11.052274812337684 11.251761701296218
Rh 9.712546436871033 9.385667957716723 13.280534333265827
Rh 12.687199740350136 8.101835549417782 10.170297129790386
Rh 6.6983523409465615 11.455463979520808 10.327499095457625
Rh 9.468559364191126 12.010821013504835 6.812218729783038
Rh 9.857517198388049 10.385516023595333 8.802037979769926
Rh 7.162904000321211 9.832849284359032 12.4125362947225
Rh 10.28965843527955 8.6933477060693 10.805483546454996
Rh 10.577748791279799 9.628309960030325 6.472479370748027
Rh 10.767488861473758 7.109767488269197 12.73352355087929
Rh 10.971821691493183 7.785850954690572 8.350970104010338
Rh 7.465718331982503 10.822200273687853 7.9695173695345645
Rh 11.18597192776679 6.068700350147947 10.357691513913156
Rh 7.73385385429434 9.108926467428281 9.937902757597211
Rh 8.271957668815936 7.617986587037411 12.025892885021998
Rh 8.238538045113296 10.135062942607304 5.656314224418379
Rh 8.59399588871001 8.464582419831318 7.587396494903114
Rh 8.872632327227354 6.831323356256404 9.601875789290862
Rh 9.232721440753538 5.330577180421875 11.711196696062249
