35
Energy = -203.41369938 eV
Rh 11.007203989522624 8.026549346369595 6.236917084957469
Rh 12.349118573955941 10.332074199885884 6.463994427993868
Rh 12.625156009693148 8.397114336856925 8.196633513372692
Rh 9.843948253408598 10.251492787894284 6.406984321753206
Rh 12.97942746766641 11.274303360329995 8.69493838432538
Rh 10.887751589040594 12.320879024854799 7.648503771355965
Rh 10.899406851339915 6.583134064452027 8.388583679365034
Rh 9.01034339090731 8.30594574874899 8.0093030302029
Rh 10.78280493458078 9.840583563548671 8.821546200154494
Rh 12.457090068912635 7.200688137381786 10.453753856964795
Rh 8.61030992736646 11.157495684369584 8.357805626806183
Rh 11.02631071596646 11.989341609851419 10.304936432888686
Rh 14.386983420088074 12.210823622495088 10.497051023603664
Rh 12.469468041277223 13.80861806352876 9.398604710240736
Rh 9.938231019541945 7.744257433605482 10.396737159574194
Rh 13.930471522900524 9.538687316706548 10.216332640555088
Rh 9.183502441629795 13.496182895932408 9.31155670920818
Rh 11.66285225751728 9.464708522116895 11.25880320255925
Rh 10.644381625693995 14.627971311161904 11.166932810850136
Rh 7.3224997972362385 9.292747711800791 9.668443703469267
Rh 13.450989011143713 10.818344622286203 12.413174823295565
Rh 12.572455160867882 13.213268113799662 11.981735101320739
Rh 10.829584643765575 11.357649869447084 12.750555525924051
Rh 7.165890043606842 12.017343344661027 10.173835327084145
Rh 9.171412473043263 10.351626497747084 10.88059514728162
Rh 8.1617750128568 8.32646213974701 12.058674741323037
Rh 10.587007381990638 7.901813065595245 12.924474571965773
Rh 8.891710984367514 12.878662794671193 11.839465661111456
Rh 11.90973104804027 9.665656811841982 14.192778122216815
Rh 10.539816745564048 13.696836915544745 13.647638179485647
Rh 7.158087475108813 10.791565466344435 12.367241828389796
Rh 12.72947090694581 12.279587309814612 14.407178909069035
Rh 8.234718569505382 12.278344745282416 14.210259424571493
Rh 9.145423290310783 9.894215959693343 13.792743873664623
Rh 10.39824984667562 11.59942633857746 15.302061914809117
