39
Energy = -228.47883178 eV
Rh 12.888819739257215 10.241294336084637 12.808181135910631
Rh 14.0325765646408 11.81500294634446 11.280645912281972
Rh 10.583826040358911 10.53100541429971 14.07629865647187
Rh 11.506311201537159 12.52598708793935 12.541884047305178
Rh 14.643807158247986 9.26329978096331 11.037924870532317
Rh 9.641143255748247 12.930014296790448 14.558238759297717
Rh 10.828602814354914 8.225569881769829 12.94825193783001
Rh 7.989956404572423 10.959368973221709 14.76861167838489
Rh 13.23839964173993 7.710829390543103 12.54641778490145
Rh 12.076437254752841 12.22441135407536 9.87348898825102
Rh 13.679269375181915 10.547815770866631 8.980917780683402
Rh 8.501849168317449 9.179017628486006 13.13626989644346
Rh 10.870953134422743 10.245579186763539 11.42530824327757
Rh 11.210511732087696 14.377063076181996 10.787652788892652
Rh 14.446121459298865 8.157265564701074 8.50049579613398
Rh 7.215766801777992 13.238584935631748 13.571398303189808
Rh 8.897351131690856 11.660316285002754 12.447470307131145
Rh 14.028358110597036 6.56170077037533 10.460596525714415
Rh 9.33182691972353 14.194914137833363 12.394114042817241
Rh 8.98807424673302 7.169283320580246 11.615463033047764
Rh 12.376446192530853 8.646113858017415 10.14803491554922
Rh 11.471324089289412 6.4579185915150585 11.099247806162332
Rh 6.659519963356516 10.902929529106398 11.82790942666984
Rh 8.95916574243442 15.263628941588008 10.082892413855111
Rh 9.51967549836201 12.250284079721515 10.093321427449071
Rh 7.2989542731909935 13.330807294478081 11.001007356620908
Rh 10.574931383620655 13.775497088474872 8.348165738664301
Rh 12.277717923732672 6.700333103390319 8.501919563876411
Rh 8.492065409968744 9.44016131829247 10.566247362192366
Rh 11.850105568334415 11.730673841587281 7.310526763774035
Rh 12.36640893173356 9.066779253781217 7.296342090320869
Rh 10.618559492574345 10.155721379767602 8.884452010589616
Rh 9.993035416402138 7.670017803154158 9.358057928559035
Rh 7.304278316778461 11.234489580021256 9.318881996090523
Rh 7.896860569007125 13.638049932567226 8.500856389857622
Rh 9.0931631593354 11.73964982921632 7.415206777593055
Rh 10.312178426457697 7.507145689954127 6.9134379100427985
Rh 10.29364334088701 9.951679602981272 6.178022188099485
Rh 8.454473301521988 9.216926376673694 7.937894228147248
