31
Energy = -175.63494082 eV
Rh 15.0779446024206 14.867976231223874 10.577446504614285
Rh 8.915917860308051 12.913177419962329 9.862048577272809
Rh 11.597334569850855 10.670267182791381 9.971893351074772
Rh 12.587583017219373 11.619942187629336 13.183900624923139
Rh 12.665274550331858 11.681887826191439 7.9194477319130545
Rh 9.956616226903915 8.044309339526786 13.106819863639359
Rh 11.289352196982511 13.68766451929398 8.611305336909059
Rh 11.293765116044622 12.895685972759225 10.947421074214295
Rh 11.522018749020708 9.539288184312905 14.4574895595628
Rh 15.720619750115642 14.231181511412363 13.002831274060986
Rh 9.538634608357052 9.922181443153749 11.400798373694807
Rh 13.620293282445651 12.973033587464466 9.783363305337431
Rh 13.264720909216894 13.986376417770977 12.13752019486892
Rh 15.764935183149612 12.505647916024897 11.097239614829567
Rh 11.918994136021482 9.240285055467039 11.932000845574747
Rh 9.601550365820495 15.265176826960436 9.246229735430743
Rh 10.912498107439317 11.838244169410363 15.119422644674396
Rh 15.216379326783619 11.49330372896942 13.473614498067695
Rh 13.866649812260428 10.77453734150969 11.183595897603999
Rh 12.47665308781066 7.385164316654994 13.63641406765025
Rh 9.173857387765702 10.39262999690654 13.9265547958867
Rh 11.986716260907817 13.943140860146446 15.793580157321651
Rh 9.585067223691091 14.687812432301827 11.63402653219953
Rh 8.294235433694613 10.531966267421602 9.47394291705861
Rh 8.750153711269693 12.943171031804058 14.545003439740494
Rh 9.179163588332825 12.233039315210299 12.243174872465612
Rh 17.404483097265768 12.400285351187078 12.9702110335332
Rh 10.145655463757835 11.446782435149906 8.18147396452494
Rh 13.871239007595426 13.417282787171672 14.481665349722318
Rh 13.98576462573444 9.382743040393379 13.386338800218864
Rh 11.019918284834478 13.726067166385416 13.450633468189936
