35
Energy = -204.2159396 eV
Rh 14.321002130488344 10.216276993501152 10.11859509086301
Rh 13.02331693491023 8.06020858026087 9.935836445192603
Rh 13.150743509101238 9.324420868252748 12.242717315590387
Rh 12.357999500177973 6.9608316711927785 12.375735357100117
Rh 13.175862470400249 9.556409640195861 7.774892206051919
Rh 12.790814070554378 11.851977855850329 8.923753091762299
Rh 11.211690627671102 7.481905137606379 8.146677870051588
Rh 11.726923728633334 11.12037812316395 13.812437300567332
Rh 12.754424697744744 11.73507563929763 11.53115793733431
Rh 12.049545876561604 8.616772865929695 14.428447868883223
Rh 11.27528809218378 9.795879855757546 9.304641059901837
Rh 10.588258982746511 7.584619589996399 10.662420767122608
Rh 12.427469676238042 13.99671622671292 10.376451364534631
Rh 10.769845564684926 9.869600580410873 11.84247238429202
Rh 11.911639250924033 11.667136930711647 6.541074244924661
Rh 10.669229621462396 9.494143519926334 6.70309295603381
Rh 10.059083977413671 7.787942698805452 13.124034290113443
Rh 8.683826974569564 7.691115847249687 8.996942527971457
Rh 9.6760449459841 9.804558190120058 14.587666351011412
Rh 9.203861453791005 7.470553476094317 6.559737821069316
Rh 8.181568120441346 7.143334905998985 11.405186253398815
Rh 11.171316883773075 13.488071693022782 12.564751178519723
Rh 10.471882175961287 12.23493706331743 10.398847900341124
Rh 11.148024041149107 13.667303352500774 8.171283999260494
Rh 9.325588414062103 11.726976397697346 12.933848061149371
Rh 8.876435590199934 10.097696236742692 9.93146926541073
Rh 8.106834532502274 9.435353098760736 12.451306458902213
Rh 9.764069979649529 11.536625295131055 7.888171289031974
Rh 8.137753750736064 9.629412058140826 7.437305272666136
Rh 6.706862651144954 9.054556287536329 10.331472110119185
Rh 8.69004260187385 13.720452551293263 11.587572480867145
Rh 8.791506433463056 13.62621624280721 9.023319310618565
Rh 7.340606186186878 11.572990707304424 11.278652687561141
Rh 7.22821595414754 11.635166981606575 8.715512630658893
Rh 6.595798964372302 13.742113093164427 10.188224623844272
