34
Energy = -197.37187735 eV
Rh 16.59316638265494 14.023035678265822 12.325261369020941
Rh 12.87583933182755 11.046303651228126 7.742838435675139
Rh 13.400315005589723 13.229377765781688 11.675509938578267
Rh 9.352716355155511 14.299821417799672 14.53509601362786
Rh 12.761970929291927 8.603807963632843 11.244829953185741
Rh 12.049564741800786 9.957634837111517 15.2603142513084
Rh 12.889886755116521 16.36242378559236 13.227952531281657
Rh 9.55173582215631 11.257197859030315 11.123563723932717
Rh 12.167610733431754 11.043245756826819 10.937652350530712
Rh 8.989695354885269 12.025860610129973 13.603913983147253
Rh 14.335922987227129 14.338491759842869 13.666278274818353
Rh 15.143253188354098 9.759595302323275 11.371783364700097
Rh 11.465232114098388 12.247485163282333 13.173168892520179
Rh 12.792548914394928 13.455265128035856 9.103912740139661
Rh 9.458417662914012 9.994976489547247 15.039843206203287
Rh 14.335963717074398 11.4874140208963 9.688839863713763
Rh 14.027371002645259 9.060460540386762 9.042047293224023
Rh 13.41255010048581 12.140413167001524 14.824830057004686
Rh 8.347907262670365 9.713649287862099 12.739280842371913
Rh 8.71409099260114 13.835134841990849 11.949948201456934
Rh 10.902358502964374 13.39669489507159 10.808020649408185
Rh 10.82960016773709 15.120797914101791 12.597645545721267
Rh 13.461116513988648 10.133777119028041 13.171057328728446
Rh 11.971081911231309 14.284971131542155 14.67018765812553
Rh 16.53225773701812 11.972276249344763 10.7717413373927
Rh 10.932778781398854 9.710038741328999 12.985197868158389
Rh 15.132426095797568 11.96953181924197 12.851983363039627
Rh 10.750840982557987 11.825715547435912 8.856870785393955
Rh 15.033535681416222 15.988426085068902 11.839764426472286
Rh 12.737728911143588 15.463532439077511 10.797805020599984
Rh 9.94733663813378 8.734944966872114 10.861768516401648
Rh 10.788156988348941 12.160259481062281 15.550896340052992
Rh 11.518140993915498 9.371731990424019 9.091334962070702
Rh 15.17766453490958 14.058643170081867 10.164576814741416
