39
Energy = -229.81187336 eV
Rh 13.740372480989949 9.17428923584523 10.158171525194883
Rh 13.744322461172532 11.587677226472701 9.232100786490573
Rh 12.880166591885622 7.350721642838999 11.756168653407661
Rh 12.651064452057732 11.078036442421984 11.514590924712598
Rh 12.787621278811281 9.588638781532255 7.769207309933257
Rh 12.218859070701727 7.429308694329898 9.058657385347075
Rh 12.082697674372092 9.353458696418404 13.292146854602715
Rh 12.52019869140447 12.09591203271097 6.993482440067767
Rh 11.619077838467287 13.403583360321027 11.38091709131196
Rh 11.941671159405676 13.613877998060973 8.945919548966957
Rh 11.245440823783223 11.060542200589579 9.070658287971577
Rh 10.491758275703821 6.681615238652819 11.017417007929721
Rh 11.184765445039567 9.087797579153042 10.821303094934848
Rh 10.732428374761062 7.21192320533736 13.41280423697789
Rh 11.066364703271077 7.915121022718407 6.694613117203335
Rh 10.029153120901368 11.357530973544836 11.340887265325419
Rh 10.603757599195884 10.393160959539303 6.592886895512257
Rh 9.980266620820199 12.815696078522949 7.408252580578803
Rh 10.381936559264624 5.717617469058881 8.621847275005921
Rh 11.105111891691074 11.756696724911206 13.548083045461325
Rh 8.517507579012847 9.36470161737371 10.702982798792807
Rh 9.437609369908465 13.254421582516676 9.82692787886961
Rh 9.770798683618901 8.182050152027497 8.763142696898395
Rh 8.269135396371375 11.539168303331031 6.054665739571089
Rh 8.478259348359666 8.98709220107945 6.418678386517998
Rh 9.566724496955228 9.517375822570774 13.117631847051591
Rh 8.196856361589559 6.485549524102211 9.852769759263055
Rh 8.781204648176777 10.69991200210669 8.445985348370339
Rh 8.384459374263907 6.585121267195188 7.210068434023851
Rh 8.329189365158463 7.36711641332192 12.333653430368352
Rh 9.334616840973304 13.560563062652278 12.476110369324271
Rh 8.338409351035285 11.60500880148861 13.777141038737508
Rh 7.628933094677055 12.02661529347151 11.33313218486877
Rh 7.176035928881239 8.430892113877917 8.550883467847784
Rh 7.144936507151253 12.52360618473266 8.837805688190846
Rh 6.970376962381991 9.752889348738679 12.593313401128277
Rh 6.322939250103168 10.477747370788364 7.336319304265811
Rh 6.255564846160741 7.886114059032282 10.902377312733941
Rh 6.248354601869305 10.354316627700971 9.962136962892611
