33
Energy = -188.46354128 eV
Rh 8.697148760653256 9.434844814001673 14.5013037907915
Rh 12.629417675951398 11.245234442363373 13.563479512203838
Rh 12.660159298858664 10.675352998468 7.703272470708834
Rh 12.344077932787675 13.87592163386362 13.883650051584182
Rh 11.19167068930472 7.236759487398762 10.561154072792213
Rh 8.619661531009381 11.598803548204057 15.54006107355514
Rh 10.370390399062567 12.413269278729913 14.134749728295922
Rh 10.294439803076886 10.294596623433668 12.852195284967276
Rh 13.977311486539152 10.361057414966947 10.276953468262215
Rh 13.337290984817809 12.62226765623268 8.986749545033849
Rh 9.425500625190319 8.99457638328257 10.660275199107803
Rh 14.786908176543294 10.37544892492244 12.636032254272598
Rh 11.954655474676946 11.68332434111588 11.194929576897765
Rh 10.732573598664066 9.793440412537572 6.466768806696507
Rh 12.49170806730361 9.103686107388226 12.050142092555317
Rh 6.822650915902564 11.950298415796743 10.89670843709497
Rh 15.692384539221775 13.493502940369023 8.954085156708816
Rh 9.307606695873538 11.905634162115946 10.813021579734302
Rh 7.3052904418055435 9.617033438773175 11.60079710390267
Rh 11.822456106882422 9.376256947585391 9.592586717515212
Rh 7.709886895708866 7.761640568401646 13.079372232350728
Rh 13.407678214878404 13.773591582231978 11.592781279455995
Rh 10.61528503690196 13.711102402614413 11.996765451904022
Rh 10.195559892279089 7.80266092323893 12.764116289796785
Rh 8.015876786726261 11.556047685629014 13.081048084109435
Rh 10.000557823962382 8.361037321517019 8.25172090688324
Rh 10.99210601724065 13.291322567050601 9.432052693680086
Rh 11.731309109819668 15.440095782333936 10.445969921308755
Rh 15.324984901893718 12.308865376508264 11.004435981501008
Rh 7.975788650058931 10.362034065028144 9.143845432834988
Rh 14.659923545625988 12.795728698119037 13.507835645185208
Rh 10.27296474358891 11.077329830259151 8.561174298650048
Rh 14.006841927000437 15.079299975328865 9.642032609469364
