37
Energy = -217.6064842 eV
Rh 13.973963043098196 8.350221521445857 8.552027018411765
Rh 11.74694796632316 7.056508383589563 8.90135106256281
Rh 12.650756450012969 8.735519448103299 10.70676075624657
Rh 14.735736904787629 10.360075331638004 10.13118976884138
Rh 11.96104704972075 8.9182378969803 7.0734090222817
Rh 10.387347883433028 7.404812403074947 11.076300746465195
Rh 11.338152745510056 9.11737178424354 12.848109659725365
Rh 13.627495520949948 10.74012652469501 7.80060578415132
Rh 9.079634259707209 7.37320023531363 8.719084210659366
Rh 10.605305189081214 9.35482060477289 9.24072172818923
Rh 15.263023200237887 12.423064208916108 8.665915556758707
Rh 14.018304608831128 12.818049446710015 10.822383194196311
Rh 13.385691715778536 10.691919398506 12.313048717857987
Rh 9.006903602136127 7.819841757560656 13.226475955607647
Rh 9.420228991613529 9.415450352456151 6.976072616980623
Rh 7.74047616747824 7.772817408146555 10.84999325268963
Rh 12.287985705165449 11.161470642237889 9.929469973444315
Rh 9.987347710219016 9.535799876324182 14.976472269873838
Rh 6.475858802976327 8.195659404644509 12.985134747324546
Rh 12.670283319940449 13.23172738726353 12.956154226264205
Rh 10.859540445138085 11.588010882573919 12.201620093536434
Rh 11.08313362294814 11.357175497903384 7.515520474422413
Rh 12.807889420946406 13.171696658361945 8.455402211286364
Rh 7.890819845696732 10.138745463236118 13.679614403757988
Rh 7.99670706081507 9.780185721719773 9.108646764526311
Rh 6.701473709976338 10.18615592529726 11.34400294467514
Rh 9.745768048876371 11.718014799991485 9.865369743085923
Rh 12.021362524260036 11.083976442358011 14.463364161465748
Rh 9.214848355738754 9.741714610831062 11.522137773056974
Rh 10.099043389527845 13.955210401826088 12.832032393320732
Rh 9.536388510014266 11.979722927363186 14.379980202259594
Rh 11.45494068372699 13.660297662736546 10.643579337187287
Rh 10.2843139579727 13.710569266816988 8.294162638303098
Rh 8.524047562933172 11.827002146360751 7.561338738089246
Rh 7.170082926252837 12.206771189580053 9.728941879159668
Rh 8.260783095988147 12.215604575152021 12.095654751456747
Rh 8.888097303702782 14.104183112784604 10.459682523393663
