37
Energy = -216.28454502 eV
Rh 13.342371154176508 13.437067648797793 6.57472873076807
Rh 14.595709795813935 12.538970604584355 8.505417658947714
Rh 14.217152379117902 10.202567055159694 9.351023068371282
Rh 12.915148911451192 11.079766778321623 7.232730816515306
Rh 13.140415299291035 8.570605802827366 7.769960717458488
Rh 14.080976248419734 9.631838282953197 12.007717664174686
Rh 14.677908288574049 11.993881112018796 11.121688955701073
Rh 12.916610671760568 8.09520401493424 10.239953937601914
Rh 14.499610341927132 11.541286528963655 13.67656216412706
Rh 12.64475655965626 7.6373255076235695 12.71393218173481
Rh 11.742472543990472 14.398380086799088 8.076087661088794
Rh 11.10963141822109 9.535850630687676 6.415920637687449
Rh 12.805379046618107 13.364759130790954 10.00452075903142
Rh 11.19679951354076 11.965172453505598 8.62477061933896
Rh 12.795077813986072 9.758655035393701 14.199695182387329
Rh 10.996482811443203 9.279942126056946 8.943898906472857
Rh 12.275695970261953 10.821754109872995 10.774990732502292
Rh 12.552931596748953 12.803410890265914 12.584438615752397
Rh 12.423011888944753 12.126715136485261 15.119257289699798
Rh 11.182319934816093 9.952380701981301 16.16255727592102
Rh 10.712653651233056 8.765282497953578 11.4879765058384
Rh 10.600218448141726 8.496712247546352 14.101762698824382
Rh 10.843548958355344 10.888748776898263 13.01624862896224
Rh 10.960612433915514 14.02076522799404 14.133011492175712
Rh 10.706676592225106 14.159444554153103 11.429482071854904
Rh 9.630867113577173 13.902816163797189 9.140819698361055
Rh 9.319959620442626 10.740609246539979 7.711309790196746
Rh 9.86676897534415 11.796298064807564 10.759712039136527
Rh 8.737167471176734 9.70348550180064 10.103989886300479
Rh 8.616513351108726 9.648016963436499 12.762619012415705
Rh 8.713374766637633 9.577575334382752 15.376335086555786
Rh 9.82283703744016 11.840805749172342 15.13707225518929
Rh 9.08036526338414 12.86855867338883 12.951375670931684
Rh 7.767814936976739 12.070990438449833 9.171515295812922
Rh 7.925273493572403 13.998939929895847 10.987012388368012
Rh 7.354746459366317 11.508789052772613 11.605406196565227
Rh 7.3934192590168415 11.439907959660088 14.187777727902057
