37
Energy = -216.09516463 eV
Rh 14.10594651734886 10.399371251986732 9.824929616357203
Rh 13.93566122245231 13.120326572502625 9.925905582033288
Rh 13.72530935187388 11.736709261216776 12.030738678030339
Rh 14.324263209041117 9.244472056081905 12.247270393973205
Rh 13.075065148768521 11.840624198322278 7.807064150911071
Rh 11.810193659529313 13.568408218973918 11.478995138701196
Rh 12.65322511704768 7.978708373135223 13.613338315082848
Rh 10.861650811895236 9.525659068226659 14.350805728005227
Rh 11.839810332330075 11.545720229392202 10.024248381879538
Rh 11.840373024947997 13.960499308254152 8.826457266015536
Rh 12.989537831455527 8.095389834440468 10.265976872774997
Rh 12.063611077168849 9.506905904114157 8.44747882529926
Rh 11.811109562586271 11.757977952992446 13.57435945650995
Rh 11.362873685063782 13.205398850438016 6.348571736507892
Rh 11.38849163358579 10.664044584395382 6.294989665384855
Rh 11.880180637186013 9.80009773292138 11.836072300033614
Rh 11.104022156624051 7.2629676167300135 11.86276764709039
Rh 10.559141783669759 7.547274322694685 9.357743154210178
Rh 9.353514645697668 11.597931032259803 14.454145727168404
Rh 8.851731063627339 11.19963769863013 6.1772970540861
Rh 9.434099903880972 9.14127121237549 12.333800511340714
Rh 9.897476858536647 11.811238367080175 11.955163061799624
Rh 9.643940041672389 14.507902842481519 7.6553004178144475
Rh 9.231148034822048 7.02761261078475 13.703464790106871
Rh 10.07487431872521 11.97076538869042 8.204237001833512
Rh 9.746248269736174 9.09150493405295 7.391474435284645
Rh 8.361393323288857 9.235788142559858 14.793222978075562
Rh 8.04285866311718 7.678277956392834 8.650919417125545
Rh 9.813318860719862 9.897262438747624 9.885830149680407
Rh 9.543748097481977 13.560294295706083 10.07976587268729
Rh 8.691676469368238 7.023265898391345 11.073233898966924
Rh 7.5325238472248115 10.725644153505847 12.767556305532361
Rh 7.708603592606868 12.878542257523856 8.261314947824207
Rh 7.694592141877754 10.318514291800835 8.277952281027943
Rh 6.9876527701644155 8.09899104310683 12.930320032462904
Rh 7.839166388818147 11.670237369789568 10.455518336628513
Rh 7.355579624029156 9.166565738364696 10.582962789319154
