35
Energy = -204.67319729 eV
Rh 7.638838776340369 9.80746412147594 10.29066656639265
Rh 6.715545956929617 11.413504524301084 12.006153163967339
Rh 7.723986870109095 9.181061033917269 12.7380926596845
Rh 8.399333554761913 8.189748653685944 8.383124626394142
Rh 8.722914998260068 9.395789241960081 6.089363018920544
Rh 8.877196364313528 10.743080494395508 8.185054044113716
Rh 7.941168832703592 12.36322288333726 9.831427557758186
Rh 8.72833745702443 7.490726529877616 11.005278953210201
Rh 10.499989821333543 6.8431538706034525 9.128908355726805
Rh 8.893112218208591 12.740947914940035 12.251902081448218
Rh 8.144048558906372 11.345161817042998 14.212464058612019
Rh 9.8513559348263 13.07728527169502 8.063772004031303
Rh 10.12209365560292 9.323789565775645 9.943777860658345
Rh 9.813585674548154 8.019701775362591 13.515624194435492
Rh 9.564681316714275 14.367658616903386 10.301787786542123
Rh 10.802475994032314 8.846343085600349 7.435704525132505
Rh 10.450848693772732 11.898897683890704 10.333509432757532
Rh 12.14761907726322 10.086593932993498 11.220266758387732
Rh 10.576132294059875 11.162930761038039 6.372951948464294
Rh 12.548297035841934 8.39827569040306 9.292034477923362
Rh 11.310873936544946 7.60313069855326 11.494888762021338
Rh 10.239295234490237 12.914202709194084 14.420591649350616
Rh 9.866600667575698 10.353443110929392 12.405289536843574
Rh 12.145719899953814 10.84773758054622 8.474101552132147
Rh 11.34737342235378 13.758927756495222 12.0596578095228
Rh 12.200235365540225 12.953461699450303 7.042489789334119
Rh 11.972236604585103 13.83007585339111 9.453747192829487
Rh 12.237229563753013 8.952663346262732 13.531514203353089
Rh 13.880979402191736 8.136440528686872 11.597978175992777
Rh 12.022173689627552 11.618487988063917 13.295694792992908
Rh 14.338906763475332 10.219196789598545 9.92292141483417
Rh 14.252146259774536 10.484472407236549 12.585044495132982
Rh 13.246087265543974 12.337178421710037 11.070232223792159
Rh 14.102827209188531 12.521406542416646 8.704542069104825
Rh 10.388377541509493 10.308966413985598 14.861162290120054
