31
Energy = -179.45761779 eV
Rh 12.213834586228959 12.123134305567255 13.034059211082006
Rh 10.782306400168938 12.041618407749617 15.061746405960857
Rh 12.779669141771436 10.032218336426714 11.680939739072908
Rh 11.741716025335997 14.391857778841313 11.90592042574157
Rh 9.844972736990558 12.911929139962526 12.825250650098251
Rh 11.545526866678532 9.842821323771481 13.935920846564912
Rh 13.398871814035584 12.545254261687187 10.836200482843507
Rh 14.367330836850654 10.391395675411019 9.758912818640809
Rh 9.123215764250281 10.660230709420787 13.791281087810631
Rh 13.45654916514952 7.983131800643163 10.344071753388809
Rh 10.976563761889036 11.606073865812078 10.803394665972629
Rh 12.063664775976632 7.6872257945022815 12.462548592949192
Rh 9.29976832033324 13.49903175928143 10.341737621146263
Rh 8.39935787438704 11.305865187246637 11.387522768846384
Rh 11.706045279755468 13.852516384493567 9.452204413832652
Rh 10.098076683232787 9.151293797153645 11.951932027642384
Rh 7.572803564925286 9.112216378437639 12.451065822069696
Rh 12.04728633074895 9.655894284027278 8.97863407454974
Rh 12.929684066217623 11.943976233312572 8.322533827101394
Rh 10.336070010551582 12.014268158173644 8.329550244304382
Rh 11.005421795849703 7.476679482449018 10.10869054578688
Rh 9.455634021476413 9.744989304617482 9.496277696303729
Rh 7.8179264656032545 11.845266652953493 8.947816528714409
Rh 8.447940524719105 7.616284651794468 10.596605230798021
Rh 6.874233077900656 9.685074852000989 10.055547659092376
Rh 11.36686827438684 10.397976100166428 6.642954332631
Rh 10.402309813516476 8.23249008529917 7.629033772060485
Rh 7.79326097959813 8.15491307632777 8.08071533314726
Rh 9.322084100529091 6.2525866363302915 8.704375241250194
Rh 8.857749940759936 10.363826049396097 7.041933028454637
Rh 6.418038738398385 10.188542827414786 7.614595294050745
