31
Energy = -178.2908348 eV
Rh 13.479338775587797 9.630163799617728 13.053264173916597
Rh 12.050490491290134 11.702041530090254 12.955848791163175
Rh 9.804330958826796 11.911824956964722 14.038872105552134
Rh 10.722794816972021 9.544931336841252 13.580785457819616
Rh 12.051103148683017 7.668648639455645 12.316755652017653
Rh 9.565011353422888 8.093152772682304 11.76618692252069
Rh 10.996452877319337 6.388943503520278 10.468046869988104
Rh 8.69009528568279 10.439970765150374 12.212332526632466
Rh 13.741425512275255 8.640641237369499 10.731126339271343
Rh 8.48819271267719 6.451886270281207 10.216410187413159
Rh 13.491027607734017 11.260440598981592 10.832956701976734
Rh 10.08394298895754 12.716018989645935 11.600463183869925
Rh 7.7418694600733735 12.78772565832021 12.610689629425062
Rh 12.609673599126413 7.3397297566225514 8.917074091126533
Rh 11.302029055284837 9.903769436855072 11.090517111795377
Rh 12.486717054735989 13.583387274636232 11.33488779625297
Rh 10.226813782952068 8.415951329714305 9.074641208501095
Rh 8.12322194570644 13.487939726532149 10.156995793685391
Rh 12.562611694645968 9.910757301470491 8.824825595724082
Rh 11.921089085543224 8.549801273642856 6.8037744434921885
Rh 9.187425229616736 11.119595830454879 9.74619964110889
Rh 7.740948859911053 8.96804034247684 10.14896006879303
Rh 7.8532423018756035 7.500913151209896 8.03913713735898
Rh 10.486230698965729 14.472368266340936 9.8327710234657
Rh 11.535218190297241 12.187480778010869 9.371865824731362
Rh 6.785922850528532 11.31832304857123 10.704131306927499
Rh 10.483274980706627 10.61318110509648 7.487898519686526
Rh 9.453157406416135 8.455840290812416 6.472057612064997
Rh 7.973019850652581 9.975198853967267 7.773498250928171
Rh 7.027633524833046 12.130064633990285 8.24575153380787
Rh 9.487629593289148 12.989499214432428 7.994028693775563
