33
Energy = -191.75682239 eV
Rh 8.00749088682089 6.235330403681993 11.61243955011918
Rh 6.972046944450081 8.3734026953918 10.727395648757016
Rh 8.065062054980263 8.294060722274814 13.058028223007945
Rh 9.175379777056392 7.474347378257508 9.690414748208623
Rh 8.110376046974022 10.853074800803926 13.234990934311599
Rh 7.146877339058247 10.915397853190525 10.837046399303057
Rh 10.247568809066927 7.303815066596829 12.16068244435963
Rh 8.182300172467063 9.707683333459075 8.757339276364542
Rh 10.343138574213965 9.493409471440373 13.607247362162033
Rh 9.309777798593814 9.564572560935513 11.186982017205695
Rh 10.436835643458545 8.783506292300492 7.819730993653986
Rh 8.337521372853848 12.265224341674829 9.077158556192533
Rh 11.518942714891542 8.35642223427487 10.21435808796416
Rh 10.22695787309716 12.024150589164927 13.873001943675783
Rh 9.491973205035942 12.179479953464496 11.420567398756075
Rh 12.533302896382029 8.4694142899706 12.718361852071492
Rh 10.94103577528969 14.04750211104665 12.431712792046227
Rh 9.517842519132536 14.383708813426272 10.20986206436614
Rh 11.822338933420584 10.639876568430136 11.498725091722921
Rh 9.491219618134766 11.087324433008272 6.943733598892106
Rh 10.57088329987565 10.92249838339912 9.224371209066227
Rh 12.213504314594072 13.373788283334406 14.558215119770757
Rh 12.518193834702632 10.845709986757461 14.010656046723437
Rh 13.919767513724663 9.082685229720429 10.62567630530586
Rh 13.102586954062112 12.717109047177017 12.308420568046667
Rh 12.78540753441897 9.765516620054276 8.483443642326128
Rh 11.841925589334041 10.329142995172488 6.245231774277753
Rh 14.561071391899077 10.607993594800565 12.523753130277687
Rh 11.72503500262602 13.058651171685248 10.140539798478367
Rh 10.299050193122863 13.423720013775583 7.995342692094416
Rh 13.854341256339294 11.592778310452509 10.084650736380178
Rh 11.121907432725065 12.701801060783817 5.784786533903195
Rh 12.583063701485925 12.213455368801243 7.848273172981404
