35
Energy = -204.08090892 eV
Rh 9.86950341431514 11.22661761618196 6.516326345849674
Rh 11.674798494697317 9.30693011175843 6.320500784238722
Rh 12.062385877870808 11.384676809014493 7.751458950530716
Rh 12.48378968111187 13.477699092013031 9.398824520838984
Rh 10.207683106006476 13.089409099570618 8.29946237177326
Rh 11.494875416166677 7.356197290976127 8.024489724266823
Rh 10.473553583644637 15.036184910714992 9.834404038792602
Rh 13.344268920657479 9.135472901111562 8.282252228209794
Rh 8.824503474252207 11.071706844821634 8.825583647364416
Rh 13.170408352906549 11.025679628533172 10.0779380065694
Rh 11.018283998357658 9.64304283380577 9.260814457823379
Rh 9.38781796445762 8.877061413226539 7.520035135222678
Rh 8.509218997316431 13.2556376820868 10.324416642756988
Rh 13.815132774969236 6.769945841322948 9.096558854307307
Rh 10.711802079374412 11.85298809644409 10.649922248838608
Rh 13.091803103321796 12.87946339052212 11.780300742762174
Rh 12.407426267088699 15.235785048355856 11.471012152301551
Rh 11.669893241644218 9.511699201087865 11.873300318307313
Rh 10.283508829094357 13.925497834758946 12.09455258653726
Rh 12.180202814057102 14.020727053276584 13.817394281755671
Rh 7.395607672745888 8.968634442478121 9.270140824310506
Rh 11.835994849403447 7.2206322052667735 10.569735365911447
Rh 13.900574724644445 8.693261748065213 10.77894764355085
Rh 9.459191890536562 7.4390837782515105 9.688969160219495
Rh 9.0555071986313 9.667213178897931 11.14857840846251
Rh 13.753679121325153 10.624733634742455 12.610951746973777
Rh 11.231737833565207 11.716269227086025 13.209029481068308
Rh 7.052743152382533 11.188678791934828 10.683965588105304
Rh 8.71349013111947 11.93472043848995 12.575850851630104
Rh 5.5739181483043385 9.153020782887811 11.093083482481825
Rh 10.048756207273112 7.520429036207987 12.30461570684263
Rh 7.564510536738962 7.648024464878123 11.523891536582793
Rh 9.69882237912072 9.760076339977836 13.623163156091348
Rh 7.135678882517581 9.85581732928206 12.946218305037293
Rh 8.104427392551734 7.770912698607601 13.977265251211213
