33
Energy = -191.32060319 eV
Rh 6.59259003399452 9.532046357106417 9.656619748368714
Rh 7.302324689031707 7.2067431502340735 8.716994916219711
Rh 7.076154426655142 9.2300148899726 7.027788599699131
Rh 7.19740421827244 7.564129929093096 11.212177939752513
Rh 6.059645476388612 11.467788673342678 8.156129612674723
Rh 7.516058090415781 10.016996689562173 12.139907539856749
Rh 7.760018142355506 11.871341574722956 6.29818200528852
Rh 6.481562837689489 11.923652533421004 10.607873898093516
Rh 9.209415515170502 7.955905964757903 12.655119064160987
Rh 9.332343841083807 9.8386356997069 5.947679118182459
Rh 9.110263278402638 9.105912892553564 10.376104154604441
Rh 9.473923463061436 8.270825803394075 7.941656070663951
Rh 9.595574017066246 6.715450703895636 10.143914530521187
Rh 8.581725826085131 10.640997114887975 8.48082026985831
Rh 9.714775949517739 10.706171799257309 13.226419179418652
Rh 8.204126182232491 13.03631639039339 8.780104301122917
Rh 11.605772382977191 7.047338387439587 11.772323703019744
Rh 11.095608394111188 8.525169643102268 14.115900715286775
Rh 8.946505054646638 11.79831114682217 10.939571579242036
Rh 11.618109337728178 8.229308415331522 9.43770694187408
Rh 10.123511252920459 12.092091720760564 7.095708248715027
Rh 11.016216423783641 10.778949066392443 9.536398007218331
Rh 10.743392085755996 13.23833344887362 9.46645451219205
Rh 11.243882754919447 9.454946272508852 11.74844594520296
Rh 11.532290883192275 9.74936656688514 7.282516088137525
Rh 12.515852313165766 12.13744752319557 7.753457615690737
Rh 11.383370950078335 12.094822004193691 11.749825292920503
Rh 12.232943981167653 10.818179118120254 13.87057516035097
Rh 13.510441817562343 8.537602902950207 13.251449669931056
Rh 13.808870358434978 8.17227258676666 10.753272230439586
Rh 13.288370703182618 12.536533556439988 10.126857113735797
Rh 13.436175624626523 10.093175516107841 9.064319956293685
Rh 13.555871870822317 10.540080982086101 11.6517983256913
