37
Energy = -214.87072244 eV
Rh 11.848216395522407 12.564787667339825 16.42960127304119
Rh 14.175821912435456 13.09665153678933 15.376307417038111
Rh 11.034621032046347 13.850235255634654 12.688244767229477
Rh 13.570466144390567 10.643227096437277 16.078550237799462
Rh 9.757838218986844 12.25864624065152 14.335841247814296
Rh 11.115054712930537 10.301650977150263 15.550604548647694
Rh 8.529389368728083 13.502640727374613 12.367800562500062
Rh 12.391938011302276 15.615079029030682 11.400959252696982
Rh 13.613518135611349 13.989442178737916 13.056232356817231
Rh 12.253164727939808 12.069932611883665 13.992808641563382
Rh 9.904900098004111 15.161971719116528 10.836399152338883
Rh 14.640271306253258 11.100277488135841 13.81351150476546
Rh 8.232938865081184 10.920895202858265 12.66568862778046
Rh 12.916048141811766 9.248696796898981 13.848297936961648
Rh 12.742316304605907 13.251809960546769 10.619314194057194
Rh 8.747795582510488 9.880989582552514 14.848791430280494
Rh 7.6109125020102555 14.468494731494262 10.14947742478196
Rh 10.258545111703526 11.91238645344623 11.155143739396506
Rh 11.642930464303253 14.767275006556316 9.012288333610964
Rh 10.554793444446965 10.004509118205627 13.04570345449436
Rh 9.640041305325393 13.251605644759287 9.149573371918517
Rh 7.580008723416884 11.957339149012643 10.495785786246824
Rh 12.662760676566062 10.970775266021867 11.790502731571484
Rh 14.886299827830875 12.25271186089328 11.650960536604572
Rh 14.526414789311543 9.355282056972067 11.663757251748063
Rh 9.456178723186607 9.10911285472152 10.913386463107747
Rh 12.049832301320752 8.467682093874046 11.60766685148624
Rh 13.975824239979143 11.162355124873084 9.578217348960063
Rh 11.91238021553106 12.286962097866201 8.269686046988554
Rh 9.055027765794584 10.786976225953557 8.967731547453386
Rh 11.483082300268654 10.116777962129664 9.602236135826594
Rh 13.46429538250946 8.507296398577775 9.35155693776534
Rh 11.056727287651057 7.522919582936968 9.521276967644122
Rh 9.201964475330197 8.426074816504187 8.183416594991783
Rh 13.215716327598486 10.19023278962092 7.385912337898499
Rh 10.700730612127128 10.214560958541325 7.1435995099426375
Rh 11.928867003610545 7.989698956688938 7.226618331834048
