34
Energy = -198.593593 eV
Rh 11.933698263229687 8.03204859004155 10.655727864954445
Rh 13.81924364489907 9.671889444420678 11.426320365321121
Rh 13.681821502171728 8.798612340242583 8.97020260557726
Rh 11.865566597156802 10.48906319368984 9.675874225684137
Rh 13.819198958221595 12.17424600031363 10.419888777699894
Rh 10.214227078410147 7.165359234434325 12.304511942505346
Rh 9.340185663340929 7.7406703291653915 9.926633873694596
Rh 13.727663591474615 11.269129949437103 8.015454389999912
Rh 11.943179152666053 8.887276730436724 13.116561263960607
Rh 15.510754095559982 11.42780450251303 12.212819931511692
Rh 11.865138438057615 11.35520512636858 12.169440946624237
Rh 13.6809104352608 13.045470560895245 12.87547385480824
Rh 13.727510995478042 10.575567106879552 13.829585220425013
Rh 11.243889865612095 8.402675280502153 8.171608856682965
Rh 15.510757278742965 10.417342962604605 9.632012597064262
Rh 11.192812189337932 10.979510567586123 7.236184296473999
Rh 9.360469122490342 10.09120485426653 8.808757464401815
Rh 9.96985343074086 12.137778206030026 10.479916464204184
Rh 9.968435730370045 9.70828132748931 11.363688555989825
Rh 7.176933968713104 12.723248553558877 12.103080146869184
Rh 11.943873748331741 12.959320655255734 8.72893322614666
Rh 9.361083826410267 12.684574484583624 8.087299730150097
Rh 11.935054881990311 13.811895047274195 11.18971810528391
Rh 10.21318243469035 14.68074505232364 9.538167338674386
Rh 7.7495245537674755 14.144064814067638 9.835573578331243
Rh 9.360330645205314 11.75401978213229 13.0365954117631
Rh 7.595732833737225 11.68294287326306 9.858133953309606
Rh 7.5939451355069165 10.162237023905403 11.988760164391843
Rh 7.178806529797294 9.120155540331407 9.744041063671801
Rh 9.361042309766711 9.160356268576013 13.755160991718265
Rh 7.745501697845151 7.702272032322908 12.010128087836465
Rh 11.2453434279863 13.444229002943286 13.67193860210107
Rh 11.191343639684323 10.86382812585278 14.608856853478645
Rh 9.337542256986465 14.101532741730383 11.917507248690606
