30
Energy = -171.66035718 eV
Rh 6.854956135204232 11.353270907087905 9.222115942095089
Rh 7.829543017896468 13.769869369899087 8.805009096664344
Rh 7.5086221946520615 12.879902700918864 11.137316848987188
Rh 7.2752301924332885 10.168685535784991 11.46210259050299
Rh 7.552098243239593 10.191473859330626 7.035871447139874
Rh 8.355626062212501 9.229832645175046 9.352565830070454
Rh 7.459762386163513 11.796283999531665 13.404341415016624
Rh 9.167951277692922 11.709175689794112 8.382840833362502
Rh 8.474514637001159 7.987539586555414 11.670257655723939
Rh 9.411998925125925 11.428120830840992 11.899734623526502
Rh 9.921360503509876 13.289031064839445 10.268119897194405
Rh 10.369841932662732 13.907728468088292 7.8306566311861925
Rh 8.79460869216046 9.598717191578025 13.582929913572624
Rh 8.327520248925996 7.772088685058057 7.239380392130311
Rh 8.448805657011286 6.605287424002573 9.620613735401617
Rh 11.681023971231646 11.649202184478614 7.615316241576156
Rh 10.105832110556756 9.679354781290511 7.163046523961271
Rh 10.057299940792287 7.383774878912797 13.60111041022437
Rh 10.508534679984963 7.675093228996896 8.705976478278863
Rh 10.580429648535876 6.6695878848866785 11.137277745617986
Rh 10.824181323206464 10.160589873048327 9.658791919255554
Rh 10.869462674138067 9.262607089072484 12.04286666094287
Rh 12.32191077425723 13.30017593999542 9.413723578685488
Rh 11.777416572126688 11.73976619561371 11.356795377061841
Rh 12.55641767929686 9.079467625370484 7.914265214021694
Rh 12.503379347641898 7.40373981717769 12.726128212823294
Rh 12.466995818762143 8.048900398935489 10.265812531492898
Rh 13.35897742545382 11.00813240461868 9.456502909590352
Rh 13.442111990898123 9.765379143610271 11.81945639517496
Rh 14.682490657058208 8.976125315340049 9.69797766855134
