37
Energy = -215.72463277 eV
Rh 11.689325800075835 11.214024738745584 6.633576527484582
Rh 9.028877647184485 11.559493793987276 6.181614247066317
Rh 10.405634342480218 13.56612325146595 7.022263633087235
Rh 7.504861561951654 9.416622090431305 5.894540893915765
Rh 9.953051413000574 9.271265720513812 6.712327145236977
Rh 10.379787471402977 6.780070868303314 6.881314664473455
Rh 12.274090871159869 12.910916706543773 8.74931146843167
Rh 6.398066915270496 6.390869339093926 9.114861864811491
Rh 6.444442082563271 11.601232168744719 6.711992985413225
Rh 12.530584316819843 10.48487722118327 9.073438329997428
Rh 8.019240532859326 5.188164018879149 7.518322592569566
Rh 10.165585209522929 11.475429342909965 8.59037544899376
Rh 12.381176954257342 8.66471182129174 7.1649675218564175
Rh 8.069537187035907 13.060937287188587 8.077475125911764
Rh 7.965241189051914 10.247061936516523 8.294636896094561
Rh 12.271393771980167 6.167145913605535 8.515910873711846
Rh 8.128320422948459 7.6943597343293355 7.707400375103494
Rh 5.886743166675045 8.909445314244438 8.49788752838865
Rh 10.02060772318861 13.952522412227637 9.557577522401443
Rh 7.816967797866954 4.397419415935711 10.019367280464474
Rh 9.777653299448218 5.785354617365141 9.199451783293311
Rh 10.701411148890607 8.287052951896131 9.038700402115337
Rh 8.194750203079911 7.6072165226295585 10.350673509098781
Rh 9.42613019508168 9.883290325801815 10.478248883789552
Rh 5.347970530126241 7.927695817781258 10.853105985301
Rh 8.393426050520974 12.174151913231471 10.488024079821896
Rh 6.860376466647873 9.976867404306644 10.792603678648087
Rh 13.320916304949222 8.213267028446268 9.651261078991867
Rh 11.010833798518 11.8721811027709 10.966692942701798
Rh 6.713006247825352 5.967013478643036 11.744336410138056
Rh 9.720494543375114 8.132170179772961 12.321222295216316
Rh 11.521461255538695 6.7689490723594945 10.943925231459195
Rh 6.120518819957106 11.78859219230518 9.223311757391478
Rh 11.775211041644113 9.380219025250424 11.313236234159161
Rh 9.297650114249693 5.65223665492006 11.72426308520883
Rh 8.614729327860436 10.639907948219225 12.660035536804132
Rh 7.233714206732758 8.35493059990149 12.695534112188948
