32
Energy = -184.72979213 eV
Rh 7.976702222742898 9.331948583143413 8.811318318588793
Rh 9.305508141656942 7.175743289757536 9.046183887888906
Rh 6.612488268766513 11.446623563842394 8.629425601284643
Rh 8.76369347340541 11.188653141346297 7.195448087508056
Rh 6.8795221908297455 10.30939218743653 10.886614506183284
Rh 9.448682821393382 8.734951137874075 6.814992286114856
Rh 8.08842726484161 13.483492597830645 8.03431467374718
Rh 7.153163229517033 7.7309842902774495 10.558339423172978
Rh 9.924021922106588 10.662471202161322 9.434978143234076
Rh 10.394393973277902 13.100312934353248 6.988285439085772
Rh 11.259315241923922 8.700747162342399 8.510168173471618
Rh 11.337947251625952 10.58534371745442 6.81224287149238
Rh 8.382918978193441 12.335607898195322 10.291356492319371
Rh 10.163644335438395 13.98577372774074 9.406970771265845
Rh 7.470977531054578 8.815082042126194 12.848605303804627
Rh 11.774808117394619 12.113797749385837 8.809144985582892
Rh 9.485775637027963 8.06411056098559 11.426256917302325
Rh 8.675848669196801 11.107440086855878 12.514331695873517
Rh 11.540830675950108 6.9101971449228445 10.447094779689893
Rh 13.430883315621795 10.185284211010877 8.559807608968828
Rh 10.637614143073913 12.701445646128327 11.638165935816163
Rh 13.445469581076805 7.556586845735341 8.817605824320127
Rh 10.879247199468075 10.140882223297778 11.671621825603367
Rh 12.49596757395548 14.005198351078763 10.479528497064718
Rh 13.118096585133388 11.536300766077668 10.816002792453917
Rh 9.716667751250228 9.131288462579947 13.869147204504571
Rh 13.043708005829115 8.995628730502174 10.793353302803993
Rh 11.774387523924698 7.972414379070633 12.805338903078654
Rh 10.906236075561397 11.466160012026295 13.925539878470747
Rh 12.818761091237057 12.856102957835414 12.913030205794593
Rh 13.050892320845968 10.251691419301117 13.046216866919485
Rh 11.875640604580948 9.25058469522635 15.030810514492376
