33
Energy = -189.96602255 eV
Rh 8.05208430664733 11.817800211579629 10.761823959216382
Rh 11.79916515028032 11.686431556791046 9.301667568200076
Rh 10.634047266891635 8.64864308605947 9.167672127505183
Rh 12.425376689577789 7.103419778615976 9.904259023582547
Rh 9.967126305136953 13.331024861421078 9.968227735716273
Rh 10.713904995097991 7.6732760345240605 11.709130372509945
Rh 12.313894201363114 13.087506868227237 11.497562950535913
Rh 13.043715291172647 13.807717447240638 6.9587756855991465
Rh 8.66878443040259 7.4674838751752555 10.196599539533217
Rh 10.126452104695144 10.67024058269779 7.650746913856909
Rh 8.473488295840987 10.73144771422218 13.850129995969278
Rh 13.035207620364137 11.19220051617047 13.054155005365972
Rh 12.314364313108142 14.175103085620924 9.214332770247514
Rh 12.570690846226636 8.583561318054576 13.214692924981266
Rh 12.11589282294645 12.192943740783207 15.093714187555141
Rh 10.646240189749458 13.189297600811116 7.429133419815877
Rh 7.006261841397378 12.392472841119403 12.908073630813536
Rh 8.379423731880259 12.30767532491981 8.289118575139495
Rh 10.962592785086674 15.181689120961977 11.364378716509586
Rh 8.895698661079106 9.610871284593538 11.614577966411355
Rh 10.216268196722336 11.737680063056368 12.372383647231036
Rh 11.769191836049428 8.983478354964168 6.844898864435627
Rh 8.87888337562159 13.864744060470697 12.248409333983194
Rh 13.927093574817775 11.203360067311129 10.687474001986118
Rh 9.336976516602569 8.337626025142724 13.737376581849958
Rh 13.10532067563216 9.479916851554616 8.855909433157874
Rh 8.331523201275388 9.805418280027679 9.176934026211809
Rh 11.610987184762243 10.018625997684863 11.147004189377123
Rh 11.076214890341614 13.740140304029069 13.562240855631687
Rh 10.947584345094667 10.21152232910915 14.28996091244131
Rh 11.187921708074455 6.779874003754984 14.050457811777388
Rh 13.868908527682198 8.644715065815499 11.18145724797864
Rh 12.616007616129565 11.386154647504416 7.011783108609353
