36
Energy = -211.06707978 eV
Rh 8.43809422969001 7.943619742174938 13.68998195646302
Rh 9.50612750664337 10.256298506989008 13.5763393432557
Rh 7.255950908043265 9.684424769051203 12.196873817049502
Rh 8.39600666388634 12.002176583411913 11.899857649012525
Rh 11.11448942544825 8.246371039724577 13.680882771416611
Rh 10.416325162626428 12.604429873315286 13.258932637861177
Rh 9.730195589409421 6.209754040659867 12.22865335782826
Rh 12.185726170974016 10.60771027478382 13.215362558622186
Rh 7.606058617628929 7.321777094963347 11.082145881386406
Rh 12.328643292999462 8.71565472537836 11.478445670075184
Rh 6.294711612419292 11.477159162291763 10.609784750902348
Rh 8.505754474632521 10.228743483966259 9.948861694168343
Rh 5.909337638451589 8.995245370043627 10.056584269470276
Rh 10.728547769577073 11.005624028227132 11.195223638907688
Rh 12.012375537321061 6.351586538818919 11.158528853197259
Rh 10.217816863136484 13.55905141742059 10.855531253430314
Rh 9.739099382709673 8.650524501517086 11.569689776583347
Rh 12.564545514692213 13.049669943858257 11.927405607582793
Rh 12.322455706338348 13.099758001918078 9.343261324723683
Rh 6.88932160088238 10.792987910054226 8.11534955747852
Rh 13.189445690831082 10.990671696078943 10.607584049106954
Rh 10.246370863685563 11.713868309480494 8.77204566005888
Rh 12.538444601108447 10.839022820821933 8.085761330948277
Rh 10.886482958767896 9.162904474726506 9.205031500719098
Rh 13.553758243206731 8.783368289449411 9.22515240046655
Rh 7.833696305017362 8.192448390395118 8.629087063325526
Rh 9.960641492525193 14.258843493608886 8.393618435048099
Rh 9.77702262729511 6.864888323162475 9.754624885509644
Rh 9.151221565372866 9.937376812828044 7.238857885718187
Rh 8.047723755039918 12.897757322850072 9.42651621104056
Rh 12.088021976295106 6.721210638239294 8.668576323754225
Rh 11.066140676569121 10.486002957821999 5.871066296922248
Rh 11.450767798566584 12.783781268359395 6.8377251812559265
Rh 12.317367518454121 8.574520615375537 6.911919460122791
Rh 8.620662806834128 12.431103959046292 6.94930266405241
Rh 9.99180686161246 7.505211610222275 7.289038244963273
