34
Energy = -197.41801484 eV
Rh 12.699678044555178 13.723415789646594 10.502504366827194
Rh 11.031330874529178 12.50314256424798 12.113957309626326
Rh 14.887709078052277 12.61279168171442 9.893541058232387
Rh 11.371884528787696 14.458221964962307 8.358334262645013
Rh 9.944892580968757 11.243589477208431 13.927131503370386
Rh 13.497136575143074 8.72291370398475 11.012882176906649
Rh 8.477761479579762 12.87755172887095 11.324447620467692
Rh 11.752940586794063 9.931988727689236 12.57845677861673
Rh 10.582781393184524 11.955884396617343 9.616798294925443
Rh 12.86072480832245 12.38511677546027 8.336873331176319
Rh 10.308607798126815 14.535218399510097 10.725397574655581
Rh 10.171701297767711 8.7251242720707 14.214271259137217
Rh 8.202217698423835 10.06143541376119 15.25317645361299
Rh 12.93387721005813 11.222313814598442 10.782856113890126
Rh 9.3071498784422 10.420187534446846 11.526874638436855
Rh 14.277489891929122 10.308343786114214 8.880773963195777
Rh 7.49663618513607 11.453298212090923 13.06644475658898
Rh 12.100510860983746 7.457072275702145 12.867856949785049
Rh 11.749671128973068 6.88545701803946 10.324920242828856
Rh 8.874039863246605 13.680880814511855 8.818065794399923
Rh 13.180808671970727 8.007374585894631 8.53268782333034
Rh 9.856591039494198 7.835761943864836 11.8115501882721
Rh 6.794726175540863 9.921298738504769 11.007311764347035
Rh 11.204192441555282 9.3867355373438 10.000073809019323
Rh 7.813296958316982 8.873916712894356 13.135015710866188
Rh 8.089490323009342 11.255046443905899 9.283020952856239
Rh 10.595201865547672 12.309560168767458 7.116550260372221
Rh 9.337826007613469 6.31971956049774 9.745474336063216
Rh 8.041352243793632 12.21689484077143 6.946070139251661
Rh 11.90200832037624 10.105068745974672 7.701701859153244
Rh 7.4333328702194805 7.387391365542128 11.190609328010225
Rh 9.335894845391937 10.067528352115318 7.363705134959041
Rh 8.718656369141366 8.78260073871507 9.477569462428859
Rh 10.624395343195829 7.826725568248309 8.040194670272735
