34
Energy = -195.30461886 eV
Rh 14.22565702690393 12.97520187608685 9.49295860476331
Rh 9.029659844057495 10.874209281052423 13.212445763212385
Rh 10.924675159944337 10.500271490463629 7.893579918908266
Rh 11.919724319258389 15.11513522883984 12.389211937721484
Rh 14.212915047961049 10.623786234089776 11.906003763053539
Rh 10.585506357497477 12.71669825599612 11.884311201539523
Rh 13.291547224442928 12.943040074330433 12.044193014302392
Rh 14.203598984242738 14.802055855735832 13.535543442363185
Rh 12.792670131610894 6.726692116545025 10.558250875659164
Rh 13.546563260741696 10.446785895384222 8.31354464777174
Rh 12.207253331606875 12.729000809862946 7.883083397788752
Rh 8.289835141732832 13.445309066174918 11.4421931118553
Rh 10.002336160836153 12.282589691368203 15.043490360582814
Rh 7.811769953770669 12.931999541604267 13.827330779436243
Rh 10.422420165544358 7.491245732686634 11.121519905194644
Rh 14.113900037611064 15.09495563875153 10.944265858544586
Rh 10.471513185655317 10.070896025027418 11.374793884759816
Rh 8.23815095027477 11.100326265919001 10.657630835880386
Rh 8.321308993193034 8.781698007245769 11.836031864530755
Rh 15.599814665290102 10.978783560639725 9.8571013697356
Rh 11.801357746678804 10.909150249713136 13.388432460976416
Rh 14.286592745140485 8.782137950413748 10.175978335339362
Rh 12.190963573210809 13.594744122072054 14.416648118819985
Rh 11.858597416870975 8.81004226310984 9.459446507141053
Rh 9.855985592777024 14.374399397121083 13.67050311432767
Rh 9.274370602619776 9.043505427184435 9.342057316279023
Rh 8.386013069630234 11.041529977972736 8.08751347800072
Rh 12.288736950614723 11.388467102058776 10.22792988551036
Rh 11.907155909023022 14.071531906296116 10.043557015080573
Rh 12.512301077695355 8.726414494276645 12.070754922300805
Rh 12.40152555860228 11.209743660804746 15.796695955372288
Rh 11.54208595201602 13.221119551787393 16.76927465506655
Rh 14.135713726931582 11.802195153350489 14.131007522461182
Rh 10.041377948551172 12.403067391039754 9.367832237317746
