37
Energy = -216.0318435 eV
Rh 10.380744818862086 13.183220188102144 14.21039830138303
Rh 9.505483170039778 11.423131067545151 9.22300235651156
Rh 9.356907203206173 13.897935329181651 9.868607415569487
Rh 11.094407830242407 12.096873390670241 11.050803712803662
Rh 9.936698302337877 14.148039409839761 7.3916153120552615
Rh 7.805873972000991 12.957192694717964 8.074889050779674
Rh 7.773260480820363 8.560481191769524 9.702380533224575
Rh 11.777506290992571 14.097155154608627 9.294996822925496
Rh 11.562383043658839 7.45889805652439 11.705817848722166
Rh 13.177556812886326 11.97794189837098 9.657156328720433
Rh 12.403703594232478 9.932926098396898 8.10835573915982
Rh 9.24524226291111 11.375064517672227 6.589718811809841
Rh 12.223459134723553 10.214148128518794 12.416719350381815
Rh 13.66222296343544 9.5714694301626 10.370044252114921
Rh 12.47108876147402 7.556623352650832 9.26740558424277
Rh 7.3438087962087035 10.449801681254227 8.16590147579337
Rh 14.047557904806165 7.250574247695858 11.331866560882439
Rh 8.787774993366883 13.144305946440808 12.220490626152236
Rh 11.700156777486546 11.114511192185697 14.72051803481586
Rh 13.110889565280454 9.141048930213463 15.34280895091009
Rh 14.241925503152972 11.374991690523451 14.439594239756708
Rh 11.020449414906018 9.58741562645681 10.189668018764094
Rh 12.944884884777334 7.1354186064568585 13.749132753328091
Rh 9.91280756553113 7.196260316555821 9.809231522699
Rh 11.35655678291842 12.116850639344841 7.746366661935605
Rh 14.42741672627385 11.521286491371782 11.856375825103067
Rh 10.893620623851623 8.69052298690072 13.864011412639671
Rh 6.962096705782109 13.240431558100795 10.515110634583689
Rh 7.888114211621177 10.908706049411663 11.004247158525777
Rh 12.583595525963325 12.87108672582044 13.023517810069142
Rh 9.210241747095365 8.777881622644832 11.750834446638056
Rh 9.68521178166887 9.184892582508777 8.070535288941972
Rh 10.97581493533267 14.496745401018757 11.884580785847152
Rh 14.308632539935866 9.160650693836338 13.077886592975336
Rh 9.73527096674076 10.93099077091155 12.944557344668553
Rh 13.612265445715884 14.031274363638724 11.081493997521665
Rh 5.595500007280117 11.944384015495764 9.00049048456289
