36
Energy = -204.73129911 eV
Rh 9.582865475910086 9.31752961330803 9.33189458286775
Rh 14.24895941312599 11.492514005329294 9.301767832092589
Rh 12.55673606330078 16.531488612478274 13.898513078940088
Rh 15.80122257339944 12.758489904765376 10.870076192775771
Rh 7.252410109649975 11.981863298662638 10.49455578738931
Rh 10.310494330808693 12.237548220341614 14.694015873263192
Rh 14.263824489340587 8.997529234036675 9.090964149460293
Rh 13.4594521366432 13.576404094617002 10.999167938943486
Rh 9.376234559795217 9.96761824907511 13.9420079558056
Rh 14.151573229467935 11.49561845402966 12.411867759614204
Rh 15.67122277168936 10.142642711431272 10.857509971593537
Rh 7.6114820336811455 14.076021323786174 11.670132109599754
Rh 10.026144116509254 13.781209444162116 11.800600062985986
Rh 7.6689435991196175 10.684790534262653 8.491151449864345
Rh 12.545946998299607 15.367751794501308 9.47521338050219
Rh 11.495548910929916 7.717462966058313 10.425494958359748
Rh 12.00828343747548 15.368153823779332 11.888529466309913
Rh 11.946956716524175 9.989340256967784 8.619390216947183
Rh 12.517057793634345 12.270657143998191 7.645400934919901
Rh 11.140691246222518 10.136790588368344 15.777072960780346
Rh 10.483798327705088 7.852383174119459 14.811557742542599
Rh 11.905182913544374 7.779370708602049 12.949977020922072
Rh 11.024036421763341 14.775289183812585 14.244860725465358
Rh 12.527580904353833 7.557101569713359 8.266191789798333
Rh 8.433537197425242 11.898100285690257 12.823490087019687
Rh 12.20330851800802 11.146643353213797 10.81389398362446
Rh 8.678805205343767 14.13805142720756 14.056962305606431
Rh 13.440936686767303 9.053526899513663 11.452425920424673
Rh 11.249435148243345 8.162199526054021 17.067475988690212
Rh 14.268880689399538 13.865643315228336 8.433193886460451
Rh 12.075410250802507 12.839516724270007 13.059454869524119
Rh 11.275397273071652 13.289841384332057 9.622416813380944
Rh 12.001825734351156 10.349568814806613 13.46752764535151
Rh 10.335339794913889 9.451948412526749 11.735036903266872
Rh 9.648477321107967 11.571161983406311 10.610974313017431
Rh 10.059037646373259 11.62526900224602 8.146273380591518
