37
Energy = -216.50280635 eV
Rh 7.7137071548225595 11.230522469981333 13.294939284366627
Rh 11.418167704145633 8.719546748576013 14.022749130707613
Rh 10.391671614035948 9.736050853190049 9.254838203500933
Rh 9.01087884054679 11.092514302227812 7.578905500419425
Rh 13.627579034006057 8.951915244995226 8.372282548817626
Rh 8.857191168718865 9.226482080775721 14.36363364109492
Rh 12.769763218908617 13.30777163224956 8.930640722386777
Rh 10.448665619282865 12.354373007270496 9.253470631163443
Rh 7.02421104614263 13.167687541142099 11.656519584431893
Rh 10.231321110464075 9.325945697795007 11.968259896346792
Rh 11.348057856451138 11.57821422571925 11.533594699229848
Rh 8.811884310809637 14.148803491192483 10.127478816090877
Rh 9.339945129997815 7.627563242543019 10.358610457710876
Rh 15.70829061401973 9.05498199599255 9.947887064337769
Rh 12.902555715788168 10.832533948680766 13.43426694868093
Rh 11.338521426670967 14.164601382039578 10.985034293073198
Rh 7.838013074480879 9.549141461228746 9.463997273019714
Rh 11.035443660702299 12.88187798338687 6.839019178932368
Rh 11.663457939179859 7.20458402831753 11.763022885286624
Rh 10.733349757156644 14.933394103635745 8.610165599717348
Rh 9.377844045713344 7.122876718579732 12.967992229945889
Rh 12.63543462779134 9.521545287346193 10.71605612252306
Rh 12.18939062582765 10.928360229830885 7.89973606514863
Rh 13.962966172113287 7.35665821898026 10.52618470336994
Rh 9.376149160032044 13.277032702987805 12.54995718186297
Rh 14.800338153951174 10.493138004924122 11.752547670026802
Rh 8.801469788208044 11.318883296094445 10.993430429472301
Rh 11.661961168370313 7.555307351489689 9.22132172291064
Rh 13.524931867215372 12.709545195724345 11.36328724075838
Rh 11.834665879142829 13.255195583508804 13.387618541111625
Rh 7.283829789406231 12.158539159178561 9.17033265040455
Rh 6.233806851730935 10.748177920424203 11.077941273906173
Rh 14.234155593640775 11.237662755693284 9.400944778358044
Rh 10.312621331572743 11.16734262129565 13.864345820042136
Rh 8.684000921151323 13.609746618189169 7.604576369737313
Rh 7.656116365931579 8.864289590570694 12.065628239235602
Rh 13.681301372717432 8.458006093864068 12.872359602910729
