31
Energy = -178.05066263 eV
Rh 13.789641403335565 7.479771726437855 11.700584145579636
Rh 11.422938658844053 8.22079086579596 12.353626959301748
Rh 13.379879890247587 9.183764756437013 13.68789686275581
Rh 9.188464273615239 9.478886401459276 12.391129120860345
Rh 12.256668559692566 8.23357529856457 9.806796292217024
Rh 11.149868614249476 10.487642361382072 13.705563085500373
Rh 8.79421742193998 11.830345727682245 13.092322936120514
Rh 6.906725353704929 10.044986056123497 13.223260859553784
Rh 9.826935481919083 8.159261959354764 10.282322806507278
Rh 14.751261396869866 8.566316353686714 9.427651980909744
Rh 14.042397501701569 9.95434851039175 11.410639855296187
Rh 15.312180855774743 11.096100454280839 9.596288887108054
Rh 7.0554213026915775 9.070680076621485 10.934455054034165
Rh 13.346393705950268 11.725972847982593 13.024085172841668
Rh 11.426115055613836 10.458359115233 11.109738438215693
Rh 7.79087238858436 7.4656538332283064 9.21622894972882
Rh 13.29144069062893 12.38015567689293 10.455646658680084
Rh 6.968143735968379 11.665515205675163 11.215566929626817
Rh 11.048763505872309 12.69084666728327 12.461020975238611
Rh 8.903979948142718 10.604111718337819 9.894524350425664
Rh 13.047564019169927 10.416373031144458 8.758665507071251
Rh 6.201597569127989 10.508588571223816 8.939463298348976
Rh 13.154373121045722 14.12432345765604 12.281182217002547
Rh 10.600922200720843 9.546326367476894 8.264630012388931
Rh 9.15237376742854 12.986270276936086 10.806991191223903
Rh 11.092681939550994 11.976881997644828 9.044082544223377
Rh 8.014937084747256 9.39842246548764 7.741782068863943
Rh 7.456286981638212 12.637366906069444 8.856773410134892
Rh 11.39641403705971 14.149672782836786 10.420906115841573
Rh 9.251524873753478 11.622613467131282 7.3278819768950285
Rh 9.596352111666237 13.936076421872428 8.467837322128808
