36
Energy = -203.82372634 eV
Rh 14.770979994948446 11.836712344284747 9.091764390960229
Rh 10.401569636655674 11.865437126897422 13.114284473074617
Rh 10.614472993117749 10.328968930735732 15.289473810875885
Rh 8.92974519250113 14.72489445926418 10.52490429992206
Rh 15.25285510755743 11.61473856116589 11.396536292574703
Rh 13.587202486690785 13.581062288342139 13.97165797150266
Rh 8.287898395331748 12.305138229491593 10.14826804256631
Rh 12.90772238943341 12.391741151872704 11.855512846938293
Rh 10.171524725858136 7.96806012574453 11.164798099150632
Rh 11.945308651231251 8.728505059774173 9.575277980710881
Rh 6.987928679643893 13.610200275094055 8.639678941262076
Rh 10.675565637472817 12.863143929186107 10.646802255450362
Rh 12.194767932447805 8.570553651929936 14.10517273934725
Rh 12.788810070318762 11.098552381576596 14.222346990999796
Rh 15.182545386500678 11.665358805196673 14.050856194215703
Rh 13.078341703071864 14.9852100148176 11.889453340534827
Rh 11.614926803637777 17.078979336148542 11.908734254591822
Rh 14.597981343845024 13.866853168816458 7.886104691557466
Rh 11.264072703883562 15.475373379954993 10.03168364800389
Rh 10.007386029221044 10.387712471583763 10.159016800792717
Rh 13.049305374044591 13.768886221068305 9.660626375356625
Rh 16.68880200050217 10.233664173553729 12.754662520691404
Rh 9.773593622833392 9.265956879010941 13.282841607295095
Rh 12.200784955099333 15.860192124170739 14.08048863545222
Rh 11.187256993135069 13.640529600949344 14.615947440955889
Rh 7.898262239817719 8.436576273985551 11.90945790493372
Rh 14.293071187400624 9.449755782479873 12.913271814279279
Rh 11.880000638500254 10.001614975037821 11.934895694342522
Rh 6.56499860342135 14.392931751334054 10.786805820607915
Rh 12.718656756817325 7.565088900963232 11.814357300067755
Rh 14.042593630237768 7.237478586102127 9.770874305494061
Rh 10.521895695709905 14.802029673829974 12.459608438561357
Rh 11.900896731358493 12.125312944687995 16.315415719404363
Rh 12.36828114510884 11.26981274700503 9.548280911991931
Rh 8.320291828411934 10.875566472877908 12.046325633056426
Rh 14.209438399365553 9.600344237247818 10.339988085029775
