34
Energy = -198.19669605 eV
Rh 13.754210886374027 11.60686750184418 11.120256001842625
Rh 14.138850103037091 9.082060323684953 10.610608960841326
Rh 13.10556666034338 9.804443480694196 12.88601411154334
Rh 13.178381265632131 10.680345750805005 8.732774834476928
Rh 11.7696516012291 12.543245170735826 9.936704734817347
Rh 12.453908082921355 8.14914713474881 9.029719777873652
Rh 12.132436354710253 7.70771593521501 11.5999542716921
Rh 11.487876207112437 11.826509580155282 12.468613239526873
Rh 11.429618558411441 12.221521924884817 7.348383649962289
Rh 11.55758177120351 10.023499683557155 10.62746481907746
Rh 10.775999832669084 6.256166539135923 9.755918357146486
Rh 9.713350386384766 11.108386614443921 8.858292257783013
Rh 9.420730286071738 12.549478547844302 11.088294055379583
Rh 10.648846513324425 9.397019526104428 13.006986328051202
Rh 11.239405404917816 9.714333809362184 7.325533946364724
Rh 9.996017781991652 13.8843242585862 8.867300730733648
Rh 11.153567526678556 7.06164522357841 7.2407004412077445
Rh 9.582506025179002 10.743175059501358 5.708191044747116
Rh 9.55562363278875 7.5220550014852545 11.54918781707256
Rh 8.932405066477015 11.37494722746084 13.253290103444364
Rh 8.813307010440097 6.2675239740521596 7.868519718669966
Rh 8.803630051729167 12.800372774009565 6.890917900571556
Rh 8.821913728464793 10.0495841810411 11.086634521170405
Rh 6.925843284530467 12.554845068546998 11.549784712068105
Rh 9.747430267073348 8.507528560142216 9.18148723498733
Rh 9.00497547428038 8.49143126181536 6.71813155346994
Rh 8.320105846238532 8.787707948725542 13.533923346390464
Rh 7.940281699856347 6.101695819199663 10.205021449258068
Rh 7.680124599402112 12.660286601448938 9.1343692220415
Rh 7.667947272463896 10.531161103073817 7.551312022548738
Rh 7.044328428697014 8.20352440953553 11.301410000529913
Rh 6.519413623728163 10.308950661871762 12.561936785862033
Rh 7.306386431252771 8.22979795524366 8.734662891431602
Rh 6.63744783214377 10.446544171840102 9.947830623517186
