32
Energy = -184.34881398 eV
Rh 10.968170608127886 9.719120503097628 10.306124847828714
Rh 11.508236674060548 9.916880112457214 7.832709527815517
Rh 10.665527356769726 11.732062036443626 6.349378729525946
Rh 7.610758059091168 11.066734715582779 11.468598855166006
Rh 13.299262368230668 10.069772999813415 10.879383733104435
Rh 13.63219463657166 8.260368800956693 7.911854267192794
Rh 11.310428419840152 11.29852121948597 14.861486057400626
Rh 6.709598355135323 8.67078950178529 10.993815366626247
Rh 8.4601736817694 9.633789660091496 9.454278548225412
Rh 12.20125384235741 12.42629362672153 8.240472258632368
Rh 13.341609497633186 8.329998479245953 12.734512592148633
Rh 9.02695477406298 8.770860665479578 11.995726060327774
Rh 13.501982834773525 7.652271354868646 10.30751828591146
Rh 11.373472867004018 7.599832103109411 8.927280839538103
Rh 9.921142460576355 15.004310567539687 11.879711895256127
Rh 11.19346149937708 13.562954237676832 10.23359259378047
Rh 9.094333049782973 10.860228211499132 13.749257557630822
Rh 9.104417614973697 7.245469185876579 9.970109315673916
Rh 13.871895509945174 10.598712658582679 8.585692284966848
Rh 13.544412780192285 12.554944374560318 10.425637894417676
Rh 8.479234033229934 10.687831195104257 6.9855476304042705
Rh 9.856853235688964 11.766460125838147 8.832837961280461
Rh 12.415699996793107 14.258382249069957 12.297225580656812
Rh 7.284434714686098 11.841598945118115 9.071456553443554
Rh 7.024996780945616 9.490352502494302 13.38060159912002
Rh 12.47600643193973 11.775009000997457 12.590538852661528
Rh 10.120520612616442 11.735051531955023 11.555846159304611
Rh 9.451742193089476 8.425166754762218 7.523634385701235
Rh 10.416958021754088 13.207201789172437 13.496569254049275
Rh 8.598626187407447 13.411678828849547 10.499221698469988
Rh 11.230327484400506 7.487188580567745 11.537567104166582
Rh 11.229605789974649 9.598593547479915 13.046211591491929
