38
Energy = -222.67418002 eV
Rh 7.506471729622126 12.143826561039205 14.369576531158474
Rh 9.802362380124688 12.929561797889539 13.798944193863834
Rh 8.161534781393426 12.10944414396123 11.91708904182576
Rh 10.42209521306944 13.721409211383241 11.534700200431159
Rh 8.42027005126919 13.460322775988141 9.82257078247029
Rh 9.559786581679418 11.009001985204225 15.452419418421105
Rh 12.315821873296883 13.76192329461949 13.264440279367758
Rh 8.159709022404517 9.776262884935923 13.760644057113268
Rh 8.721018655948006 14.520769416645685 7.529738207102554
Rh 10.539239970713794 14.88506127631141 9.252513101753273
Rh 7.037952863605276 11.28895924631782 9.784219424010606
Rh 12.25956940020433 11.865320571189626 11.57932828780679
Rh 11.752927934189533 11.352661644395434 14.262972388706093
Rh 12.45163056241563 15.159299978833188 11.070571021184684
Rh 8.10973344560103 9.448582251138177 11.236208927841489
Rh 10.349533111247718 11.706374617159259 9.808256058866343
Rh 8.239493175475397 12.076800651076212 7.611729989131645
Rh 10.607540404070217 8.868186795518016 14.09587055268657
Rh 8.979292938452655 7.552411756017069 12.668838360290279
Rh 10.12177893020196 10.587518179569935 12.297348371481284
Rh 14.301060600137719 13.28850394310431 11.25430294552873
Rh 14.112833083546128 11.822037031645984 13.42963069713984
Rh 12.862138682682536 9.536940761235952 12.884695009552257
Rh 10.720326413989879 12.923286209276167 7.5744151871036625
Rh 11.79198587357193 9.514276039667523 10.490073618237863
Rh 12.517250622805252 13.269576628209236 9.393440177080448
Rh 9.000869955164056 9.942175787365358 8.868544987900021
Rh 11.564985335037361 7.412929533696845 12.239048379000083
Rh 10.189074868352797 10.585393465956043 6.670971740027667
Rh 12.213987622542671 10.886710622184312 8.187800510374512
Rh 14.464235946761498 11.791334072248597 8.921279133680208
Rh 9.88644732737357 7.899685539659924 10.306006596291288
Rh 14.413610146498034 10.594476352058672 11.115509374023375
Rh 13.970260932432845 9.205090057031745 9.066530570345964
Rh 11.057745471774535 8.603177713680761 8.130476260242283
Rh 14.113858287973923 7.956422301725789 11.338431039154209
Rh 13.170111196282216 5.678774619495266 11.617070794754525
Rh 12.40298804357189 7.137043718048716 9.665327219533333
