39
Energy = -228.63712313 eV
Rh 13.511835032795965 14.133873683889753 11.636195828456719
Rh 14.994806604124967 11.996954693321864 11.701167430639394
Rh 15.078721323051788 10.570226233362417 9.49768330253745
Rh 14.886847823848532 9.075468391653676 7.384063382521993
Rh 11.934544248495394 14.558163283993544 9.63222291102896
Rh 13.050003286203287 10.66619940185965 7.947247093117511
Rh 11.260664778587104 12.472821466897727 7.976491337545182
Rh 12.467306043892771 11.881897439273484 12.412965490012484
Rh 13.846792635918773 9.747940575237577 11.633143412656631
Rh 11.073649443362594 14.125209698661967 12.299297213986074
Rh 13.2163412524247 12.329178751593018 9.876733041426311
Rh 13.744054877646315 8.37691159447536 9.484181449468682
Rh 9.498403827601807 14.913466823346031 10.39968715894644
Rh 12.44779434468424 8.217538712112193 7.285645521688876
Rh 11.94363023336238 9.463022119309192 13.240995676822319
Rh 10.5918536402817 12.497712707493633 10.366615068664297
Rh 10.626137859562421 9.888373612087785 7.82213732429641
Rh 11.673928603898217 10.122154744700156 10.25600515839736
Rh 12.67538651159929 7.516382377961092 11.649606687479638
Rh 11.142963539374694 10.33895751612689 15.309963221101102
Rh 8.94322913754046 11.723851419452306 7.473423986146148
Rh 10.2718116995438 8.278660565444323 11.701159039833207
Rh 10.454715819866214 12.406738663096379 14.019723326753205
Rh 9.971276192706203 10.790802495735567 12.231303093495178
Rh 8.674839625670907 13.115118163303237 12.1219308168775
Rh 11.24375228421756 7.6431271136536925 9.487458240003035
Rh 8.193008843423227 13.067302387601426 9.472653518977896
Rh 9.85587048896197 7.500014358572148 7.420478231980403
Rh 8.998467620932892 10.408480832971792 9.806546997792804
Rh 8.822161420071291 11.163957935621758 15.52816072046596
Rh 9.1948431821255 9.065787847876175 14.038081864480592
Rh 7.6506259809124915 11.196638467943309 13.3710863097291
Rh 6.582390591322986 11.444068930244255 8.304588850147612
Rh 8.393875427296846 6.982652443276832 12.597295775336843
Rh 6.881511927278478 11.451745476120294 10.936124597655944
Rh 8.042959094024392 9.279436682082478 7.643939028707606
Rh 7.744561536319845 9.19933945670807 11.804772793098747
Rh 8.614403024109864 7.746478191280747 9.766969864029736
Rh 6.460597232846145 9.24825750932602 9.634975281332615
