32
Energy = -182.91145916 eV
Rh 14.90615542894988 11.45296983779567 16.82974684101066
Rh 10.994781322101634 11.987209245589515 15.282024464045422
Rh 13.068826029277934 14.102169562548998 12.01391191265191
Rh 12.933763952311537 13.007746435861113 16.567715725218356
Rh 13.796662878174374 10.464748695269313 10.209549191420674
Rh 13.238436147203027 12.567804695301488 14.150012537728168
Rh 12.28255838131703 9.967246825582025 14.156782819050873
Rh 14.40721660138756 9.415143279917503 15.332332225078934
Rh 8.899400842254861 10.38586676780533 9.244557211124775
Rh 10.117279015284186 12.423900174479375 12.968001515385179
Rh 10.0126111410555 14.641128281192978 9.066235197942191
Rh 11.273792148100968 14.361919144428281 14.10770096486854
Rh 12.12693050859086 13.877561968726097 7.7275426668739895
Rh 14.077354847875926 13.245690587399867 9.75736343810214
Rh 14.77082759700958 12.067195342888759 11.894876722902888
Rh 11.396082003808791 10.316975467422049 9.468207325709239
Rh 10.120980618767362 12.23762888615685 8.035278842724221
Rh 14.378236146550478 9.738797019789208 12.707659449540628
Rh 10.542449031642846 14.54067443290996 11.638846925790617
Rh 15.3980558726781 14.078995326321328 13.178563032464261
Rh 15.940993502334212 15.814116357501728 14.855623693946683
Rh 11.669807515410378 12.746368645240715 9.99586614104794
Rh 12.3716604333299 15.265053429045057 9.83330746839644
Rh 13.528893662274081 15.125753483129252 14.509610951129424
Rh 9.840042653068037 10.052093339811664 13.99376118233177
Rh 9.20164894222132 12.553055844234292 10.519544881879682
Rh 9.87791738355896 10.241330120339123 11.556346469672532
Rh 12.499506218824198 10.459519741217045 16.692966193847763
Rh 15.260982194176592 13.7099405754046 15.80905279556212
Rh 12.17301893492759 8.94500349395737 11.619475321379294
Rh 15.458504297901175 11.487999525412674 14.320079038891633
Rh 12.208130080550697 11.475577800039009 12.035952139610359
