36
Energy = -207.15370375 eV
Rh 11.486373195470915 12.020687885921674 8.482697137568431
Rh 8.069489015567676 9.740356631660156 7.127362054489172
Rh 6.37395777925518 9.900343944417733 11.714197751043411
Rh 11.981316084011262 13.366049992083916 10.690265176509506
Rh 10.772131520084786 8.553286633976654 12.238489164872039
Rh 8.526714686212479 11.729547580623002 10.253791194473887
Rh 11.956779191333304 14.240950006047713 13.029898568386043
Rh 9.765599334388261 9.868801053163848 9.041745578609142
Rh 8.581108258487715 8.990393817559735 11.082347264143634
Rh 13.529262735616713 13.193195052648996 14.583856340611925
Rh 13.700271807445926 11.101312077492683 7.363041777474874
Rh 7.017904994354446 9.982159978724251 9.326891630726756
Rh 14.81267624516192 9.112042593485418 12.420016745375712
Rh 11.317277712325435 11.985784429544605 14.098517092685992
Rh 10.60858958788492 15.42906136010625 11.275451761119136
Rh 7.320958012319788 11.977565803365048 12.469690524532535
Rh 9.125878099568899 11.93592092155825 7.770915037719535
Rh 10.21330636815156 8.24828383862383 7.270904912386945
Rh 9.690589578915347 13.181027459324199 12.058102385719927
Rh 14.150192814748625 13.474539713823994 11.794697311121086
Rh 11.359094425051998 10.864514577784991 10.77599288965199
Rh 10.70575609226788 7.67353176265225 9.7915630194194
Rh 15.235338331375615 7.748113814532649 10.459921417791213
Rh 14.70750320897134 11.503539180879002 13.283174395154944
Rh 14.037937562699128 11.000311543843274 10.859357671697198
Rh 10.742783813171515 9.595972805499049 14.610886407154522
Rh 12.856936284820033 8.535827119506779 10.836828309788777
Rh 12.13378120804584 9.386677337586109 8.400695113534114
Rh 9.4086169574537 10.674794312379612 12.745188423950488
Rh 10.276175961387313 14.649123880368306 14.774836397246576
Rh 14.585416986080476 9.517449414605055 8.987899945662628
Rh 8.901657715953165 12.634516506681164 14.383964717682499
Rh 11.7030607535191 13.313619202507462 16.18293397482044
Rh 13.81180761382322 12.778890422104558 9.16570967429111
Rh 9.79820123897174 13.74792798048757 9.531044332061345
Rh 12.592010083423705 10.200334622750736 12.97357915884353
