31
Energy = -178.53796855 eV
Rh 13.09446174586555 9.632154409963231 12.961092865639694
Rh 11.893792294526577 11.763420799202063 13.550627405669093
Rh 10.851164093892136 8.595488716822931 13.586855405708206
Rh 9.596179157457657 10.77340256710182 13.219484065450175
Rh 13.600537198488576 9.177657371609921 10.477894358047589
Rh 9.806305781144738 13.294572059083544 13.480184666644634
Rh 8.313927830966314 10.142407425877275 11.10668067512395
Rh 11.062366920621567 9.770188709785298 11.230383886237552
Rh 12.871301768871232 11.518650463361574 11.18399733201072
Rh 8.299835061492033 8.50846258500249 12.964732809611439
Rh 11.786894671604191 13.667618749686968 11.867020392258844
Rh 10.031160463213192 7.445355391583821 11.491914686714027
Rh 12.532082549807557 7.330259587825813 11.92704134816704
Rh 9.784934332521946 12.45475498365881 10.973992527852133
Rh 7.655582218627727 12.263978961072915 12.387470161437072
Rh 9.632819963222468 6.200540631514515 9.311471252992524
Rh 11.71205414401339 7.774736404117681 9.461689083137697
Rh 7.774414087958551 7.730716166946584 10.366553947979073
Rh 12.017137040826345 10.374357729795294 8.886525056986049
Rh 7.530835067956331 12.152646068240525 9.822418844356399
Rh 11.766928676168103 12.920673386660505 9.390404049830767
Rh 9.57087907269668 9.173002266723781 9.065554156431478
Rh 8.026697347231087 7.483208319646113 7.78508922744973
Rh 9.67496597578951 11.830858099333884 8.40744432228434
Rh 7.149533273723327 9.782202302056394 8.814044449109579
Rh 10.573627054462692 7.438569853934158 7.200976804967276
Rh 10.709620390514708 9.816797683187781 6.767609548975246
Rh 11.807723656504123 12.09555627896559 7.011218522511185
Rh 7.40763314710126 11.83024909905319 7.313404149332839
Rh 8.204075619585272 9.602944918691156 6.447567784743565
Rh 9.4618302545153 11.74279979304058 5.766215249865312
