30
Energy = -170.87555725 eV
Rh 11.856731993624443 13.293483076221452 7.038431302328914
Rh 12.06574768683082 11.17955196635391 8.195585503124452
Rh 8.1112344656791 12.58575307659344 9.947615051479545
Rh 10.349875108923174 13.159261812261537 8.948596004220853
Rh 9.600013335966068 10.665940424716867 9.135915441883384
Rh 13.597923737062512 9.334659133882804 7.694618205379513
Rh 13.571683878539167 14.264573698707029 8.36845557487161
Rh 11.236543501630742 8.748102438048724 8.535350858359601
Rh 13.822910223290162 12.223519502769124 9.646416082173292
Rh 8.87923668838867 8.139960319058138 9.436203932806183
Rh 15.300054886708168 10.335179975493165 9.172744352274453
Rh 11.439159492539133 11.63667197995436 10.839164692044893
Rh 12.140088554593872 14.30518515798503 10.286344287086587
Rh 7.276147498456203 10.00215721994033 10.145437426429309
Rh 13.07064601909981 9.598427251363757 10.229773719896686
Rh 10.680521606316399 9.062831725701619 10.991959378461567
Rh 11.096000289993556 15.763234149706387 11.860263729042737
Rh 8.887015970768834 7.394960278173666 11.782662291138369
Rh 14.608653977553777 10.927537626183938 11.73450112356652
Rh 9.005703749998073 10.997041805082427 11.69689125694096
Rh 7.401738762402519 9.12063734597637 12.428350703113006
Rh 9.865399763759113 13.497596344808715 11.62496166423155
Rh 12.405874189986143 9.908471421144226 12.71536462393238
Rh 13.134214545079436 12.862086509417349 12.237582700494345
Rh 10.652486121163681 8.279498620125198 13.40819405949495
Rh 8.966217776903093 6.5918507363403345 14.082105421708533
Rh 11.467781028693487 14.070016298203518 13.525484282058
Rh 9.161952474190105 10.006232195404293 14.069732102581087
Rh 10.816340586261504 11.65491393841637 13.444695959943214
Rh 7.476261541816849 8.334823428183759 14.720757725151808
