31
Energy = -177.94963763 eV
Rh 9.54799258288508 13.664173277258605 10.619612853955184
Rh 10.991954813759545 12.765367085231194 6.687828239495728
Rh 10.630561740920532 12.30096665594857 13.381921072938182
Rh 14.18039572685346 10.588987668108325 10.031611384733297
Rh 11.021696299552653 10.161235197120334 7.0263046091853765
Rh 9.05092887772604 13.737857540853058 8.191365319896555
Rh 9.863108604909712 10.87593777967898 11.50947172855722
Rh 12.823704527304844 11.723449451595707 8.193752135558633
Rh 13.666553981061474 13.151467634721993 10.148767620917623
Rh 8.029910725480503 11.777959333613278 9.637342428165676
Rh 8.8454404701716 11.379678354781177 7.2292293112333255
Rh 11.538328628889303 13.890132246399332 8.986933675781422
Rh 12.089080852962603 9.354848385840851 9.240946576146719
Rh 9.170744715230825 9.44576034714471 9.042601418902521
Rh 9.502864301543285 14.476063755365736 12.906345528178704
Rh 10.91405376929051 7.740741919372603 7.752710962509536
Rh 10.597914634707987 11.600434244258965 9.24404390094522
Rh 11.7794104042658 13.952698466643476 11.676037193521537
Rh 11.978386366507284 6.8619563901008 10.063825744792231
Rh 9.399767788924049 6.903169455205835 9.533053603905746
Rh 7.982171110906178 12.402340663246214 12.291017498524855
Rh 13.032869743501655 8.976293426872695 11.600696556875985
Rh 8.77446494150621 10.351144749274166 13.734121136640498
Rh 10.47558411316279 8.481570189044103 11.250838910635538
Rh 12.337344125759595 11.481507159840136 11.538442145631278
Rh 11.360999741405934 9.816831564714164 13.382929125060796
Rh 7.537646181314619 9.957896167072676 11.312316032283553
Rh 10.023826269844873 5.9922567533745985 11.878074034390414
Rh 9.499620510717408 7.99318194431388 13.651981012972056
Rh 11.998173290893208 7.209303247133982 13.006663041706808
Rh 8.048321128443861 7.626910528117455 11.622793760362319
