38
Energy = -222.65815373 eV
Rh 8.006644400432744 13.116268352673051 11.212819248576261
Rh 11.631094295460926 10.686139220777964 6.974133758069397
Rh 8.179153740339112 10.905343026651494 12.410855513585869
Rh 8.364269235834813 7.240926076615127 12.755971358441213
Rh 10.801776211653534 6.7133429047653035 12.004709011578722
Rh 7.706716322923199 13.18775837391073 7.1015844384578815
Rh 5.454956688530765 7.443184111058924 10.013298281005012
Rh 10.2334257583365 11.770469796772762 11.222033021587974
Rh 5.550465506875361 8.196606742401272 7.269606227044715
Rh 6.41428369646306 10.861265055199368 6.956375128100174
Rh 7.688648543609301 6.220695484133635 10.507886058668403
Rh 11.902333811303574 12.537316041684287 8.827770276327415
Rh 5.866913926390886 9.817607705705619 9.18104299400354
Rh 9.997408974256267 8.761302878336549 7.610633264143676
Rh 5.939264146068676 11.195795563780521 11.349014316506405
Rh 7.765584703350355 8.818921756479513 6.232578791808688
Rh 9.37988482052651 12.75993979003819 9.01333928169749
Rh 6.877713107475152 12.116851608246321 9.21683203047651
Rh 8.636751857642963 10.279520945471926 9.671435951252239
Rh 8.677292714837806 5.878117550730564 7.9466908420513125
Rh 7.156495073757177 8.862804200119967 11.314572149560078
Rh 9.894112859418602 9.169114767978193 11.826946716435048
Rh 9.647322430400571 7.03914094397926 5.766734728149412
Rh 12.427222619300668 6.274198174436558 9.970826383041857
Rh 10.138720543985933 5.084783557033586 9.927334774567132
Rh 6.212245362084964 5.755329876926874 8.317054582152045
Rh 10.52136958156108 13.022512523696756 6.772741396579871
Rh 11.966997112961984 8.195054603726637 5.962015621790982
Rh 11.245590385625798 10.264901986867805 9.523384017241446
Rh 9.02937242260005 4.913602401141309 12.200632589012718
Rh 9.984726976770652 9.622107715216867 5.150810842978569
Rh 8.96131495681396 11.044052283691299 7.014904337675218
Rh 12.498128107504115 8.391732627001737 8.433083402658783
Rh 7.660078542171262 8.071621669761901 8.700215229824801
Rh 11.166148981864302 6.28353452447031 7.760793813113833
Rh 7.1400328384938945 6.352958495734906 6.026702726578026
Rh 12.292614255862786 8.556059321886245 11.053160136795986
Rh 9.99830641701338 7.604499271398275 9.814858688963433
