33
Energy = -189.85941598 eV
Rh 7.041011978609929 15.340739083744435 11.624236509805135
Rh 13.596690215274537 10.058110333377362 10.357649144915422
Rh 11.950036356135644 15.781559580870637 12.798174548416608
Rh 13.823827680973793 13.109912832122367 14.253667118088963
Rh 16.076423965402043 10.068861789421437 9.981748056590616
Rh 9.988974153505051 15.773416048037037 14.461161779360088
Rh 8.724669398792914 14.724167208129437 9.841569531790327
Rh 9.544115560460192 15.880147304596068 11.885246048126824
Rh 14.43880481302974 15.457789810600595 13.784170936033227
Rh 10.41099013121582 13.249991835760719 14.81175026034688
Rh 14.29892244475887 14.527212371753484 16.39729425901708
Rh 15.19851811906032 12.46476824907388 10.261098406740274
Rh 10.015956521793804 12.605643113661545 10.470610448432488
Rh 8.562361097730951 14.045816740032745 13.205930855750236
Rh 13.900975560228739 11.692327774657091 12.211994867775005
Rh 11.378714934409949 10.74299840294551 11.466551880533629
Rh 12.560151679723486 12.522768027256042 10.0416735649812
Rh 13.00617281413273 9.196455962896428 12.770053058198501
Rh 12.51992996447817 12.431105648722841 16.242392502937353
Rh 15.500264068133722 9.78696220580657 12.47066939793891
Rh 11.624641903964784 13.25609628224373 12.525420728554812
Rh 15.208504027114367 12.14070337972984 16.315845760268285
Rh 9.487127975208805 11.741528194751119 12.876431064941428
Rh 11.326122727252795 14.768866566175452 10.439566879152922
Rh 17.125720899472107 11.582266250069017 11.70375676499465
Rh 13.678215356989801 14.382423169230487 11.46001404914846
Rh 15.855805368851149 13.686241898189609 12.523553306930726
Rh 7.628168395204067 12.873897842399215 11.229892738997117
Rh 11.796884804265398 11.167082500692354 14.015953266901818
Rh 12.222537065176322 14.973056445700564 15.20434581966848
Rh 16.208042720682993 11.717967624592786 14.04824282556533
Rh 14.136421718317752 10.431931006173398 14.725299763931467
Rh 16.425408143368074 14.108062431523798 14.990577816723219
