37
Energy = -216.44819432 eV
Rh 11.274247063846888 9.504121063782026 8.99979857013834
Rh 10.733737131785778 12.005196196330349 12.722795588183741
Rh 13.280345075953834 11.992504003524417 12.496117092933229
Rh 11.107834339084842 7.928293683204611 14.657761538242426
Rh 10.155522565539899 13.852701610193773 8.8042619139355
Rh 8.211245665096436 11.672139094401242 8.34229568781782
Rh 10.958537994049172 9.704373185749526 11.584047292897537
Rh 9.561834270046607 7.192200769149074 12.849629436144228
Rh 13.598425143305759 9.449490959956934 11.670504718603853
Rh 12.162526358163344 9.999473259941839 13.724537207863195
Rh 6.273963260102944 10.365619366595993 10.59637045157728
Rh 10.662347029333548 11.706564273976113 7.432535730206448
Rh 13.073396488172172 10.667126308583166 7.6124493093073875
Rh 10.31478581279675 7.366447048233987 10.348277697703677
Rh 11.41113924753664 9.325879679772378 6.189771188030623
Rh 13.372950839024682 8.165166054430872 7.362368797444643
Rh 12.837196365871167 7.7519420342123135 9.839660768637346
Rh 8.050864003891611 6.313369033267078 11.03807757052408
Rh 11.814209887192446 13.501078527369712 10.891782618566454
Rh 7.785474464823118 14.243573388106716 8.48891629975934
Rh 6.944429915301017 12.660244120680233 10.256168399507374
Rh 6.789475315435345 9.484789629615976 8.242846870866822
Rh 9.278151726513427 13.70429110784898 11.334361120162537
Rh 7.381554656001555 15.057820804259398 10.807359314404133
Rh 7.637807042731275 8.67333872857546 11.979013427603379
Rh 9.47638102810924 9.631052612408109 13.563204306706007
Rh 14.596150354583449 9.472214745437944 9.326059146823624
Rh 12.564233940609281 13.08643179891717 8.378655133791344
Rh 8.363922844693043 11.296315768240014 11.937378030600122
Rh 8.293401242212719 7.411169680855532 8.733405530018377
Rh 6.115198410547316 7.801446180784696 10.108174279234735
Rh 9.179830902654027 9.55183439975624 7.327112878889601
Rh 10.20768440690945 11.667945805047708 10.061014082792704
Rh 12.886458370581844 11.254930567703 10.103297374969461
Rh 10.73783864638212 7.396986461419947 7.774597730274103
Rh 12.015462311426843 7.478251034794326 12.290101582304775
Rh 8.76936574949357 9.541606882675765 10.00322118233645
