35
Energy = -200.79793546 eV
Rh 11.107004568204177 15.408646159480515 10.658224597523393
Rh 13.403413428093781 8.761678517666786 8.850349898333485
Rh 9.108462976960942 7.115766092406789 8.813179221865807
Rh 9.606087976369569 13.71000662724662 11.814460929695242
Rh 11.27383804912455 9.377411878964626 10.011111236059385
Rh 11.48507894794484 7.066955100270206 9.061743003471207
Rh 7.540264576875286 14.34555567233087 8.239782864865699
Rh 11.538612289451317 7.087090216252091 11.539880710004411
Rh 9.08363330709822 9.532266548059802 8.749537354152244
Rh 15.377899842447418 10.261354630048736 8.748779141449962
Rh 7.8268636997148295 12.162076698759972 12.772526276620514
Rh 15.32723044663621 10.747952661078104 13.49140920829113
Rh 8.904454157865734 16.095425224483996 9.46242248248501
Rh 15.20582198925435 10.50602260109372 11.121992307328346
Rh 11.266596230423069 9.419912260201338 12.963254078188372
Rh 8.217808883226041 11.82937990004289 8.49763194924279
Rh 10.772338093072074 11.469570252884619 8.606273447812795
Rh 6.269861065984219 13.986366347065061 12.547278087739425
Rh 9.209573292394294 8.310364011008815 11.006467491419231
Rh 7.407864221376527 13.180858987880065 10.440919294418281
Rh 9.641159079618316 7.4385567805840695 13.291473954757228
Rh 8.68324003659792 9.801966321370541 12.95729657306571
Rh 13.27751777852436 11.380453889970031 8.395143247298122
Rh 7.949541486735135 15.449138703952913 11.592154394574992
Rh 13.679066851561792 6.568595425280629 10.211735343357983
Rh 12.917623005990624 11.282371689135191 10.93736942316372
Rh 13.701180246795253 8.979246898016363 13.754497647725643
Rh 10.35666103312108 11.742200828172674 13.191348179485333
Rh 9.340320990287577 11.162804389884414 10.8111044211885
Rh 13.509533514052999 8.793722002714718 11.362154303184198
Rh 9.811538052340206 13.768741033216173 9.222782939909363
Rh 12.046558981986243 13.37485966994595 12.037040243720499
Rh 12.060040646663595 7.1888370420711984 13.974159560046342
Rh 12.277593788817041 13.370333750436494 9.535941182858679
Rh 12.913542774518948 11.42133749815194 13.426401314825704
