34
Energy = -197.47360452 eV
Rh 7.8495812652677595 12.68995402216314 11.628845165157008
Rh 9.147489424869299 11.29795536350009 13.489072552630804
Rh 7.22815216668122 10.16141102099814 12.160717420280712
Rh 10.132870557472682 13.13089667473791 10.060969042752628
Rh 6.094273957379357 11.167883598970372 10.150655764653633
Rh 10.808314622542234 12.930799152441097 12.49376406829446
Rh 8.011388039918387 12.389331501670343 9.010118783149856
Rh 9.258843290713214 10.81050507353859 10.916767148907255
Rh 9.58580521260697 8.941446173588375 12.809726663312036
Rh 11.601284930807257 10.481103037483132 13.397244432087366
Rh 7.538405704503538 7.509023063474814 12.307907424801472
Rh 6.430846633240568 8.537075901632788 10.262267364111933
Rh 9.968144792784617 13.074661712816386 7.501613111013837
Rh 12.532544398126745 13.754943490143697 10.628618255259799
Rh 11.761324381887558 11.076721869066779 11.004727160683267
Rh 13.393031082536359 12.361920661502984 12.568253965106626
Rh 7.813384247457679 9.937107709499227 8.717217016991924
Rh 7.107683010874343 7.6693105994507835 7.874518852488158
Rh 7.494868672862832 6.199634891940552 10.061222174446696
Rh 9.013116709468678 8.231252350828198 10.288279404334435
Rh 12.02610718336134 12.157483964148659 8.655222302620619
Rh 11.008942324144742 10.81813396505238 6.744449755833512
Rh 10.633729779426588 9.78344652418862 9.011291829956049
Rh 10.062699698358287 6.6169253263067604 11.894803630636384
Rh 8.478945455241908 11.20511253241227 6.676716951030354
Rh 11.886377174612818 8.425421675818093 11.835421223632515
Rh 13.906814278953291 9.897992391654888 12.043140871949568
Rh 9.399828011000098 8.76304906365188 7.065802075418164
Rh 9.35828134781589 6.5841271624373725 8.345693588092217
Rh 14.08890631336564 11.658736490743658 10.031701956646534
Rh 11.346614208481814 7.294528807905032 9.61558365589286
Rh 12.070336543742958 8.467755852789134 7.410051377098996
Rh 13.567208986156746 10.544175870509454 7.523233224676477
Rh 13.119409461539103 9.201150796243816 9.665899983651789
