38
Energy = -221.1131918 eV
Rh 9.716070671871858 13.370604832776241 14.485419717323758
Rh 12.19812112730668 12.818078941681115 13.704549117904156
Rh 10.531470469046566 11.026366509436553 14.863033596636347
Rh 13.02059669174373 10.439430341238989 14.381567989277029
Rh 10.757551835008634 14.719600970896115 12.54605544669229
Rh 8.223685650957353 11.401609659962144 13.458393720597423
Rh 8.242201064399907 13.803043812600693 12.417652627989305
Rh 13.360328475935145 11.139888043674876 11.992064366916436
Rh 11.112728465638385 9.835880131175 12.65495296935312
Rh 9.011947963398557 9.070727398691245 14.254904477977743
Rh 10.266678454624081 12.12933051523148 12.22533217617353
Rh 12.281424688506261 13.316175618665723 11.016610485960022
Rh 11.445025150732189 8.504915452362887 14.865959400399358
Rh 13.14769519649253 8.459195925989892 12.544173743410758
Rh 9.779993608863693 13.739040259305625 10.2906003221789
Rh 6.679015150939395 9.504286127685027 10.419506823494713
Rh 8.77297728570624 9.369908655748425 11.784864692663605
Rh 7.963623898610233 11.733169702539175 10.857660731117946
Rh 10.207462455638037 7.418363352885888 12.714752596879086
Rh 6.546961076288347 11.372589870857302 8.723585589116032
Rh 11.466185878710535 10.979750675238543 10.221502215156647
Rh 11.198567930365805 8.300717212343875 10.519393467919144
Rh 9.279153327934713 10.090136619882864 9.275862144145421
Rh 13.637103648719656 9.321604499620605 10.233467707735043
Rh 8.855797087883067 12.400546215296075 8.403520831475618
Rh 8.598931131491263 7.694135068449461 9.857435003117146
Rh 7.267157543951673 8.981879192917283 8.005227500953795
Rh 11.75248989264048 9.378090646428225 8.171516874193365
Rh 13.747477594350654 11.798472592257134 9.41917405454904
Rh 12.960822705526004 7.269002094729399 8.883215536732164
Rh 10.436648348687259 7.127690132075484 8.297863847734718
Rh 11.453141015981913 12.847566815933492 8.538606262265425
Rh 7.906502523954738 10.955147780536459 6.491699360771426
Rh 9.478439452258314 8.933536371942909 6.876245288580731
Rh 14.288412703112215 9.432474623616054 7.852289889039884
Rh 10.43834309749695 11.275478576030956 6.773960017126779
Rh 11.763975039156882 9.38772359091815 5.694809844945554
Rh 12.916246666477411 11.372255135336461 7.00439193328011
