33
Energy = -189.13484513 eV
Rh 12.300742039602214 11.476077580514206 7.830481852561299
Rh 12.778052349574539 12.235406989140687 15.377758434371021
Rh 8.458566782433572 10.455179615222978 13.370665046043717
Rh 11.254989034144051 7.897613486280166 10.328349554828756
Rh 14.26853838679359 10.840341671257056 11.69231182466423
Rh 14.579263551180329 11.654032802956197 9.272427518543333
Rh 9.205924551544204 9.19371414550092 11.285732139662093
Rh 11.302311705465074 8.751929971631533 7.884851852865638
Rh 14.429570527777377 13.322274400554441 11.310433644376747
Rh 13.499947154062907 8.334601728237299 11.71541748430064
Rh 12.096759019506058 12.185874076324927 10.257497007829294
Rh 9.790310113854133 11.790833501649285 11.569233546990002
Rh 8.867660352487118 13.004209780109335 13.684615423879785
Rh 12.991089027458088 9.688043542129796 9.476906402228014
Rh 8.917965207568004 16.522884897825044 12.225501397264235
Rh 13.344116159056343 13.902137846818894 8.937067815417432
Rh 13.121722186557658 10.082032225923486 13.886264014018984
Rh 10.410598294462655 10.547959265971302 9.38522621540695
Rh 9.949804769825242 15.34796563343665 14.062515613124164
Rh 10.686342823802745 16.3121620359 10.545115925645678
Rh 10.030694964715517 14.253010216892699 11.8302753787737
Rh 11.627646447105725 6.979542840854014 12.600762820689074
Rh 12.259059105239443 12.512591060150568 12.739321318195527
Rh 10.721412732525609 11.217674643247271 14.28054197508452
Rh 10.785837844828528 14.138057280496195 9.334828624057053
Rh 15.338316554019213 9.258929464053493 10.142541959189309
Rh 12.311378069242348 14.545398464313152 14.116778362108404
Rh 11.667732877945337 10.109059582131737 11.808872041481331
Rh 14.610324884262274 12.313301663793814 13.704154761535493
Rh 12.445924522739478 14.756890852630853 11.377141006718414
Rh 10.541505224470294 13.40276196057394 15.567484569227377
Rh 9.130360254071167 8.288827176033719 9.009339653990112
Rh 10.407457475176681 8.810604590943571 13.521509808426368
