31
Energy = -178.06898232 eV
Rh 6.850463291081826 10.19405113187899 12.142980930845916
Rh 8.156038824933088 10.240176398324174 14.309236956830949
Rh 7.642475088690833 8.64721116524091 10.246892737702364
Rh 7.5736941807779425 9.85885421099887 7.943298155500144
Rh 8.443816409440727 8.034148622288008 12.754789895891243
Rh 8.070092705257085 12.669077086762446 8.142206729644675
Rh 8.821135595327243 7.585183806287712 8.215406554256232
Rh 8.653358853717107 12.449521737911962 12.358779904291177
Rh 7.829960413767858 11.271470332992045 10.157915273434599
Rh 9.45823001154985 10.167192180753814 12.044974654654562
Rh 8.962646488720726 11.654023709089227 6.014280483568598
Rh 10.380864131314233 11.567491438973654 14.105330378296943
Rh 10.38305580010973 8.99482560823059 14.359587135176438
Rh 9.247394747154885 6.611078069741801 10.726111246693778
Rh 10.109699313381057 8.820805384026631 9.915876434624685
Rh 9.806126128970567 10.786915827876356 8.340559689647197
Rh 9.715433722456407 13.093923390227141 10.06340217294159
Rh 9.418889165924316 9.122712767132091 6.2644236964789215
Rh 11.021228416662794 7.973953938850326 12.114188041822116
Rh 11.2052528222231 12.991542112991429 12.152577857361248
Rh 12.105380251694074 10.23666905844165 12.742893226038364
Rh 11.358254522949489 10.786373701082457 6.08195811272245
Rh 11.223228590519394 11.128756478552182 10.525435765471455
Rh 10.821400841327875 12.924831830668728 7.62316412266548
Rh 11.940379996495421 7.215854827287583 9.836551459401218
Rh 13.454411521906957 8.426146693668427 11.506384492497329
Rh 12.332957435978743 13.242426934455477 9.717365403975599
Rh 11.462522896378688 8.724560275523757 7.744519619652566
Rh 13.641799304154508 10.850571403649786 10.656950694954128
Rh 13.70285795117178 8.891126155359828 9.004354039128934
Rh 12.504622927547478 11.02930936943046 8.340276634320373
