31
Energy = -176.84717263 eV
Rh 12.956392938292744 10.715509467345298 6.971392582663143
Rh 11.474023067702051 8.39398907541161 13.158404847507063
Rh 14.941597978765389 11.08463305846428 10.543503603469569
Rh 11.040840327584052 15.15229733633302 14.099649076632122
Rh 10.878163871309333 11.576182490224753 8.385596645342867
Rh 8.319999918338668 12.210139265528015 12.85920592741049
Rh 12.732214387802179 10.309988803157271 14.400716603338529
Rh 10.169176723075983 16.667490593621274 12.365166019678886
Rh 7.471893684466069 13.594746052480996 11.077198299834725
Rh 9.60162941602255 7.257204374103099 10.144915954855007
Rh 8.697200553513323 9.920587506899512 11.92432385170469
Rh 13.24427261179338 12.263000550294533 8.926267170000752
Rh 9.448858149048112 14.881358346571242 10.987191219100305
Rh 13.054626739772388 13.646313241431747 13.669777180685234
Rh 9.243923559875562 7.650982924676486 12.512309047741399
Rh 11.475386939912935 6.844601846340995 8.604180817180465
Rh 10.603811726599895 10.7364923019681 13.147457326318396
Rh 13.342880354704278 9.682834684084021 11.942550869214859
Rh 11.28462356242354 9.056121648411727 7.708123754581001
Rh 11.351427243247858 12.41101060542305 14.884136681283342
Rh 11.81988341497979 11.403651096685614 11.058149168586176
Rh 14.505367712866704 11.648452482457516 13.11463088626101
Rh 10.543656050405296 13.331540708811499 12.533346949985802
Rh 11.982365254435773 7.902943771479698 10.749634090747854
Rh 10.225618426494547 9.629126855458503 9.924868440051442
Rh 11.36767935917174 13.720753011962863 9.865640099983175
Rh 12.234861202028481 15.189421570760747 11.870832169262018
Rh 13.089619465200707 9.712765213780735 9.347124375606047
Rh 13.87359372693145 12.242961039979027 15.559700132250837
Rh 13.648413460334982 13.158376745898442 11.239548862627938
Rh 9.375478788578194 12.004003945632146 10.42393796177333
