35
Energy = -202.58049185 eV
Rh 11.051057001736783 14.483164560350165 12.26723763344796
Rh 8.843794211580336 11.74250184138512 13.545041337979754
Rh 11.248679127809234 14.78042260274395 15.61975372794338
Rh 9.257309185053717 14.281120074519633 14.00145419749422
Rh 13.016122476166686 15.273017756958877 13.800282859386625
Rh 11.430634097679338 10.49538863895115 16.633925093641693
Rh 14.10193574168359 12.09596799872618 9.406530405209311
Rh 15.893296994086318 13.209065153455787 11.751213595417385
Rh 11.154110512744912 11.435004850660903 8.051831400042724
Rh 13.274479541089226 13.052110498357273 11.569734007214016
Rh 12.604871324020294 13.549362702779122 8.100831581848514
Rh 11.059796655406942 10.206696071829503 14.260282027571872
Rh 13.4809980574558 11.628513352850351 15.699970771693518
Rh 10.457814507906091 8.739805888174395 10.065276333258218
Rh 10.978470385384334 13.156693917709015 9.958617854462016
Rh 14.31969678141898 8.567613723198944 11.792460790439122
Rh 13.801047050472237 14.177515404320008 16.0039469706069
Rh 10.13411057238643 12.41517928873458 15.546974452597432
Rh 12.590935063449848 15.068715008840673 10.13053025751135
Rh 13.400147381500272 10.87446687393818 13.19996268542195
Rh 10.92418115462396 11.78980665347674 12.175967387850989
Rh 9.459869229226094 11.066949211344108 10.128768157673273
Rh 11.976480577522844 9.014862955370237 12.135882168991499
Rh 12.089202125330615 12.905905273262329 14.121240285769218
Rh 13.526267445312113 10.971602599739112 7.260044361187941
Rh 12.015797281696045 9.027357099876049 8.150332693940571
Rh 12.362781342602792 16.74693340050693 11.972416490681896
Rh 12.125594585188486 10.645598519408347 10.208937365951792
Rh 14.18768442598546 9.537167643949328 9.445913356270113
Rh 8.906075196451138 13.26153932768672 11.493470740419964
Rh 11.922904227414998 12.951729931346451 17.279278100172306
Rh 15.111200190728171 10.922623112514586 11.398449956797691
Rh 9.505737008632824 9.575957975805439 12.3362694084199
Rh 14.489596262763481 15.271596625030261 11.752049563846223
Rh 14.670852667405406 13.100039278206596 13.884312050427877
