36
Energy = -209.77107964 eV
Rh 8.358505094986125 5.97132297268557 11.896996065527967
Rh 7.521588264286354 8.341798014038002 11.050428327962782
Rh 8.067403440662924 7.871150060354836 13.512389230725777
Rh 9.711693381578849 7.153227137846295 10.165292665706291
Rh 10.422954821636509 7.432780934548994 12.610849153076948
Rh 8.762816352940323 9.098783589385462 8.86972362152674
Rh 7.482754720826049 10.878353333055864 10.260774139068765
Rh 7.707914049762131 10.29154808489701 12.818500213967356
Rh 11.15413271931633 8.008708497122766 8.233133887398377
Rh 9.69627414210429 9.695213073772859 11.337473293369738
Rh 9.987532346477227 9.551891132377529 13.935992656873115
Rh 11.884931005883733 8.435750957567196 10.691255782733052
Rh 10.182442423245973 9.896361334214996 6.798500743843213
Rh 12.507701337047362 8.954774238362663 6.2992340073275646
Rh 8.85299840177758 11.632772424125829 8.212768786884189
Rh 7.545395935029693 12.71577730211444 12.003691436414123
Rh 12.392970041257326 9.090827465641155 13.106897567937757
Rh 7.5865914102436625 13.421328862314676 9.56345081918858
Rh 13.310700071081543 9.407953571570536 8.705526109663358
Rh 11.029914133565867 10.51014290722006 9.200015561362555
Rh 9.035939193639468 14.151374112422864 7.681705652725241
Rh 14.343238587595934 10.647219028586868 13.72083591180318
Rh 12.375649828752039 11.312090470682813 7.188373686399873
Rh 11.904645544918521 11.328974015220862 14.283166601712937
Rh 9.692716319811945 11.984399901988793 13.160619729795824
Rh 10.287010692147565 12.418593409460966 6.255591744717383
Rh 14.000894070245145 9.917161900035063 11.183749368576029
Rh 11.810451358850276 11.211131237341315 11.731194421989384
Rh 9.674653460995648 12.448606425278124 10.633144959773349
Rh 13.288108067601724 11.885552451172268 9.540025210704675
Rh 11.127104498660202 13.142195616370321 8.627947200083847
Rh 13.748792859708406 13.093389892258953 14.366722179712891
Rh 11.410056510209035 13.7446443217518 13.469898996479463
Rh 14.124242343080551 12.41984532711055 11.928451670018102
Rh 11.982894321156893 13.640316619773433 10.950490974697551
Rh 13.518896816872465 14.84834489987223 12.549672375689813
