37
Energy = -215.94034458 eV
Rh 13.267717454108515 11.265815053188728 6.9921261881022865
Rh 11.552537231264765 13.138975755330724 6.39145023289596
Rh 12.431027378198808 12.919990989056226 8.73606820037777
Rh 13.943753197688167 12.809855884909782 10.834509752318167
Rh 13.937032594363185 10.816840575719368 9.36232010124489
Rh 10.08515278276053 13.93559867935019 8.285932699496271
Rh 10.798069453312655 10.833546791479153 6.808517927043459
Rh 11.482601413201431 12.575640279106072 11.191535544984742
Rh 8.63449623773411 12.230128568146688 7.225464972701482
Rh 12.208667603629948 9.243946256994093 8.285112109620771
Rh 10.308934953108258 11.523794382746319 9.141745352798337
Rh 13.981966721592547 8.377960512449924 10.047058983879552
Rh 14.01199961539292 10.35515221153789 11.917338868725128
Rh 9.853021587359121 14.368363331384218 10.620737467847544
Rh 12.966490933413032 12.427216706292425 13.195606587928754
Rh 8.74010518734279 9.60135000199316 6.85053300020289
Rh 11.23367331460054 14.548622765846664 12.793922004457656
Rh 11.81588296685865 10.020209705503142 10.696302060220743
Rh 11.65654711386612 7.305828075096507 9.912272203573542
Rh 12.544535682509196 7.965034934914389 12.163963859622354
Rh 8.638518563020495 14.05970507061799 12.809340790149731
Rh 11.904899782371846 10.167450237214558 13.345462736946518
Rh 9.81838039959091 8.951124354742317 9.28603167480373
Rh 8.38371506286701 7.303617538855569 7.4654134967095045
Rh 8.577178839399389 12.244186802200382 10.986656930303875
Rh 7.911263965614086 10.601100182943918 9.03278137961854
Rh 10.356890615773596 12.373868960185193 13.564323210376935
Rh 9.692779132425947 10.19663443930634 12.05235044731536
Rh 9.319374908771762 6.420749476612254 9.63815617750161
Rh 10.64069440500407 6.189910625176695 11.965211141116765
Rh 10.333357368169247 8.15221937895413 13.543253163075036
Rh 7.870243077443342 11.556518851212555 13.429449603337408
Rh 7.289559101968755 8.131938567875947 9.571699951211292
Rh 9.751524681085156 10.289868448872921 14.801523257357353
Rh 7.244851711258233 10.027213608728827 11.415935718132037
Rh 8.734203129055714 7.854938220675456 11.621643136189203
Rh 7.807820886653005 8.944552827557134 13.747718120591632
