36
Energy = -209.1176535 eV
Rh 7.353247634499671 10.567842023582074 8.627833558152743
Rh 11.98237191522437 7.438056440602885 8.190730379489539
Rh 12.412691448426003 11.245925233889803 11.366192451784285
Rh 7.93602298339976 8.88938438183866 10.359982550686567
Rh 10.968844179713697 14.790209661757636 13.429053107047018
Rh 9.839117475551058 10.558974567973186 10.86528412053899
Rh 12.776114828003134 9.43014482750653 13.002930716425961
Rh 10.522938893848648 12.315547590590723 12.78824258902446
Rh 14.380035182226267 9.64856046940004 10.89405622539314
Rh 8.190180857194543 7.95930536842096 12.685275676926047
Rh 12.039865534970144 14.864751266434306 11.10303435903492
Rh 14.478616074461065 14.054596152199306 10.933225666721599
Rh 11.125918767997991 10.52088191724873 14.519584471675957
Rh 10.272629782619244 8.12615601881551 9.889182028275018
Rh 12.973443650850989 14.10009646074422 8.816355548993988
Rh 7.38230405710496 8.209781250604685 8.039458940581858
Rh 12.173005274287169 11.908800642334084 7.877645530216494
Rh 9.686978150334644 8.339574499506954 7.505520151738762
Rh 8.069853757965436 12.173747424276334 11.980443173268426
Rh 9.892101262190428 10.725055822222151 8.271625201121651
Rh 11.054072929345462 12.906044981833814 9.931422756982165
Rh 13.738468406952059 11.338757593275952 14.358580515958007
Rh 6.754525090011578 10.091772414980982 12.109927060658094
Rh 11.698091024325135 9.684203269431059 6.815560483620045
Rh 10.566292918683592 8.462673749341926 12.343936077687642
Rh 15.28878087767003 9.670817372840174 13.287812804739692
Rh 14.97185367371139 11.857541756992179 12.066654682007941
Rh 8.990105733311392 10.28515089394791 13.384201360327607
Rh 12.578244200185766 7.792295101954304 10.940728216328415
Rh 9.476098586464826 14.244318065289221 11.411214289393854
Rh 8.605040802972546 12.566041091559864 9.562857435418783
Rh 11.812810502106016 12.848124600664827 15.030663444938144
Rh 6.162589470040507 11.848504004782527 10.312967134603166
Rh 12.311054797140631 9.726835429156216 9.30986222832551
Rh 12.97623145181865 13.292290021052432 12.830848382295368
Rh 14.018126622114305 11.911666161818697 9.617612155999058
