48
Energy = -286.40473886 eV
Rh 9.289010801521702 7.7574373587918615 13.104602185768881
Rh 11.024283869573491 8.705229510022297 14.809799399700767
Rh 8.655375595042718 12.59602323237163 14.975975739176931
Rh 8.965656113677657 10.147737560691072 14.114592420658516
Rh 13.65649909512215 8.528442880775012 13.967435317449711
Rh 6.889102247759957 11.5129549814518 13.377091617741211
Rh 10.834104061185883 11.312221376615735 15.48174535293818
Rh 10.429794610602066 6.106253030097094 11.463004958958953
Rh 8.870225100823246 7.834348239271195 10.46054189352183
Rh 7.451820486978645 9.246376403771812 12.139429552717422
Rh 10.258455763098151 14.568908005146456 13.940676859192829
Rh 11.811715150191363 7.950682440031361 12.40694063322965
Rh 9.968585016438807 9.814391998558708 11.704286561600943
Rh 8.072628659795742 13.815377756796368 12.795137752221933
Rh 13.058991267865267 10.151488154309764 15.838452574794028
Rh 10.080050601618199 12.144210801179563 12.860730495433105
Rh 5.917092078244395 13.239803477974899 11.651472951229557
Rh 12.063350488934365 10.463445373641743 13.356199008122418
Rh 14.00291237664677 7.7355609854480605 9.053604321970239
Rh 14.237078944695037 11.907765441443088 14.634329075999224
Rh 11.516339229723819 7.745903575790712 9.876805952476465
Rh 14.193777585999282 8.273636167026277 11.528201281423208
Rh 7.407487538727691 9.79141620331804 9.547561039127865
Rh 5.546610989531326 10.639416378321375 11.326268382343242
Rh 8.126033515775891 11.650221147744627 11.164372621125782
Rh 14.408744479665232 10.743751823985978 12.451941930605225
Rh 12.41653850116217 10.042648304508225 10.808538509498629
Rh 6.257423745602205 12.164087891638863 9.342748507397758
Rh 10.003150499036748 9.713247829441832 9.065892667595714
Rh 14.851450795817028 10.043346766704285 9.821180643975138
Rh 12.145016058049967 13.069532302590586 14.260194196056158
Rh 12.470785459136428 9.562381898223729 8.227368728211374
Rh 10.647249938315149 11.918192187492286 10.296294869734801
Rh 10.369627684219148 14.250931585634286 11.394015216266627
Rh 8.640010509060271 11.916613026119663 8.616327006574918
Rh 8.00070700529239 13.98328413786009 10.176745144212514
Rh 12.665821028559824 12.668265939923446 11.842741608488417
Rh 14.86201853641404 9.553583920605616 7.296079941954482
Rh 13.052465924683588 11.988394742345815 9.186760968708276
Rh 15.017263089602068 12.477915474921032 10.675431146041443
Rh 10.971713042343024 11.690088047493203 7.640539925186512
Rh 10.209390477711468 14.008013782806685 8.803858129194898
Rh 12.494345432506261 14.37669175489242 9.944760910688982
Rh 15.462493631080738 11.928802039173588 8.154387101618388
Rh 13.354429082828254 11.466059773002142 6.592244792225062
Rh 12.517464750741679 13.816114456766877 7.434531400119729
Rh 14.72589292126317 14.280278792279866 8.774468490616368
Rh 14.792352502004643 13.500549912123304 6.304405047708267
