41
Energy = -239.23094405 eV
Rh 7.641656931170782 9.144276971205107 4.930309911394399
Rh 8.69109732964692 11.623192920513503 5.874667515917059
Rh 11.99412887547909 9.923668799062941 6.00557863390686
Rh 6.426660738502102 10.559961049562734 6.731922978212351
Rh 9.222191074376045 7.078164048625073 5.874155027518838
Rh 6.7401689227724875 7.3809940853683775 6.464527269949216
Rh 9.566449246581527 9.416188664287981 6.43757666122503
Rh 11.340886432095491 7.697027723394333 7.460726104390188
Rh 10.975887505347925 10.995195682359014 8.04321972791149
Rh 8.20351806560174 11.589034557088176 8.29074958531386
Rh 13.14061114788284 9.469972465866444 8.173953153682818
Rh 9.797614618222493 9.045558176786757 9.007860982410353
Rh 10.708391058678941 12.953233837861399 6.516580191449247
Rh 4.960871174604007 8.863621047853957 8.126025828985153
Rh 8.869273274179207 6.588170345063291 8.329884291375691
Rh 11.249644372983129 5.442211378857565 8.73529367502365
Rh 5.830821078695492 11.053799923429478 9.342884820568443
Rh 6.220583999123797 6.748646735963041 8.996572005504271
Rh 9.98988992499016 11.294022394484701 10.380340953827178
Rh 13.09690231112501 12.021947469949792 7.31147917012307
Rh 7.461146625478137 8.871444414030794 8.211233086291276
Rh 10.046291298711367 13.362935171108226 8.89694620049685
Rh 10.618453446675767 7.203620113221344 10.378389448079588
Rh 12.278112640482014 12.330029343083073 9.915332781158742
Rh 12.95955955153279 7.339602067255074 9.675223613754078
Rh 12.149440139611112 9.724705411367141 10.40753491886896
Rh 5.675757425071164 8.753506643255152 10.679699007787972
Rh 9.207512713647688 5.133266039190106 10.499088522301665
Rh 7.816222799237111 12.651921660562381 10.657581591143906
Rh 11.436985139268373 11.031840906848112 12.536538180244072
Rh 7.89286249036616 7.3446065641351606 10.801770727779644
Rh 7.814141530136856 10.01904327774128 10.42853959305954
Rh 6.18700543314607 10.983143616505572 12.05801231113402
Rh 9.847598784076393 9.172112305527971 11.730806541873859
Rh 10.310104781552155 13.38257029639372 11.587807141116311
Rh 11.99772600278001 7.999891293675832 12.412677223915978
Rh 11.772696550472038 5.343168184368857 11.433269108601303
Rh 7.545335631582385 8.881956690646112 12.864740154988873
Rh 9.583516955080023 6.863456595416114 12.75087281609813
Rh 8.75841976428772 11.292727195915589 12.76675555154328
Rh 9.859516017230302 9.311217734652638 14.158526793556756
