41
Energy = -242.40824733 eV
Rh 9.90887657250017 11.715210273935543 14.698625992498565
Rh 8.275637531792357 10.853839591843037 12.848780900699955
Rh 7.403110615479819 8.364649682865979 13.451558028673414
Rh 9.628363478678878 9.21114152171672 14.223491038307785
Rh 9.575639718224929 13.113476190763357 12.601972883109475
Rh 7.1865617912568425 12.851417476851106 11.50081933356947
Rh 6.740605995006496 9.525789824273474 11.383634788628049
Rh 11.562324363508763 14.074804277132966 11.127005200893695
Rh 12.046964258727593 12.822667683054568 13.37105295165405
Rh 11.968364815435917 10.153161755805698 14.554303671331665
Rh 8.493185394873946 11.20883886811907 10.171314591877985
Rh 9.45651351590988 6.860140133806792 13.25362204652771
Rh 10.809334199657794 10.943656298478196 12.279481054809679
Rh 9.53043322186626 8.998622335778197 11.011058943881418
Rh 9.144019258025937 13.768122402340591 10.158624118820649
Rh 5.951746768576291 10.869736841499158 9.425822683107489
Rh 11.461134506745768 8.355041973216489 12.65704466674995
Rh 7.138605217444623 13.003055557435058 8.7465651813762
Rh 7.989426557590809 7.087217540234435 11.101411756087598
Rh 11.113884598864827 11.980493532648381 9.79133107262883
Rh 13.39504352046697 10.010372753848637 12.548963781912102
Rh 13.256967171659502 12.127084594749016 11.197672617073696
Rh 11.025565065902558 14.409823705764948 8.530005963522633
Rh 13.357504184710004 13.592351868896582 9.117805528070516
Rh 9.485821598919468 12.442936134488058 7.881105205718038
Rh 7.6586697588192285 10.797201528044802 7.450492261266551
Rh 7.619108224977303 8.885339825137034 9.153107105403599
Rh 10.65529639456221 6.685306434819564 10.958800332671997
Rh 11.993792289682712 9.658529379041394 10.35026411521409
Rh 11.954531764587705 12.222040071372847 7.30764516547796
Rh 14.990663366378882 10.02894937558692 10.661412935660367
Rh 10.058666995737203 9.787427214928709 8.534517870774765
Rh 13.494515795562286 7.802894742013683 10.995926928737783
Rh 13.610790589899118 11.039280517719233 8.847227074212475
Rh 10.039360372199662 10.57478520998017 6.160423097268566
Rh 9.451139341374382 7.170049300905825 8.755452598554674
Rh 8.370229867056928 8.472007359972958 6.756860745807301
Rh 11.970880410128531 7.595409712250776 8.906234393664958
Rh 12.243173426881441 9.680163245320518 7.212229781812731
Rh 14.243613207716528 8.618075649274255 8.594523163731933
Rh 10.781598007699253 7.76724039326214 6.598249526635103
