49
Energy = -292.75772135 eV
Rh 15.193087084676899 9.655879742259343 11.691227067769539
Rh 14.68285165709776 10.132164715286864 9.215381551645121
Rh 13.762322350919032 7.838758053023132 10.545797149515009
Rh 14.522020465676656 12.134468050649877 11.121372573248241
Rh 13.71190840004006 8.08390295019508 7.998476308869941
Rh 13.444986696863127 10.446106740548151 7.00259245377736
Rh 13.900792201112358 12.548718510947982 8.604396607767118
Rh 13.686060799002387 8.093949853704864 13.14305391219911
Rh 12.826622514890719 10.274859245788615 10.82741679607242
Rh 13.70892575403968 10.759132614195451 13.381371648258193
Rh 12.170314167103161 6.186459874384097 9.404085276304082
Rh 12.212512281166358 6.226805738617213 12.023536966086393
Rh 13.52446974530261 14.408426743327027 10.525233938702947
Rh 12.896936549886238 13.23286032308386 12.993595791448625
Rh 11.618465141886245 8.438499248717683 6.60122030016813
Rh 12.255633795371415 12.777968249757658 6.510928565892409
Rh 12.187550506992425 11.772905789881401 15.119754222374528
Rh 11.702926891813801 11.224003394162155 8.545481851695186
Rh 11.842033256613368 12.566054998257016 10.813888878559942
Rh 11.568092245887364 8.621344699734893 9.228942115907872
Rh 11.859712438735514 9.202268609647819 14.540940978707289
Rh 10.963104374162226 10.769869053205644 5.839752021770009
Rh 11.42486959515375 8.577818759602208 11.969476541457588
Rh 11.741297314775002 13.978375407232512 8.637001979334391
Rh 9.996763029237757 6.936416754445041 10.638532900121929
Rh 11.169633887113994 11.059843692371434 12.881616453170267
Rh 9.683545978235523 9.821545451455158 7.757658808410547
Rh 10.141759637208372 7.279002529473197 13.639665756942158
Rh 10.94019753035874 15.04102285648454 10.79840278359633
Rh 9.844827137803783 7.146961228584039 8.075914866898763
Rh 9.355899799999463 9.697933251638865 14.362711654612626
Rh 9.803130388038522 12.313229811518084 14.79467680522602
Rh 9.463612579766313 15.056501449879242 8.625108419935291
Rh 9.444029498018525 12.910945187925492 10.036757338554517
Rh 8.313452010075173 8.653157098059657 9.534717570947482
Rh 10.205199021750978 13.512338998651302 12.635143957380725
Rh 10.154961073021878 10.41782022590975 10.506726374922621
Rh 9.73271827170024 12.588524515006378 7.418127098947986
Rh 8.72847397415009 8.673715945534127 12.069457223588287
Rh 8.56351507665786 11.318102737683267 12.424819059857288
Rh 7.925738499394801 11.166746640444922 8.996109969434736
Rh 8.352274361744175 14.843683411681482 11.205198391405567
Rh 7.49246140152531 11.355258252948062 14.898289045933787
Rh 6.811350847053558 9.266396020673954 13.629166561239263
Rh 6.878503006110387 12.655800706237757 10.943539983549018
Rh 7.368504305566093 13.629445755765097 8.731418652806465
Rh 7.716830233700416 13.520719967305517 13.358518336505561
Rh 6.800014358387633 10.029435209784662 11.078347629521234
Rh 5.873485995625288 11.640340291748734 12.958290634558251
