41
Energy = -241.32853945 eV
Rh 8.229223695401503 9.913162656212528 13.915659084059337
Rh 7.484433196383027 8.335701897539241 11.843819120367002
Rh 10.800718343424629 9.723713914993779 14.620011071470353
Rh 9.730512876789852 8.082157715352379 12.928656882553597
Rh 11.899322767550203 7.311410740158528 14.0101798716676
Rh 5.94094340166535 10.204093883588529 12.443276717499643
Rh 9.089232782912891 6.225339029343706 11.317485514514843
Rh 13.435590529228492 9.327529470648466 14.444924525603808
Rh 9.997434429893787 11.82229828574999 13.257626536138476
Rh 6.188660349815987 9.219979103297696 9.906787052725337
Rh 8.287123633264814 7.689641239822468 9.459213703275298
Rh 7.545640917263804 12.166081874151004 12.921969833757538
Rh 8.935110017323055 10.342798023208886 11.45733143337452
Rh 11.609858306623892 6.914172533947343 11.427369236477372
Rh 12.463794925114373 11.580164791399346 13.595869055625764
Rh 11.806866654061979 9.375733080823517 12.333815483270719
Rh 13.888657860063006 7.692485041785517 12.386911058740033
Rh 10.568328447698526 6.636700398466508 9.119089996129444
Rh 10.478559465259265 8.968622950214206 10.100050524865052
Rh 6.869749423189998 11.621211363075641 10.518252179374493
Rh 8.300820835292559 10.142055820820532 8.94197504812192
Rh 9.182238837780538 12.945778804607697 10.953619968877405
Rh 14.196787111570787 10.220414427273433 12.08745540211945
Rh 10.062989448914612 8.778496059788703 7.534582298808138
Rh 13.108876938264013 8.797930409515667 10.15819367951971
Rh 12.458930830064073 7.81104558784664 7.943861402708516
Rh 11.518002351234047 11.498934886943157 10.964419133368583
Rh 7.999392204918711 12.740304023419533 8.616413099163255
Rh 11.43325386927974 13.725285456151036 12.218840218802125
Rh 13.891909863338 12.761073010571838 11.865608221906323
Rh 11.898461777039286 10.315146772673778 8.440908733703074
Rh 9.384328637767709 11.19136665096998 6.981023871822094
Rh 10.555835317581323 12.526303285968632 8.76496171099391
Rh 13.832387016470554 11.33083397449126 9.761748908380454
Rh 10.439027237508844 14.889242490467602 9.974440652096158
Rh 11.63503926338651 10.633374253083362 6.013838575948512
Rh 12.68673132342524 13.664135058554802 9.86595568949171
Rh 9.24564841472322 14.650373149202771 7.727606461431533
Rh 12.852684193823356 12.478947377477775 7.529840975513681
Rh 10.733428922014856 13.14404893179569 6.216986912737802
Rh 11.882609469266859 14.872578431363612 7.788768047255569
