45
Energy = -267.24746401 eV
Rh 13.118076961379725 8.418367048804594 10.637154601433888
Rh 14.631950691208225 10.347625794442113 11.085553349723728
Rh 14.002652226637231 12.495965214749502 9.860856479429403
Rh 16.343388462386805 12.234807323257737 10.98519478979185
Rh 13.057529891044513 10.381210772216939 8.903583276770856
Rh 11.631805884571856 8.159856748438235 8.57865637234739
Rh 13.268928441617419 6.774620698941322 12.555104631495807
Rh 15.283603892136076 11.6195644552063 13.243454893651245
Rh 13.437490874781425 9.379975879763279 13.133100675818497
Rh 11.418654132714913 6.5122359377515195 10.522804424745363
Rh 15.556048241808991 14.384226658267822 9.45925599952941
Rh 13.12419806387697 14.529163755988472 8.577480595537468
Rh 12.99354948144293 11.99228296741769 12.320628118974993
Rh 11.413352030172515 10.370362851941042 10.796978066136422
Rh 11.467312518552578 12.560811945634304 9.232018383218026
Rh 14.864270779272546 14.040045264612829 11.884948151769098
Rh 10.299830565495329 10.344022804884162 8.458580025154525
Rh 13.381400618041267 9.72624967629472 15.57596216782361
Rh 14.801456327187903 11.723187306888533 15.680931443313249
Rh 12.138501346127416 7.722083323875562 14.697825000481181
Rh 11.05682676649406 8.055844026035826 12.451085560742479
Rh 9.684893492075176 8.535040856640967 10.24641584639971
Rh 12.373391645683192 11.958967908311584 14.981914464972176
Rh 14.029483216406794 16.131574413485033 10.466015064999695
Rh 10.640655305649616 14.59840100852604 7.9786400450363315
Rh 10.748532274603864 9.935072644517033 15.650864607212874
Rh 8.968291932749397 12.66788972127067 8.573023259174015
Rh 9.592517127682497 7.955964412154496 14.546866251109583
Rh 8.879579282382437 9.44314567524863 12.611460299323426
Rh 12.333318458591219 14.2700821149325 11.080273364265304
Rh 11.067628227702832 10.516689375349895 13.309789618293975
Rh 8.866338686768025 11.009309980273759 10.543934728670653
Rh 14.055186080022793 13.756435217568404 14.252099582622243
Rh 10.47065044014255 12.53231195906182 11.824616295555238
Rh 13.312603605965466 15.844482693603396 12.97213489321826
Rh 11.4765919140141 16.30221734416539 9.681033942325579
Rh 11.532392909122487 14.01763030275495 13.65161814866002
Rh 12.486599872707496 17.812399676280133 11.460038684400631
Rh 9.701922591578152 14.478073048780633 10.359798956950643
Rh 8.264736786327312 10.273744513472705 14.885956210922004
Rh 8.088095526758487 11.865364611553767 12.835185870667022
Rh 7.580883409300773 13.195050035176452 10.800201451584453
Rh 10.809255555286452 16.079451308949093 12.181635916204852
Rh 9.85276702232497 12.266202161171204 14.661911780310575
Rh 9.064260769839187 14.369674363444014 12.919320683907259
