43
Energy = -254.18618194 eV
Rh 6.952823572088084 11.421846082804116 9.407149698754763
Rh 8.435818908122496 13.076190543489753 10.749495721258365
Rh 7.918470449076624 13.561739675457785 8.313917013821595
Rh 7.561049296078346 11.20551001101522 12.374390508794605
Rh 10.245565978851392 14.793076325375255 11.524105070782142
Rh 7.6384275180559 11.329679890179003 6.9199222127686975
Rh 9.035944616089076 10.284793959541075 10.508135346080287
Rh 8.96065900446398 13.179536030359214 13.218385861766448
Rh 6.654621123756676 9.278732124280904 10.715335071116343
Rh 8.027145827711221 9.282953817835974 8.368250116507285
Rh 7.264795173918402 8.79050747962492 13.156191416222525
Rh 10.846166777755721 12.174261916572766 10.737966902603532
Rh 8.520506942067835 10.311389134765871 14.691255589296958
Rh 10.33093918777086 14.151594065579168 9.112970917964292
Rh 9.660319481881615 11.648867835167206 8.3240948785003
Rh 11.497000684248247 13.178142388651835 12.969048333309042
Rh 6.645627213226905 6.843159582990003 11.763706025288977
Rh 10.037143267577939 13.52612035523259 6.692180608975218
Rh 10.125388188206033 10.945763410363467 12.933382030525575
Rh 9.867787426800504 9.609073189235543 6.6777815357556145
Rh 12.692460094721294 13.868443004990128 10.486838781307334
Rh 8.506937412987018 7.510461994491797 10.153126117113354
Rh 11.54926051524188 9.707382082008445 11.07194972605764
Rh 13.565309831136041 11.357609395549854 10.875220605537457
Rh 9.53544219946923 8.468234012860606 12.264242492347508
Rh 12.409162834229358 13.36471563386369 7.929863747127319
Rh 11.46359582027411 11.449407165368223 6.30264502456643
Rh 13.944975754733845 13.049144355802149 12.616885190776072
Rh 8.968364503859233 6.04501750180711 12.261814122329794
Rh 12.060486519318832 11.02898786489291 8.777919416291253
Rh 10.539624907539588 8.591477433520105 8.926571840062087
Rh 12.743887118326958 10.82080934084652 13.201105018739947
Rh 11.047412837385943 6.94067256149715 10.894611980854581
Rh 9.013625088664472 7.651262933704562 14.619279732369787
Rh 12.90966142715862 8.161425551328024 12.497325267824458
Rh 11.16830413863321 9.020294448268029 14.202505403211324
Rh 14.619314461626495 12.742600009173726 9.066631813291602
Rh 13.89323584718618 11.487427587890329 6.892817621955244
Rh 11.162698373604178 6.585772247646931 13.49836073294125
Rh 14.80581880957042 9.245402101297438 11.335955767980385
Rh 13.041649060818317 8.153250226268383 9.809558854768124
Rh 12.526227706327314 9.099888743738834 7.3517753601130345
Rh 14.53120855541134 10.061261206387012 8.891580206936782
