43
Energy = -254.72272948 eV
Rh 11.662321859993495 12.462292919314361 6.4921643576680195
Rh 11.533709990053715 10.152016477483292 5.592768749638373
Rh 9.280573984215739 12.28244919779443 7.40220736941656
Rh 11.085676859053965 13.639339222949987 8.722451622784165
Rh 8.671560763333268 13.3988199772072 9.689877027590006
Rh 13.561200157236872 13.286580794076226 8.002659547782736
Rh 9.631605380461222 9.69155462841891 7.224930718246487
Rh 10.532344573479728 14.881424849601546 10.9327636096612
Rh 8.20269582125796 14.295723600010174 12.048834448627277
Rh 11.513512775915482 11.076732274122481 8.67147931214139
Rh 12.92824088061907 14.955447786459768 9.884075853838848
Rh 12.017656128849211 8.749002273623498 7.61305072991861
Rh 9.099431006782526 10.785262741595682 9.482014210655015
Rh 15.162297922265981 11.556665872961219 9.025978690119054
Rh 10.255270841838295 8.316064874144775 9.447528796885983
Rh 7.874553703382422 8.687656570048585 8.90800543377558
Rh 7.957860031146051 11.741118376323044 11.533098172488506
Rh 10.567115777801826 12.345489998500907 10.998800807194163
Rh 13.141636489669052 12.36365197336389 10.39818210183503
Rh 10.361692080103815 13.63967959293886 13.24396153841986
Rh 13.567472074216296 10.818276233378107 7.159707499717433
Rh 13.565708380265527 9.662121488512598 9.520144764947505
Rh 12.543550693441992 7.355934986978453 9.702133394351371
Rh 8.07758705280918 12.655084421020819 13.99269366790492
Rh 11.384467369292214 9.946382157020567 11.075791735818793
Rh 8.609265546352148 9.167538498161267 11.399508781345546
Rh 7.440447569182076 10.138417796363576 13.56010797229576
Rh 12.705537776085604 14.172148309456237 12.232087248619745
Rh 9.861575152084225 10.918792910990529 13.18641733076331
Rh 10.930926401204877 7.572367420208296 11.803671594004493
Rh 12.4619886675102 13.546676260889539 14.733440947654362
Rh 14.822513788379588 10.760266357912045 11.464561447811253
Rh 12.325266512245973 11.673632076171126 12.862591104190182
Rh 13.477847706099142 8.577764200145495 11.842431929812685
Rh 10.182657303632949 12.405347845200788 15.494665230215624
Rh 7.976522257423262 10.980050892910912 15.88318935713534
Rh 9.34214091146099 8.344337277579466 13.687998616971328
Rh 11.793033704037278 9.166495571764916 13.66024980585258
Rh 14.643971566924925 12.701805322006146 13.104334298462662
Rh 14.573431047769544 12.19805481584867 15.513269719535748
Rh 14.226442036340387 10.115984026708029 13.848271918523722
Rh 10.179987915373259 9.83683599205726 15.578510693470749
Rh 12.387509256790885 11.047398255455004 15.403758200672506
