48
Energy = -287.20919988 eV
Rh 14.82046964425672 9.117005981918282 7.529817129214506
Rh 16.276831510145545 10.332907030985233 9.400413070938706
Rh 15.007496115810861 11.904642090029284 7.7470528139351424
Rh 15.09418332639047 12.386731193089762 10.307130429006403
Rh 14.876914216044508 8.200144632349259 10.015446527126942
Rh 12.50957748012122 9.486496385876988 6.437452457605991
Rh 14.599612576524683 7.92915536100662 12.732739636072385
Rh 14.921612963130057 10.180386689522368 11.714761093058659
Rh 12.627945974904133 8.198692137632232 8.636772477320353
Rh 13.617510573161914 10.387891546376641 9.366536052222415
Rh 13.951499164743181 14.511033246428314 11.194366369651974
Rh 13.960599204090547 12.396950166847013 12.67206256485536
Rh 13.430707426050256 13.852968258811071 8.639463310453609
Rh 12.5352676502664 11.691372200451704 7.463180554851868
Rh 13.838788038729916 10.21175304621894 14.027682545291997
Rh 12.72412601333487 7.465925929690201 11.054691538425487
Rh 10.386528332180369 8.247818857876517 10.159082688387615
Rh 12.13618548882653 8.305233489708836 13.40779721848488
Rh 10.36897871154847 8.786835555382623 7.613828123090584
Rh 12.344638914635821 9.946626731796089 11.53838808945179
Rh 12.501144507277518 12.442925592916344 10.504441226481509
Rh 12.078505899512937 14.381378776813545 12.960911504471946
Rh 11.571006854780551 14.884042932203924 10.41153681836194
Rh 10.983879740431247 10.655307715938992 9.333698779387833
Rh 10.409006060710851 6.8320252103789825 12.158801789715772
Rh 10.83422157832169 13.318676457797807 8.410680375932136
Rh 9.798351704047088 11.289139462299508 7.188156315153757
Rh 11.373732796543717 10.330131615920331 14.687380974354536
Rh 12.697501021553526 12.529519202638657 14.95223725478982
Rh 11.372778695143067 12.019809916833873 12.850388982616217
Rh 9.606030145427084 14.806339850721852 12.241720510243333
Rh 8.560074052213784 9.928013949751831 9.077049577874213
Rh 10.28376564865493 14.794771933899154 14.652065329510652
Rh 9.796024145910174 10.255776020327623 11.755992218916607
Rh 9.130967080737717 14.922049434184615 9.622748545206726
Rh 8.043302353599167 8.54446295873178 11.382151990663068
Rh 9.949203132437422 12.684539393024725 10.707651094331338
Rh 8.251985008311294 12.53509701768757 8.878586147675179
Rh 8.999834461376105 10.142395322804916 15.643121109619546
Rh 9.628655774401063 8.606281855616139 13.67366025295054
Rh 9.987431168607575 12.440267187040414 15.14483550449784
Rh 7.635025616173985 14.432619211729062 13.86339765360499
Rh 7.4410523075891035 13.751800503587722 11.15191736022974
Rh 8.792021892256985 12.409186171982917 12.933393929700049
Rh 7.415620162371887 11.15358311537087 10.987163794966238
Rh 7.637392693070564 10.223770418621486 13.473836700226883
Rh 7.448090165118227 12.184231827791889 15.191571159610083
Rh 6.165092873822709 12.382457276684331 12.923409274759509
