42
Energy = -247.69760245 eV
Rh 11.970601963968642 12.289367919386299 14.887907588425543
Rh 13.153593983573323 10.19118256771602 13.802925590265206
Rh 13.269227262389956 12.65834079557078 12.680593699726748
Rh 11.715528399189719 10.084613565046553 15.899317805902632
Rh 10.933769445201573 13.820656508165445 13.101610885623188
Rh 14.429252696483355 8.350298240195078 12.63174991640251
Rh 14.480917167598927 10.659505599789485 11.513643492419407
Rh 14.437270202161374 12.954447315960829 10.421118992536915
Rh 9.599289925869119 13.14186302810639 15.178133884217113
Rh 10.184491379921761 9.316613338819174 14.212944937803924
Rh 9.796607493764363 15.305374659480998 11.213360466889686
Rh 11.007024210934983 11.22419301499753 12.816555828344729
Rh 15.29135444661667 10.92122817600301 9.086751853309206
Rh 14.989446971982487 8.546978120079615 10.140216616350466
Rh 8.760364741294117 11.347483651186904 13.743436527024759
Rh 14.703718121291583 6.278010040391254 11.125809488278403
Rh 12.190152587009832 11.634206407628676 10.45195059172946
Rh 9.897011548366327 12.783222697602064 10.858803107928226
Rh 12.278623662218305 9.217559366554523 11.539598948670434
Rh 12.235745632545939 14.30019987891734 10.96692792930599
Rh 12.435348803414488 6.748279395032155 12.2154503730995
Rh 13.608104658294035 14.658135280213243 8.734487591569792
Rh 13.25288554669938 12.151996968729206 8.094493778660693
Rh 8.380793531818691 13.707316774803287 12.867236907973776
Rh 11.256161387058878 13.635318152731765 8.661733759708204
Rh 13.023705877412695 9.74349906170692 8.912938050464684
Rh 8.069103124416642 9.183849227631978 12.561189265391695
Rh 9.195071848683876 15.187775526957823 8.737019001916188
Rh 12.736147579345431 7.361432878335043 9.825000466399791
Rh 7.728744177585583 11.496134593319859 11.460357208491427
Rh 9.905365779051248 10.118249287268515 10.720415551194197
Rh 11.49786466877634 16.112676864955493 9.341870183140086
Rh 10.243765953254151 7.885749470266446 12.205213811646054
Rh 7.65110986632781 13.98488438420853 10.405511728064427
Rh 8.890460530485782 12.643190692805053 8.503737976439398
Rh 10.856547906988514 11.02762457688364 8.252288230388242
Rh 10.665547592726817 8.55606000486573 8.864286164055654
Rh 6.543363743481487 9.59469071476115 10.339853948369283
Rh 10.44939917072098 6.3608961920074085 10.202097326919931
Rh 6.6111025531562655 11.91014571158968 9.206694117615047
Rh 8.4391042338624 10.143218128997304 8.625206105676702
Rh 8.499156626461879 8.026378222736101 10.252407304065986
