42
Energy = -249.2710424 eV
Rh 11.48468567790863 15.120884541941818 10.54737743118377
Rh 14.154821606790719 12.89452022041532 9.017611948258784
Rh 13.911438237260231 13.935207491633637 11.42023160924164
Rh 9.481843171231336 14.183434985384725 9.053618094848305
Rh 11.797556474586402 14.05949323526222 12.921344055601809
Rh 11.971246204610443 14.01571494116149 8.174225506982209
Rh 9.577791153476284 13.846250449779353 11.56696254515338
Rh 9.514654222797246 13.24023715157194 14.021941112444471
Rh 15.042219121596617 11.522411835010828 11.06883631412809
Rh 12.029523380026625 12.65731343761644 10.263905400332916
Rh 14.113898528916213 10.402618584045749 8.932174786782342
Rh 10.288963892150138 12.266759333764053 7.549986433580315
Rh 9.546365112095515 11.750266088786189 10.036705531896322
Rh 11.699799263468632 12.116118909905198 14.816122870575905
Rh 7.310950382789878 13.003011003134377 10.632200891114008
Rh 12.771346912813177 11.701020740808277 7.1370942216717985
Rh 8.322875980828526 11.429382992575217 12.472629236654914
Rh 13.432851182414362 12.009875886695838 12.981289983974213
Rh 10.869090480348243 11.729964602592236 12.38565873036101
Rh 7.7525011265477675 12.368566877762913 8.148182577509395
Rh 11.448942872396238 10.303722260734851 8.873399559816601
Rh 10.831965425718913 10.108016338985431 6.271319165348503
Rh 12.968039032379316 8.995384548578643 7.103105602030935
Rh 7.241275909093723 10.52455045945481 9.891029714273964
Rh 12.777194325619416 10.287255336317239 11.184380239348252
Rh 11.771788898203063 9.661629257749333 13.62390086614015
Rh 9.576531473172292 10.747403588734361 14.681905667534915
Rh 14.968643364935694 8.799822074797596 10.78993825287665
Rh 8.951207787927626 10.016764608716963 8.035818449382461
Rh 7.190264292343542 9.985695011509637 14.204515237895304
Rh 10.277707676008209 9.51891439701704 11.25678653639923
Rh 12.807410127204784 8.154471747461171 9.503438673744323
Rh 5.885900967361085 11.192841174470688 11.94117402478134
Rh 10.591331784974777 8.006551549718461 8.175337891020488
Rh 14.425751387579368 9.679643930197727 13.12652242259918
Rh 10.784128188999787 7.145061828829871 10.688154310444068
Rh 10.894185720908029 6.927559497749347 13.229557184795347
Rh 8.63519297973732 8.312869268371678 9.895123885910657
Rh 12.897964074735432 7.8659030181018705 12.09242686632386
Rh 9.204285944787808 8.67476785630145 13.354096201147158
Rh 7.118040631386574 8.957784046831003 11.888805577136031
Rh 8.54002453401268 6.742534401665352 11.903363900897599
