49
Energy = -293.22932839 eV
Rh 9.116469683429013 7.092320949804483 13.37660001312263
Rh 11.680589189475723 7.133228277280262 13.089650816966781
Rh 8.78471791523282 7.835182547010499 10.891690937777549
Rh 10.367862489607074 5.983331550675934 11.217117273417847
Rh 7.45612938300137 9.173823942093073 12.71997056479653
Rh 11.409523700012198 9.258191950827328 14.809848350239983
Rh 8.762377455547982 9.314073406835234 14.871486792020335
Rh 13.64626761578403 8.17064028309959 14.385021750072207
Rh 10.081453639977136 9.258422871571092 12.641368657994224
Rh 14.219156114189653 7.114809721920053 12.153849927498522
Rh 10.477256369054286 7.315980472010312 8.858820057484634
Rh 12.388692238385683 7.319645249134482 10.514473930695809
Rh 12.68520770566572 9.37006221380235 12.218703091090585
Rh 8.848672139889306 10.678344771924358 10.925739688131513
Rh 8.569817644783399 11.543889410992229 13.4237479517489
Rh 6.593355197189946 9.132717805053884 10.339614741886697
Rh 13.624881392039962 10.806228252105184 14.170973146357547
Rh 11.28062470459421 11.438578215857945 13.436906624943795
Rh 10.40155347643778 9.330312291616337 7.0469825653812315
Rh 15.403489023011518 9.319702523990175 12.854230163111655
Rh 6.564950044091411 11.4111661355217 11.691237269099059
Rh 8.5556702473353 9.190667498827922 8.722513738951735
Rh 10.977607981033929 9.470428393624553 10.21729848880156
Rh 12.590412372611913 8.669589928843049 8.338927853315615
Rh 14.589187403915503 9.003499748315734 10.34484989922741
Rh 10.044604635872231 11.358542798592792 15.559509356571084
Rh 7.117163838803921 11.309004987553438 9.087374417347126
Rh 10.104883303797676 11.366415053482436 8.617363198755315
Rh 6.25364320449258 13.483138868906833 10.033748616559338
Rh 8.323975971989256 11.015043683354117 6.805023138514362
Rh 14.326733348810494 11.331734228415508 11.787316940011538
Rh 7.59655929273234 13.65280840308804 12.316143161656704
Rh 11.153987693055702 12.066725847139745 10.928863535150679
Rh 12.846220812127854 13.243409438836913 12.592609522735184
Rh 10.1308493795515 13.571983382723868 12.668121018646131
Rh 14.650763087990075 9.910975785858811 7.834184329943976
Rh 12.987059010778912 10.9585754203589 9.552052420641415
Rh 12.29058647719442 11.069056067832758 7.076691143703874
Rh 8.872775883710595 13.19634000185553 10.20466474734032
Rh 15.726082702335306 11.349011505165446 9.720741091198159
Rh 7.954823633205023 13.361838217204452 7.791440074256787
Rh 10.263537346728716 12.973951869220633 6.707042396110342
Rh 7.6155914468429975 15.451669196159498 9.322094417776889
Rh 13.931518063788468 13.291831252624087 10.247534310120507
Rh 9.412648460010852 15.516594784907603 11.112226008202034
Rh 12.059060525985606 13.264388638279813 8.484360484170711
Rh 11.737410288313804 14.577907426344924 10.702459468606039
Rh 14.357455668603338 12.477024682440103 7.807985426898964
Rh 10.048660546873986 14.720544487841803 8.619603983134356
