45
Energy = -267.3198916 eV
Rh 9.073489503461126 11.897176455112906 15.585153212191472
Rh 10.82772276613235 12.752167807315272 13.949413289983864
Rh 11.538596523350549 11.825749021798973 16.20051690987924
Rh 10.164641247625687 9.59880399336887 15.964013427861888
Rh 8.904917748808789 14.897307209611636 9.728864556694107
Rh 13.385502577487268 12.257845416660489 14.042270463550972
Rh 10.146560386057315 13.439970305232924 11.54524813540071
Rh 12.497198531921626 14.006442628725628 12.251869329914465
Rh 8.381508743778044 12.242765508099197 13.054771303701807
Rh 7.833180374905828 10.041132804386631 14.20779996917493
Rh 11.4337329235343 14.965508488328252 9.82698539855449
Rh 7.785200007687665 12.787569987575612 10.627924143031823
Rh 10.313083744609006 10.246944755643394 13.610224331691336
Rh 12.027373001984229 11.33939970221888 12.015421538089782
Rh 13.963774118108699 14.722543131770227 10.225267612056093
Rh 12.506999138528878 9.996113420162429 14.742887936877079
Rh 10.256170613195557 14.44172319740967 7.572898529799086
Rh 7.2379098573025 13.651564600230257 8.322466076288082
Rh 11.906411498090742 7.786745366506036 15.830771511937087
Rh 7.015617690205957 10.554292723356134 11.687799688022768
Rh 10.28993882152455 7.689643960780241 13.90909511046458
Rh 14.50319398731255 12.514376202348956 11.685071823082625
Rh 7.900600522214534 10.698998309615357 9.060689203875594
Rh 8.635424950967638 8.654559199054738 12.171134237946712
Rh 9.928715602992895 12.409648157685277 9.0880356946043
Rh 9.523682138465114 10.842526008762688 11.16985289560511
Rh 12.822066287189521 13.94759162655998 7.781491798975669
Rh 12.433551181638572 12.673115592095003 9.880248886028676
Rh 14.92470340560686 12.628317147358977 9.066364630826827
Rh 11.312847745370258 8.826042092563824 11.640789268081015
Rh 14.111944747807266 10.076902070569018 12.734292368303523
Rh 11.127780912647738 12.22081724285574 6.787370843118682
Rh 8.585329161740853 12.150411622420542 6.94402795436473
Rh 12.825127425859966 7.852962010447022 13.441504018470322
Rh 11.45939046259601 10.277249177922004 9.463222851225343
Rh 9.91088250536081 6.6310088479026295 11.544243806416377
Rh 9.448645983764541 8.58052017606918 9.690497800012192
Rh 13.970912880894902 10.485097030778592 10.16355976569805
Rh 9.85952388788018 9.996751125540191 7.52352514822491
Rh 13.240942885830059 11.286235549805237 7.757758628036849
Rh 13.651704189557712 8.168632217792288 10.986833519239388
Rh 12.0121164867291 9.747961697568702 6.214127202073152
Rh 11.621063187237379 7.049525925451291 9.799124515986504
Rh 10.903081031493855 7.751155838024983 7.518519544059909
Rh 13.093642991552972 8.725854192022016 8.369045895107242
