49
Energy = -291.22335249 eV
Rh 10.42815449858033 11.032466381951572 5.384655928860402
Rh 8.05873243838149 9.914369103799217 4.680606984839263
Rh 10.109291881451012 8.360965307566289 5.262900056539448
Rh 7.613071249016315 7.675461320990632 6.300040113433387
Rh 9.520736512773896 5.810505059732828 6.030703686077682
Rh 8.192985459834043 12.174307705889886 6.245382261357577
Rh 11.671756078932606 9.483442042220052 7.270148155523693
Rh 6.350471880215841 10.230646783470279 6.858150137126816
Rh 11.930797988827862 6.891841118683787 6.431781129342489
Rh 10.4303413168505 13.618401558018638 6.497944675640348
Rh 8.86367142515898 9.752092646521229 7.009908368988138
Rh 7.158342752792615 8.524147858231256 8.802264950816017
Rh 9.893642904588974 7.598933819420328 7.749815631449601
Rh 8.065187587578517 5.986226605711305 8.328945709848947
Rh 6.1310482910379305 12.791405678564235 7.812763339356005
Rh 13.208543206100037 9.865513154618494 9.403302125905409
Rh 10.714378825371558 5.265672570196728 8.337725245629118
Rh 8.600264548969742 13.695249965984003 8.424898008544353
Rh 7.839769670602574 11.237573275101028 8.753484543101665
Rh 12.72454569573771 11.859423826239832 7.808406863800055
Rh 12.275914864767174 7.529114563601388 8.928693316827319
Rh 11.169784005217887 13.738379415968774 9.124934299125606
Rh 10.230509027635614 11.644722554348403 7.928769209639835
Rh 9.60353208735291 9.483050493214742 9.488927854959888
Rh 11.269108309499268 11.299666567856702 10.169408762700487
Rh 12.03598523860259 5.472655732342284 10.574357597601026
Rh 13.521447081513289 12.508777957447379 10.137464541437177
Rh 5.547639171042177 10.68622542982635 9.537181242252702
Rh 10.008745841232448 6.95959553511226 10.224093421408892
Rh 9.369323971272163 13.01719649083422 10.827861138741941
Rh 6.815577315778843 12.991527084040744 10.369058146288012
Rh 6.301924986228418 8.911672181332769 11.257610454868109
Rh 9.321337456354259 4.578535791147184 10.456191114111716
Rh 8.043025846680669 10.769209947220393 11.147084202913977
Rh 13.508383759742344 7.573340216182142 11.167740678666483
Rh 7.449320303584518 6.699977112109144 10.677272114980152
Rh 8.953583683987798 8.53311424061139 11.869692708501388
Rh 11.455735782129958 8.955163375914733 11.178825438887154
Rh 11.661587656063615 13.188114194771021 11.827849378789507
Rh 12.8913677575524 10.901993609661153 12.103197175339368
Rh 5.756675930009868 11.3025859896803 12.139524912395684
Rh 11.445912250165886 6.868082180082972 12.627237748462376
Rh 9.131944419032859 5.961310275738768 12.581116596427279
Rh 7.939437373760288 12.613216626967509 12.882329682720707
Rh 7.1937573797497905 7.466870143648335 13.326125808432508
Rh 10.191451028217728 11.003204470412857 12.65180231783808
Rh 12.015699122078834 9.10310375912472 13.644206566143723
Rh 7.670970908090998 10.044318667485895 13.54167764330278
Rh 9.661713326698662 8.373759707247949 14.163068106900218
