40
Energy = -235.98157274 eV
Rh 14.33790093069108 9.146028461810728 7.848209722275142
Rh 15.16345733747605 7.832001979540152 10.005267107568578
Rh 11.881241082060276 9.509641531699971 7.3996526391567565
Rh 11.657700500088362 11.81364807297462 6.371398246994632
Rh 13.547374060277692 11.561782060928211 8.055729538196958
Rh 14.296957147949138 10.227312315807104 10.197275664378942
Rh 12.659778250513725 8.160540323929824 9.563200324831444
Rh 10.11414983910071 8.664056444756817 9.065496844812916
Rh 15.033927200465829 8.985753346279616 12.318103412871865
Rh 9.770911783090792 11.003719066277588 7.899363447966489
Rh 11.416391584316825 13.070009063743687 8.564634617229569
Rh 13.451410819779847 6.972794487762339 11.696413760092254
Rh 11.72560664332993 10.648675617361771 9.71894624708713
Rh 10.876278316260642 7.345076497542844 11.378165111921513
Rh 13.314359198958092 12.658635337398302 10.345134291762177
Rh 8.367004942361836 7.829001622962117 10.801832047386613
Rh 8.035410296893078 10.085085551093563 9.582825678983262
Rh 9.439127402735968 13.344096965343022 6.978242239840529
Rh 14.118353058110992 11.376666482776443 12.613047734932126
Rh 12.524504689480846 9.322005148155565 12.006333261945631
Rh 9.918870013591578 9.784202361956176 11.470179395199505
Rh 6.4103856004042745 9.40016009180709 11.406704074596984
Rh 9.235191147847555 14.461200110654573 9.29309868622514
Rh 5.660599762791588 10.912962863399478 9.561585968776273
Rh 11.543569169716113 11.830621041681507 12.097012451725927
Rh 13.14893382894618 13.79145879300031 12.65019563344494
Rh 9.625249671691513 12.170538192868856 10.299407015933461
Rh 7.689955902251157 12.489967603641034 8.643175549761516
Rh 8.980204796769815 6.746534558787831 12.985986991557622
Rh 11.272253089914765 14.164212937067068 10.929688361973538
Rh 10.67329151354117 8.586644331302852 13.661873863983663
Rh 12.26492767670695 10.588937171000092 14.278415394825773
Rh 7.942147373904567 14.79844565564524 11.308027055830289
Rh 13.740819016545963 12.65043899198854 14.796131734666453
Rh 7.872586463908857 11.401194165403844 12.033956008525552
Rh 9.70720177201472 11.043192459943034 13.822776273956135
Rh 11.267803319058592 12.975563667217957 14.414279838693195
Rh 6.510103279686105 12.912971527285823 10.765936633858216
Rh 9.411393851175786 13.361808495423668 12.620683568603328
Rh 8.123349508225072 9.110596416419707 13.252280107028035
