41
Energy = -241.14759815 eV
Rh 8.983441237367769 8.381147122942496 4.543485604888601
Rh 8.992332669507727 5.513640926835027 4.83585025443943
Rh 9.064827696061746 10.766582320813422 5.562497085577496
Rh 11.066392564216764 9.181368641732547 5.893778882112296
Rh 11.119535862533443 6.943178961451424 4.615686102052982
Rh 7.049173200837764 6.571929110524866 6.130492498965314
Rh 11.089100459568355 4.971426702859111 6.276887534315604
Rh 8.740019142451736 4.929582648548082 7.466422507618943
Rh 11.319197281791023 11.616516799956134 6.323397641040887
Rh 7.226723379915314 8.97516579264325 6.394215746547629
Rh 9.461574518778265 7.205111583005213 6.742346768166633
Rh 9.167571093225552 12.81133847503396 7.447307253744659
Rh 8.591043444002734 10.469203349781116 8.065361238938966
Rh 6.818346671472858 11.490204076505385 6.539971158478093
Rh 6.522358264119736 5.87642049004231 8.474155507416587
Rh 12.809992431247203 9.639501690545115 7.848131979938901
Rh 9.093393053222094 12.350088344917403 10.017297208349365
Rh 12.254941011076102 7.2146452041023545 6.954587764687373
Rh 6.865579114308331 12.500691886718169 8.909465923933242
Rh 6.080720295897567 10.045714379203412 8.465547924566172
Rh 11.381885216899008 12.04805946407193 11.192286130563058
Rh 7.934496018282422 8.005367748744987 8.758196429795927
Rh 5.169325605640206 7.834219391746191 9.320483836247643
Rh 11.016245861715223 11.310790298994881 8.701557981449078
Rh 10.518094232098026 8.728357622194222 8.441458167124429
Rh 10.795180109407173 5.979960011576851 8.661282211206762
Rh 7.02068914824445 11.115668969530326 11.07778693732352
Rh 4.732766963761962 10.121475349334661 10.55681534038887
Rh 8.573243802295245 5.91041782238709 9.931506125873733
Rh 6.899391839031737 8.525439255659208 11.05691593542321
Rh 12.723186452989339 7.541130299949999 9.473053368097704
Rh 6.256696526102831 6.116927318396421 11.045509292482333
Rh 9.207315455833896 9.720012509526732 10.479548668559804
Rh 11.852096119386596 9.696827961270097 10.530936283016247
Rh 9.295674707505688 11.505025327361738 12.391317422324368
Rh 4.540606120191784 7.958601815090217 11.87207097128014
Rh 10.489305292748098 7.456992331272388 10.758518024938414
Rh 7.840397861267102 9.603752679763813 13.12781509374968
Rh 8.547929324219098 7.123737773410078 12.261321446193962
Rh 5.438057650748205 10.05715923787021 12.9991672735256
Rh 10.321182825246417 9.056648828905695 12.72559699987351
