40
Energy = -235.06900561 eV
Rh 8.66395748183707 9.163030957601526 4.7064656759453865
Rh 10.666570822990895 10.923735309101053 4.81979493726711
Rh 8.289895713277673 11.668931976514324 5.460986740434276
Rh 6.750872027215559 8.882584285339705 6.690781794007249
Rh 8.727010273586844 7.2190296357470425 6.371892174631133
Rh 6.875740382987499 11.264866984188979 7.6546738856691645
Rh 10.898511585348395 8.71256589999769 5.984157326712468
Rh 10.311598297584622 12.202777635323116 7.152778060854276
Rh 11.193723477551746 6.3741807303665805 6.896761084363783
Rh 11.312922269657765 12.624498380308562 9.66595801772123
Rh 8.989983442259883 9.949121573904598 7.154073700078696
Rh 8.05260219098469 13.476335301760546 7.164416176141132
Rh 7.364137930559088 7.340333894049812 8.666950103843108
Rh 12.271944838444957 10.666027334252657 6.803742037129989
Rh 9.157216846449645 5.4536293775519065 8.249883340790438
Rh 5.837716756974674 9.410038261451733 9.163159373095308
Rh 9.872473984634503 7.93241387319859 8.548339762738884
Rh 11.433307298303308 6.028396852662821 9.458672988641103
Rh 12.429736947486843 8.252126594078522 8.281681472712169
Rh 10.887285922171618 10.2429844783007 8.947458369056838
Rh 8.758280323173691 12.288059327694498 9.251172542639358
Rh 12.37748436959578 10.728754953988616 11.315654916039204
Rh 6.28642728815703 12.09983734082925 9.928326396830322
Rh 8.290704209109022 9.717208702446245 9.60811112370932
Rh 11.345840151963786 8.20700017001298 10.736387205765018
Rh 13.749099997199975 8.77728343402121 10.472919477863185
Rh 9.088113742327565 6.443490337370432 10.605647285378481
Rh 13.386699592826604 10.76889032149 8.98362453687295
Rh 9.88716076652616 11.0764751894078 11.1759487871123
Rh 11.06010779281152 11.937016863980796 13.143820884003338
Rh 8.078926957047397 12.64284191126929 11.786819824759915
Rh 6.773052718744374 7.8158816114213945 11.06993063641391
Rh 6.880106579437522 10.401847469599238 11.622192772512717
Rh 10.607168886312568 6.790760257212919 12.755372467465227
Rh 11.169652524740828 9.337558732639833 13.105330327173979
Rh 9.018950873900945 8.68261909377571 11.89168824490823
Rh 7.995470578396277 6.480719039152069 12.899700970514218
Rh 8.788846560029159 10.686235982678728 13.48300188473995
Rh 6.938212250555536 8.797311652075859 13.571848449933679
Rh 9.26103092032587 8.261143846723266 14.478419817020159
