49
Energy = -291.63836641 eV
Rh 11.095384168939574 14.206777205095838 15.555764400759697
Rh 11.78019056687174 11.763155794032086 15.313343356001363
Rh 14.309306889903475 11.407378769221987 15.296402746747045
Rh 9.325605256034658 12.57443518137142 14.613063212411111
Rh 16.687157974150832 10.69349351537624 14.536934723286416
Rh 13.387270843006073 13.686358764000772 14.528220416613587
Rh 15.731008722390127 12.864155277757746 13.832124023798304
Rh 12.05436610218849 15.783393279137647 13.791965366999598
Rh 12.3038755410616 9.232400315903348 14.999771214390723
Rh 10.405333034276724 10.410642286350752 13.680408652119487
Rh 7.796296116278802 10.7584657632325 13.604706443689292
Rh 7.3350233889097005 13.387437331147327 13.139962522784016
Rh 9.509168214711075 14.903674126252131 13.668969819500438
Rh 14.849832422071072 9.065094555809845 14.365079056521015
Rh 9.22844446439675 12.144898712788079 11.985786253260404
Rh 13.018458168624136 10.752867404156403 13.135456888236224
Rh 8.999001443384248 8.506169478033192 12.74843930125744
Rh 11.601930493270984 8.388050817174545 12.59430583097881
Rh 15.51848609522423 10.810765302991383 12.264071052175606
Rh 6.474924927124324 8.995182512977081 12.455203658567234
Rh 13.94346620220514 13.12519727032787 12.110904078171684
Rh 9.92512740194181 14.74293239243086 11.35127258973612
Rh 11.456457996660017 13.131177292555147 12.879737073056825
Rh 13.376316286153175 7.138881198629697 13.902188703023054
Rh 14.207186642789646 8.55012806273589 11.973437214788632
Rh 15.43867023453572 12.227104396234232 10.14112050182553
Rh 13.016689803523862 11.144772744649925 10.657311192727889
Rh 12.41906170989226 15.182822694303757 11.497175607312869
Rh 8.017489329062474 9.29825112905782 10.564362139586194
Rh 8.789453151788928 15.817651231688659 9.397749601921788
Rh 7.777803506935337 13.764987752071404 10.522121428309426
Rh 13.34653670842384 13.665171979222395 9.646465260177465
Rh 10.994131771272414 12.634526741468012 10.142823129094985
Rh 6.7941839659848595 11.437283673348563 11.321536937501856
Rh 10.496771473748364 10.191878564285608 10.99402803783019
Rh 10.095685176560881 7.71410404633463 10.439980801369801
Rh 15.010390364627359 9.698057720065718 9.8595987350206
Rh 12.526484797176678 8.57900645376384 10.164847966262005
Rh 11.259963546622105 15.051622399074866 9.147506158729724
Rh 11.502822088444136 10.412946483496999 8.591956204942834
Rh 9.243172068861893 9.23339680269033 8.410747238558693
Rh 9.27559469494074 13.649068439813627 8.249302867746012
Rh 8.644730276418818 11.519715854357273 9.470162783369515
Rh 11.757658862023728 12.957040906149674 7.660906071677181
Rh 11.31694656649919 7.818742929797259 8.092858773929025
Rh 13.898934618238185 11.54931971072717 8.197538785275352
Rh 9.707686179702534 11.447530185307865 7.068205143192046
Rh 13.557988981988355 9.021273148095668 7.77691571555765
Rh 12.319100055763913 10.906845445759014 6.27497037027302
