49
Energy = -293.79961611 eV
Rh 15.679177331212006 11.275335600803915 12.213027298840869
Rh 14.49097604912387 10.774615257252917 9.98584197779926
Rh 15.070666083316237 13.233828203254554 10.539216927112962
Rh 14.455024574408322 8.980422792916798 11.906810383363714
Rh 13.73158878512662 12.550695772948263 8.000129310183496
Rh 14.334529663347086 8.290308868820912 9.40955084618623
Rh 13.992995636488352 15.013766305808895 8.99397183475965
Rh 13.715540076760673 12.702918204429977 12.75644296171228
Rh 13.873590803966177 10.45154177536707 13.993621879980775
Rh 12.769452019065017 7.218726921328176 11.180566641944733
Rh 12.519133468441701 10.571379391413846 11.621721642234327
Rh 13.206370053376196 10.050263617959263 7.900785284577689
Rh 13.103645275383697 14.888496205728247 11.440887626584704
Rh 12.262505771254869 8.533049434708248 13.319544350083241
Rh 12.652076395749088 12.705267164285441 10.166195577875301
Rh 11.89399668561225 7.9404301595626166 8.839928415194013
Rh 12.240782739766578 14.346313714142603 7.1182474331483885
Rh 11.123273859902204 5.68338557144653 10.017042415725161
Rh 12.181168090073 14.478299055111409 13.835278214365553
Rh 11.886722461306862 11.987492734773364 14.59759240099471
Rh 11.809458247556297 9.683040687758794 15.540286523935409
Rh 11.086195041912404 12.668185142058734 12.25075584995577
Rh 10.407275516191186 10.367597502232078 12.989591786082945
Rh 11.467629166635527 14.989051094697846 9.412192551069333
Rh 9.85614253272036 8.37580410535146 14.40368409195179
Rh 10.080244432222793 12.911833579221026 9.904705267971467
Rh 11.258872233418352 10.663324801511612 9.365207181496674
Rh 10.745894214962915 8.73218007980947 10.971309646176167
Rh 10.570190973457516 6.707751250496463 12.551270550734863
Rh 9.699969006139805 13.94406706036227 7.677879214209606
Rh 10.564826386176438 9.43060886025902 7.1802896722518925
Rh 9.513910460663908 11.037190215921541 15.176057539359972
Rh 11.390322731261437 11.907214806582902 7.098985262653027
Rh 9.772987503636386 6.908168086563736 8.127530123583663
Rh 10.518991206915985 15.11389067689383 11.938656313422214
Rh 7.5158648059156645 12.271677354943133 14.031147832958943
Rh 9.00334351333459 10.752532040400746 10.847489227732218
Rh 9.004181318572844 6.98992527774867 10.562132583956227
Rh 9.763418198483553 13.561164156410353 14.220934037298285
Rh 9.034002193438832 11.41088342226175 8.097554684541072
Rh 7.989230414982207 9.918130296838196 13.298157771566885
Rh 8.91145426218006 15.173207013364035 9.98154278002815
Rh 8.050807794233489 7.330241927878469 12.936972344978841
Rh 6.697434455983281 11.503062916659541 11.641670927291003
Rh 7.543041955399508 13.00589320737212 9.563675409946985
Rh 8.536079448870538 13.299626573155138 11.980082568763631
Rh 8.719454609705311 8.96959164728492 8.91128502165083
Rh 7.260880900015165 8.884891032055517 11.084024077475208
Rh 6.811855324425688 10.579903104935415 9.18570040738259
