40
Energy = -236.27459864 eV
Rh 13.485922374591567 11.139327384637893 9.856775172117153
Rh 14.299290317568412 12.290342289825206 11.960230199807405
Rh 13.680292078708973 9.763889951313603 7.77418627093822
Rh 13.466284509773768 8.601023823147763 10.153202505377418
Rh 13.83926669176122 13.620558949483478 9.792684347460792
Rh 13.245335657665114 9.972313584776021 12.306506918067916
Rh 12.850659938588693 12.165492335611223 7.603331788536438
Rh 12.509783250892218 12.08401113519663 13.759793659248208
Rh 12.201165805463269 7.517665880561828 12.269142023607001
Rh 12.20149106832336 13.916651604879954 11.787802434351308
Rh 10.794199540152471 10.924147870985358 8.924187897782714
Rh 11.620159567412868 8.494486356081683 8.290607805475727
Rh 11.987190733514227 6.4843790151601315 9.826013749736667
Rh 11.483604424049798 11.54162911935992 11.382944544342092
Rh 11.274710860248604 10.252403182631888 6.477068053776923
Rh 11.004184464412608 9.10645682812281 10.794530101875134
Rh 11.370943443847981 13.450491571224331 9.321239432066
Rh 11.913050695646593 9.507403925051305 14.337355166658723
Rh 10.407202373259379 13.702385660383612 13.688123144366
Rh 10.47768736335508 12.737694201862096 6.939710328900931
Rh 9.804455241955063 6.826451481687237 11.136583623434499
Rh 9.875717802012627 6.5909519720233005 8.522828860111675
Rh 9.97472236244031 8.607270981338953 13.044298881773205
Rh 10.157159813853353 11.168999743326463 13.549673338580808
Rh 9.488549520342273 8.395328719576268 6.679244528555246
Rh 8.968719580009491 8.942750914478832 9.195756153582932
Rh 8.777143325349531 10.824456883556575 7.10922371830671
Rh 7.578552445020995 6.865118593535423 9.631050081766334
Rh 8.853126188229352 12.774646234718912 8.877545079910622
Rh 9.670063725691772 13.43584039358934 11.285937709677277
Rh 8.944449049082635 10.864091080091905 11.121205464836189
Rh 7.845288209385267 8.473503769310463 11.542201837235567
Rh 7.822687924213902 6.495507276759436 7.104725619534788
Rh 7.897051962263046 9.980792283326481 13.620272442915194
Rh 7.06911260998081 8.871181936427993 7.5660344770884596
Rh 8.012553850591551 12.518727752088056 13.130223368814113
Rh 7.1422268500695845 10.829290625927309 9.169521297895061
Rh 5.840437976776703 8.774340969688778 9.900362959364715
Rh 7.189657572256778 12.922853234104496 10.73596762414593
Rh 6.365433853351053 10.666352985609096 11.68045986597899
