44
Energy = -260.00346663 eV
Rh 8.549555225580301 5.565699600043228 11.014445149149408
Rh 7.351900552913086 7.812503233700661 10.569562967301861
Rh 8.468483324798552 8.971189493166701 14.694279119883458
Rh 8.32593378565694 6.516469632938297 8.565409391158484
Rh 7.400688453923448 9.589945919014898 12.386236148353515
Rh 8.441926551595717 7.237046681615312 12.879663150874919
Rh 8.485141897721578 11.421179441488444 13.953054898884956
Rh 10.609600757742983 10.316854212386042 14.925045227393408
Rh 7.305071777758971 12.035914463264389 11.70854230780319
Rh 10.631914183653295 5.728067316200886 9.491200214051492
Rh 8.238697965408942 11.996672678833137 8.300352918246677
Rh 10.775936905288049 7.720117782083606 14.265622358464132
Rh 10.754734053149038 6.7055369437606425 11.880503043611414
Rh 8.205103404564012 9.087209151155527 8.17392242223884
Rh 9.745815942010449 8.143099792662436 10.058915489851621
Rh 9.930364290224077 9.357622893075623 12.46062347744874
Rh 10.031640900560749 11.939054528297007 11.84892381886974
Rh 10.498422530977715 7.800790911926876 7.715542633859328
Rh 10.596834012410529 12.893527125040801 14.281156796062456
Rh 8.479375157125041 13.83806607743701 13.048996179857369
Rh 12.526586564707427 8.531359805044918 12.33486539197472
Rh 8.642390020036899 10.448858756741567 10.25500512126692
Rh 12.308794245018612 7.604084558658996 9.870980810949696
Rh 11.46606852282412 10.116640036589033 10.444215347771314
Rh 10.228626517353858 10.376795124190792 7.468861344378416
Rh 8.856659399256225 13.765866509192339 10.452383893827005
Rh 12.073505275708559 10.882989728602304 13.089913407255407
Rh 10.784762835827127 14.4889414040791 12.297336659164081
Rh 10.603188547273767 12.157503274670704 9.189482875443629
Rh 12.506544061526654 9.301487774182167 8.041889797193546
Rh 9.497839535908723 14.298757008028101 8.048348612981403
Rh 9.843598012070961 12.52501403941437 6.274542607379623
Rh 13.896455305155987 9.582685097515231 10.316835915564402
Rh 12.955609089602177 13.334075434515434 13.346433012516615
Rh 12.486718927316286 12.53774838270751 11.005700260793011
Rh 12.23077786295777 11.276160730256397 6.331414213062868
Rh 14.354140781404237 11.249582876068128 12.258061248697576
Rh 11.317843765129666 14.65102202796747 9.788415403147662
Rh 13.088956149679225 15.19987042549529 11.542079586838721
Rh 13.191524352218735 11.625978208853745 8.608156649257689
Rh 11.930542668991666 13.55648654771696 7.4764442609633734
Rh 15.177652717513183 11.904744693315278 10.001917554802956
Rh 15.127709155401623 13.672350803282662 11.849323283770941
Rh 13.842061727701633 14.05277030511719 9.362910840928096
