41
Energy = -241.82749884 eV
Rh 9.144513944844537 7.398733140614044 4.113096093561221
Rh 8.92932619236007 9.861414341250146 4.7130879087110165
Rh 6.8011380271766475 10.6835495631535 5.842117911357933
Rh 10.481139789378883 6.870500795865523 6.052192184819872
Rh 8.182809752112972 5.662696102340308 5.8080380546517345
Rh 4.984061110501213 8.768076036670852 6.173184746297526
Rh 12.168212080448608 5.575202485910279 7.394401321945107
Rh 12.413825552029431 8.294559684577909 7.19309610935185
Rh 5.900653899505257 6.369457598036045 6.857864365463502
Rh 7.362780194369839 8.165527396351246 5.706056280486053
Rh 6.603116437223319 12.760949968220272 7.1745300094450135
Rh 9.75253396094436 9.202825155372725 6.949360440959958
Rh 8.967931464135372 11.928139138783491 6.323737940404651
Rh 9.601012392370787 4.93480136678341 7.891626083107666
Rh 11.693224102916577 10.752895908306487 7.332944554328474
Rh 5.1250888922398214 10.669765576413692 7.990604028803418
Rh 10.651482555848723 7.188250567069358 8.595850379947857
Rh 13.071274465374247 7.046702801765302 9.445335584307742
Rh 5.146533504519906 8.140034645112694 8.571189424364619
Rh 7.211117044371392 4.214216582489439 7.666294150470628
Rh 8.552458478960375 13.59574435342915 8.505045706178421
Rh 8.175924100289334 7.170992754086417 7.9627684740274765
Rh 11.331580208190454 5.0830154270452965 9.877561115318436
Rh 7.428326651759446 9.656288749307198 8.025417469114563
Rh 7.038616979865517 11.714226851773404 9.446721974415626
Rh 6.365176259150509 5.76323187459222 9.384619674411269
Rh 11.979625008407073 9.339122963096049 9.553064452572368
Rh 9.553299031202659 11.315547006363689 8.614449172591263
Rh 11.579784094630945 11.703616476303013 9.985788786214213
Rh 5.459857035258439 9.9452649961974 10.514998796871392
Rh 9.42103339535112 9.069553684047206 9.714117260613808
Rh 4.81533514657606 7.272165207163132 10.885609442021481
Rh 7.141723577157602 8.086266739395125 10.178898955409943
Rh 8.91887188533264 6.009353979628758 10.276804400994257
Rh 9.211232621395345 12.222063003487925 10.902073277710828
Rh 7.858398776441575 10.264283711510753 11.507630614877499
Rh 11.078564819707138 7.394824712601887 11.146377306787135
Rh 10.494379403266434 9.999662862234912 11.725655266746175
Rh 6.943291159124995 6.10601219978641 11.909040700036368
Rh 6.326894639650975 8.60162339727979 12.619531382279662
Rh 8.835570096197161 7.90055892617132 12.170936928610292
