41
Energy = -241.43169255 eV
Rh 8.148558351254833 8.794057057834147 15.2853280203459
Rh 10.467678052964557 8.058347016779036 14.926327382224313
Rh 11.502149415519607 7.730111536612844 12.686821886742175
Rh 13.226928643901529 9.092071196280072 14.004568591035543
Rh 8.746981746006707 8.392680244719058 12.909683958312064
Rh 8.705174891283223 11.093548513720442 14.872508779873097
Rh 11.119984027613077 10.38062356202076 14.740115930442629
Rh 10.549058015472987 9.997978987719927 12.366827640017616
Rh 15.009840153555459 10.50352737495314 12.612955233566874
Rh 7.674724489876634 9.11255637543014 10.63305530478034
Rh 10.495927619940344 12.777986401266384 14.051175142579178
Rh 12.257927050701197 6.945066802612131 10.339251441104004
Rh 12.728309790307428 11.457998278310612 13.117752854217153
Rh 8.166044025597426 10.929171695607208 12.496581461476811
Rh 10.057599986558548 8.212333827979808 10.588417116676549
Rh 13.537632078529988 8.740654263965002 11.481769503111337
Rh 14.612592968326641 10.726446502874534 10.086428063156287
Rh 10.882726971350282 12.409506275706805 11.548239571769855
Rh 14.107478724624835 8.436187348310083 9.05114485068837
Rh 8.982101018859534 9.004638472723752 8.360224829791427
Rh 14.788315097009791 12.994542829440693 12.712773822943303
Rh 14.06218246052521 12.679627630203303 8.329065448885096
Rh 9.479080511030556 10.903408805562881 10.008703126448388
Rh 11.554841988728402 8.561985651372972 8.488582345460529
Rh 13.12032362398333 10.412581031846333 7.825862085655103
Rh 8.099083880267642 13.278450219446418 13.553179015290292
Rh 6.524235108387792 9.810698219015592 8.433276129391512
Rh 12.03696952544396 10.353110617023946 10.287126711860303
Rh 11.299770525003261 14.671493936899344 10.42283317775705
Rh 15.724136800810351 12.8860366798036 10.330692570358952
Rh 12.422434517596297 14.107323367822039 12.792935137240379
Rh 6.866338173305916 11.490487302184492 10.261663958308532
Rh 10.598831069034494 10.698465693872224 7.345028893815687
Rh 8.517396929674177 13.224077194968194 11.062408859128476
Rh 12.268657165125921 12.394867919400106 6.49750709896839
Rh 8.189234037972838 11.616657242654286 7.9740246144228335
Rh 9.342193586943779 13.934692197056197 8.885088985141127
Rh 13.257727437332976 12.9519250707543 10.675500722808248
Rh 9.901400752165772 14.816382508190987 12.582672590167464
Rh 11.389009112077465 12.549592393204435 8.930672125041369
Rh 9.731742529900233 13.021424608416298 6.594547873560775
