45
Energy = -266.24297557 eV
Rh 10.28365007048695 15.197220578282138 15.57225162213203
Rh 7.645592517975942 12.017547141884316 10.424671229517346
Rh 10.466459437380921 15.344412652772771 13.041947579717931
Rh 7.164133545418537 9.740149141830134 11.504817996670175
Rh 9.693650713745926 15.998604047482964 10.723281806288503
Rh 8.662639781008254 13.791711077781486 11.833271350291737
Rh 8.323830976111143 11.530767371303417 13.000231476414834
Rh 8.640029559181135 13.774327649164272 14.332449871944986
Rh 12.326000427933193 14.167359447908566 14.400494818352781
Rh 8.84876830383433 14.006917456935714 9.312429533291485
Rh 6.55568427427141 10.237836452812779 9.071581222900718
Rh 7.878260252039922 9.220899410783307 13.98680360888275
Rh 10.511626517490171 12.682398818327346 15.803535268342046
Rh 12.899954736546075 15.093595101419211 12.021868098389003
Rh 8.481355321159251 11.786275514295795 8.047525109633595
Rh 8.927441454971873 9.63913653958638 9.557361287867371
Rh 11.103820739027672 13.663416150017845 8.326559488957285
Rh 10.092782836062183 10.435295787557157 14.51823228239722
Rh 11.793576775237076 15.888689814202044 9.445574999942163
Rh 11.107128138715764 13.794581395730692 10.838343013177886
Rh 10.105694282598751 11.439464110254562 10.950707217900824
Rh 10.709149510779785 12.662640913384474 13.196405298536893
Rh 12.472420091950921 11.525723486548005 14.815160548595115
Rh 13.44246088274085 13.98136063974306 9.687795610466551
Rh 9.59216736997555 9.103057413277986 12.125414511317636
Rh 12.650954976802584 11.615241083718988 10.266931325544606
Rh 12.01213268461414 10.393765668029097 12.488769850310433
Rh 10.82424902397187 11.086007099054255 8.40310331441531
Rh 13.498289382305444 12.618468157162768 12.678125453787406
Rh 10.16620390896816 7.904923519081533 14.267012438742446
Rh 12.507439932076968 8.932798850100552 14.597537204898577
Rh 11.347859947270829 9.221875675855763 10.220920774860032
Rh 13.13312992031024 12.195954955664337 7.7935397397824175
Rh 15.141134563979609 12.003781691011907 9.718599463958144
Rh 15.201496117469745 14.010627027614966 11.449677735048748
Rh 14.420744688063522 10.067422891964853 11.337155565221122
Rh 14.520470080624357 10.467791131266326 13.864255999815162
Rh 11.859467525415463 7.803395625787598 12.32542873057683
Rh 13.080775389553887 9.754558022623309 8.42476441767777
Rh 14.310622424324881 8.084278068463808 12.901343832907147
Rh 16.029446067333375 11.84540312155302 12.253809498323426
Rh 13.534375565864465 7.9585200029120555 10.346199758565204
Rh 15.454877911590087 9.497021097019742 9.037029493453606
Rh 17.183567257984688 10.411850937743708 10.682806958540136
Rh 16.131502957019066 8.160367363154473 11.126908152685454
