48
Energy = -285.76767078 eV
Rh 10.609595203899081 6.773254583801707 10.47182099626517
Rh 12.366936939649994 8.399431780405955 9.751279791348717
Rh 14.284455273879164 9.147549584567502 8.217589851754862
Rh 9.989140229946702 8.274534701509792 8.56902947497417
Rh 9.614229297316763 9.626895738997229 6.443902193916891
Rh 11.932566925095447 9.805534737065946 7.518849240636452
Rh 8.19353798210435 8.092030903852855 10.41291444638748
Rh 7.715745431978652 9.44922382317434 8.246614489038766
Rh 13.757462108377885 11.620348331530248 8.221556134029884
Rh 14.454579821871958 9.484533769214686 10.671380736968498
Rh 10.085452016315104 7.543680140786282 12.72532778826364
Rh 12.520848372870676 8.743229127361314 12.377020249482333
Rh 11.51141698020303 12.318984492325391 7.340571500461863
Rh 10.290940719766223 9.551905087787423 11.052782457689055
Rh 9.153013615057162 12.073467035906544 6.424223470326774
Rh 12.213723568083207 11.03410591951869 10.133288337261138
Rh 9.856248995258662 10.911467732429568 8.751152407059065
Rh 11.073011973791582 8.954681701225505 14.544545965618179
Rh 15.067142135123875 8.816474775904148 12.98993895899503
Rh 16.2839939017531 10.842736378398396 11.858371287881502
Rh 8.25476736940319 9.273965245423275 12.667305182758023
Rh 14.570685178692782 12.22034222399968 10.468186212792219
Rh 7.867896030175229 10.720386971952529 10.556168589310326
Rh 8.736663855151214 7.965772676439468 14.815292541220344
Rh 15.656517314207177 10.948285388834304 14.4111066557971
Rh 13.42886173133347 9.682112117716214 14.757911111100832
Rh 13.588493857633996 11.050685819769372 12.595549403033557
Rh 10.068754295175605 12.268739729751383 10.939044826657867
Rh 9.073811396957998 10.48524541472093 14.858300224870938
Rh 12.238269244112413 13.646979927794053 9.4157055549681
Rh 7.458499900770526 12.02040325452488 8.36527834610305
Rh 9.598856999595807 13.50742361794108 8.52783985255244
Rh 10.98253334906974 11.112135233914758 13.109566139761107
Rh 8.35241385926201 11.857557052142798 12.838043605150387
Rh 7.838735530651923 13.33950295319926 10.65450621035135
Rh 15.28339102079512 12.984204201653132 12.828369238082523
Rh 11.483220485641032 11.234120135114907 15.692258021803339
Rh 12.200286655299394 13.171952757826595 11.941994201750301
Rh 13.545678088352691 12.355932089710754 14.798446904699112
Rh 9.956428076613133 14.865208363861532 10.521272561798371
Rh 8.905214104783381 12.9525144977265 15.098234936781845
Rh 14.11641841088263 14.616538410577183 11.107449586361598
Rh 9.074978602882519 14.291833209162984 12.849376718445983
Rh 12.166596486374049 16.049000489734354 10.299344060658935
Rh 11.173884937805022 13.450211515548645 14.323552550052923
Rh 13.480621064097747 14.579157835811493 13.689223906986708
Rh 11.283504183387869 15.460007266603842 12.626971986941202
Rh 13.43122976328248 16.760810774727407 12.367450682761048
