42
Energy = -246.29286635 eV
Rh 15.399624674109372 13.799508965714217 13.529178378234267
Rh 13.181398361769025 14.904303356008407 12.79048362373542
Rh 8.912191250568883 13.465957168524255 12.700636930475346
Rh 13.253130422829209 12.58779939767949 13.845590579490569
Rh 14.311453920441418 13.169720179564106 11.321382888803221
Rh 11.018488562491735 14.098299821167217 11.650245139375336
Rh 9.76422646549132 11.52199624331887 14.170756616011506
Rh 12.941310563139682 15.038107267960648 10.24253220484234
Rh 11.942066086013478 10.986014653777001 15.056823887252476
Rh 8.917193480786684 12.907484413857757 10.22228313810173
Rh 15.314958678475616 11.359239206843931 12.711424847306171
Rh 7.016766590672851 12.088082893137246 11.746140485225915
Rh 10.831781672867738 14.024378534811921 9.052071246409295
Rh 11.98159256251817 11.932938239989078 11.684698910265379
Rh 13.252288697464948 10.003739797449715 13.092406450842445
Rh 7.418695799875724 12.20009594907568 14.291035487028665
Rh 9.523831819977984 10.84315335840416 11.648756298101523
Rh 10.825524874577992 9.309952418610331 13.470789162049037
Rh 12.964808406214464 14.713511781714493 7.707115887525376
Rh 13.023367672998452 12.696433382303617 9.257970273518126
Rh 14.866077280850151 8.647210605041977 11.764616238153861
Rh 11.718137774257515 12.66841812940722 7.023530551669204
Rh 7.812017314331785 9.897180571553406 13.244721318726045
Rh 10.780805312482734 11.272277591324503 9.376703921868287
Rh 14.062738945556458 10.686384819681662 10.517552404950486
Rh 9.174737125405555 12.58447766279312 7.718824918057303
Rh 12.721134440844406 7.587788652667972 12.582611891881522
Rh 7.067968671585795 11.742796162955116 8.954061597562697
Rh 12.850403867754553 10.47939648408156 8.056601492396045
Rh 9.293538295140504 7.5555129419741665 13.075244810650844
Rh 11.652512497870678 9.41119492876201 11.064116637331363
Rh 13.455058776236768 8.41586749461701 9.535282505789738
Rh 7.2393648513779585 9.899693599824833 10.670695918980707
Rh 10.446204142791135 10.46035482742518 6.79865553197592
Rh 10.95608422363755 5.901722122057135 12.60020948878552
Rh 7.173944575293584 7.722544823709829 11.881865053992513
Rh 8.000484003985855 10.86612332819013 6.372607762788455
Rh 11.027134911320458 8.699055224506544 8.629905117034482
Rh 11.519451886152005 6.885407521341057 10.410246210595329
Rh 8.64472453090563 9.764913169182933 8.518150877447413
Rh 9.377144210335857 8.223180522033479 10.610363333579217
Rh 7.22805795263885 7.840207940997065 9.263536135229382
