42
Energy = -249.0854737 eV
Rh 7.9898690910478685 12.825456864748885 14.761723569183255
Rh 9.653399639899753 11.029678976266021 15.757127601656508
Rh 8.781078484633584 14.528077595325707 12.957579381192348
Rh 7.042785573367822 12.583866257476537 12.411146277354673
Rh 10.406549219465013 12.75691107668692 13.990323665328335
Rh 12.063531705962179 10.980023861323811 14.962989897080762
Rh 8.637371194969353 10.725851909339573 13.414459105089431
Rh 10.328032375407876 8.982959159952735 14.368754854085944
Rh 7.91181114428267 14.257466731136306 10.529004303739589
Rh 6.239954318545964 12.340223733418837 9.996968716891022
Rh 12.905100523329155 12.605709138120801 13.111127869344752
Rh 11.200397170532288 14.390782325010179 12.06543033623949
Rh 9.469788976582242 12.457862936516982 11.511869076995723
Rh 12.763652560878912 8.515101295111553 14.885773174867278
Rh 7.744064324307456 10.495580494312716 10.958055949937211
Rh 11.142826421257622 10.665163588198018 12.509504965932162
Rh 9.385006445521412 8.709868908621843 11.953391155937812
Rh 10.316041460236903 14.136429600610917 9.589625484331567
Rh 12.110809538724704 15.867186111715627 10.161194449918563
Rh 8.57634696786704 12.212002896579596 9.004960037518039
Rh 13.681706930319875 10.1258924928221 13.104156866980109
Rh 14.361986794342194 7.642246463936423 12.965067464652115
Rh 10.209753774935479 10.384692432655553 9.995475369857113
Rh 11.913652604460681 8.109857212717603 12.478056492275664
Rh 14.47256676140299 11.743928806238078 11.193695830324959
Rh 12.745433603340194 9.795979894473742 10.589759040944763
Rh 13.679985947500903 14.237236915533426 11.21208748139869
Rh 8.508157674176987 8.4621857395706 9.49533416996463
Rh 6.956988974017516 10.26955775943649 8.52448204736798
Rh 11.971000501148552 12.356789878707046 10.579501553300698
Rh 9.325200197441783 10.194627726744905 7.531585460121743
Rh 11.019265659731074 7.872321248252446 9.995379838429066
Rh 12.744998032836723 13.94814252229296 8.64848688996649
Rh 11.035011182419153 12.082864023000944 8.052490374743975
Rh 15.20323153061542 9.207537648261408 11.142197306195147
Rh 15.901913292022702 10.810854195110998 9.28099537482886
Rh 13.46983471343279 7.277702052257203 10.545043003277566
Rh 11.787664150609228 9.52939288764072 8.086361289971666
Rh 10.007200756449672 7.759875075950955 7.628818329723296
Rh 14.22806250271069 8.913466493141003 8.67677001351953
Rh 15.154071044991094 13.34319061077769 9.306437182303906
Rh 13.52987523364844 11.457053475467369 8.642300581142164
