45
Energy = -265.79280311 eV
Rh 7.366945608742262 10.910371527433634 7.413063847229691
Rh 8.016696728970912 10.487482900627265 9.820696755185642
Rh 9.349965637989593 9.333327243426098 7.9875678733719715
Rh 8.858257293238156 9.92267062579632 12.138951067121754
Rh 7.382457400037863 12.847857901281339 9.091837580987574
Rh 8.831135636695459 8.139448066721885 10.221303696630764
Rh 9.574508383169269 11.924897036506966 8.1326694466182
Rh 8.040649601339098 12.395993604929572 11.547870057414785
Rh 8.796616532063565 11.780697571233151 13.962836165422331
Rh 11.131204823010432 7.780303946483431 9.222576059744402
Rh 10.33469374683309 11.498991675998058 10.79624942994897
Rh 7.435691732540976 14.778998485541264 10.877727903030834
Rh 10.984118815129028 10.382721549111746 13.452962513380104
Rh 8.57650561903555 14.284805929985405 13.13052138180304
Rh 9.607557325123251 13.856050541810419 9.902577424179528
Rh 10.914784478800309 8.254610055434778 11.671584176955857
Rh 11.52660619652662 10.300751779297409 8.8628828176353
Rh 9.50397932791324 13.964394448181062 15.448762454757972
Rh 10.85396803906207 11.845150061010925 15.57663169269912
Rh 10.863686443987955 12.994618184419217 13.092585769895539
Rh 13.113781449526885 6.322314585731696 9.70079606421786
Rh 11.78115683491208 7.942248389465938 14.002543618467955
Rh 12.92101639855558 6.845551897452411 12.04605937955356
Rh 15.50295439310198 7.272939705797929 9.669959031542165
Rh 12.48185600155648 10.08479830111515 11.267102861029333
Rh 9.678086562651949 15.878351060702062 11.46070137436745
Rh 12.656032859392512 12.643010100748263 11.266936636372023
Rh 12.14370931719564 9.707286280304915 15.72966167425183
Rh 10.658948139671228 15.65578909337503 13.859416620123554
Rh 13.528026308433942 9.80433694976783 13.61046569288136
Rh 11.80480025859729 12.942976259297355 8.781802345247556
Rh 13.52798210022013 8.764396036064856 9.241366263788803
Rh 12.139073453795326 14.028184061770373 15.248239377498125
Rh 13.491112539464282 12.377604081644709 13.731888576437646
Rh 13.841356618556931 11.384623818786709 9.293724311815058
Rh 11.876535314189214 14.96088729749867 10.445321118328764
Rh 14.591583604025386 8.529842071061704 11.656747714942373
Rh 12.819792995784304 14.759005708896192 12.806711017100858
Rh 14.852401117423808 11.128639864400624 11.87368521293294
Rh 13.343691133380068 11.849389440985801 16.141897803897024
Rh 14.973584246135571 13.710601061371392 11.974562354394575
Rh 15.818468307214378 9.843815954363654 9.817211518834846
Rh 14.091525601169458 13.99400658249123 9.517946353234127
Rh 16.089361767657618 12.450252149653146 10.019194649481099
Rh 11.854266566721387 16.96613937156437 12.015333574788539
