49
Energy = -292.81134608 eV
Rh 11.958589494942716 8.946952535246337 15.021635086321643
Rh 11.767227405753303 12.914693407026666 13.038008035857908
Rh 14.227801878754493 12.74293225284701 12.356724877441202
Rh 13.056843163791402 10.868253456957413 13.699997028598519
Rh 10.470940442375767 11.01942522146454 14.315779185254794
Rh 13.81552673024454 8.455687183353023 13.251887357335267
Rh 12.856080743168713 6.6156619231622305 14.746071345507765
Rh 14.741290489402493 10.277722349599475 11.576971324155373
Rh 11.01978561479559 15.251937174682318 12.518382175626975
Rh 9.249956529396723 13.129328863760303 13.410156161906636
Rh 9.415172086223805 8.729829792907227 14.588184188981506
Rh 12.924937953986221 14.547962584489957 10.981491536314431
Rh 14.131008773522602 12.543149466968753 9.86054795784261
Rh 11.315155601365122 9.11969309980289 12.506993555651833
Rh 9.940851032863389 11.197755134948105 11.8091809403231
Rh 12.414940248549563 11.100342534891158 11.114391313180919
Rh 13.18955282637208 8.392902959956873 10.753136664445003
Rh 12.80670540622409 6.292720133124795 12.24899413358665
Rh 7.988773844890318 10.505491529151017 13.257081204437284
Rh 8.754855865809194 14.936678697879342 11.558927467845143
Rh 10.588554452340576 15.480924000414763 9.515871800562218
Rh 10.65911164527963 6.773632095021835 13.433654942425258
Rh 10.744313086694499 13.350968228188465 10.707011914554334
Rh 7.713659130564162 12.677489442093577 11.432473912106625
Rh 12.609898598294059 14.162432878503067 8.43511778692142
Rh 13.780728603318535 10.091801897155008 8.94673899060383
Rh 11.769684521843638 11.748503189128506 8.663661655451714
Rh 10.164502544863158 13.676308969012629 7.7728021478891876
Rh 12.813126133333705 6.0479890290719345 9.739817190287157
Rh 10.683467356579802 7.0283042549674315 10.809879192715346
Rh 8.159692353367484 14.120069255506708 9.253785251606168
Rh 9.222379264721118 11.790144108503949 9.308612421081225
Rh 5.900740361437314 10.951103306230156 11.603397359802797
Rh 10.662907529413806 9.558617390670129 9.87846389770139
Rh 14.058807751392564 12.11659724306634 7.376946252332489
Rh 6.436504933457602 8.501415604120947 12.05545793712787
Rh 12.32006915666486 8.071415462321147 8.372063079954103
Rh 8.053797331305445 9.990285070977455 10.60566469571675
Rh 6.56456338856081 11.850105592514089 9.272188646305665
Rh 10.406907595484507 6.3927362805239945 8.404705533650496
Rh 8.86961645532886 8.142343602156831 12.200200462946784
Rh 11.884526553941049 12.71856283768452 6.196241468480998
Rh 9.884799260741785 11.1511391632033 6.844379264404828
Rh 7.805388146333839 12.574284071943904 7.1694668576597405
Rh 12.236247543287707 10.06262717557076 6.815076217320908
Rh 5.934371804976987 9.214074903269998 9.575958053619042
Rh 10.03734901708603 8.748143554598682 7.576631097012164
Rh 7.832468842226777 9.930714295613983 7.998011988382578
Rh 8.470078305442108 7.73547517808164 9.499148030994414
