49
Energy = -234.08899733 eV
Rh 17.14109185957508 12.76907414205357 15.553316155444291
Rh 19.965173676812782 15.233712470105935 15.570044749423232
Rh 13.321235905526468 18.51580533521688 22.148975154817812
Rh 14.454614826770557 16.528172365136655 22.744753074091133
Rh 12.676459404940436 15.267973950530532 21.596472476064918
Rh 14.318689828645592 22.735455510910242 19.291028235542427
Rh 12.707053196268571 23.23445073299213 15.632736421055474
Rh 11.493240245759418 21.1350524324084 11.937864276277471
Rh 23.45258102778936 14.931853001396325 17.586745643947584
Rh 20.372423617881292 18.0714401692637 12.984349448145897
Rh 24.158261623560676 22.963069627317292 2.3625928193886905
Rh 22.71996761390822 17.659276999913587 22.568417630614917
Rh 21.85691541452999 13.746537137466335 16.210498599951915
Rh 22.672174540485543 15.438522753430139 21.756955546859242
Rh 15.39806347598474 0.09460051936677415 21.32762585796304
Rh 24.535115324058868 19.297681554233943 13.745103757518075
Rh 24.25480888470704 18.498460082759586 24.48302859268953
Rh 12.721633966171384 19.200598856933663 12.585270280584687
Rh 23.195825331634612 22.0030304448121 0.41270284088646814
Rh 22.93956763520166 19.760884090597692 0.7530917258389809
Rh 13.499938829542682 22.471635253636222 21.569710088828323
Rh 13.32656718274017 24.718414555374352 20.349407940333393
Rh 22.448495679948877 16.187292829309047 15.820836464185167
Rh 11.334249623125027 19.784513639354586 14.482322330798654
Rh 20.303742742213256 3.364099428775049 16.63861056919346
Rh 23.70411877248099 14.354710726799272 19.92411598729375
Rh 23.530758212620253 17.03977154203279 13.872354634230208
Rh 21.2745222724183 15.970111794614812 13.631446011549153
Rh -0.21780263145487339 15.890406483420307 21.30012991800563
Rh 18.62231422955973 10.94648167707093 15.797102486826441
Rh 19.16398880784482 13.310106050453808 14.338577324896331
Rh 12.671821170676825 18.982478661714854 19.576923104452888
Rh 14.208620661717134 20.34865625743045 20.895936554579798
Rh 14.15949417883602 24.28445694114882 22.98605856273575
Rh 24.564210875367877 16.330754952622268 23.53813483292436
Rh 12.314365222712185 22.517272170845942 17.94235894479594
Rh -0.214481223894018 13.28793806105686 18.09561365632127
Rh 13.69867736655983 16.968391172598064 20.290447445241075
Rh 13.79735493809965 14.297811423393918 23.406293006526397
Rh 21.828734999843945 18.183410909547955 24.72431381140119
Rh 1.3489653575758689 19.496085301602328 13.922044089665018
Rh 13.025771777529183 21.614146371349754 13.747161124476987
Rh 12.727177969419108 20.806777372838294 16.104457980446917
Rh 13.90412780140925 20.498310285607065 18.191732491528505
Rh 0.8391215890726472 14.066738806466944 20.10792090841589
Rh 22.420951953413716 19.092794075567447 12.95159251889178
Rh 21.838143076719316 23.097269030626492 2.018818163867754
Rh 19.701339320271256 12.914975225442037 16.77391777530431
Rh 21.412317293343456 4.751844050848371 17.973184549927016
