47
Energy = -279.03109374 eV
Rh 10.037412939960431 12.785684336556315 14.520340785436506
Rh 9.313439986738922 9.906020365636678 8.996842994125737
Rh 8.403222517776722 8.012699096469092 10.48303934949386
Rh 11.677616805426442 9.097202398470614 13.67358454668942
Rh 11.08967251675669 12.124755517288381 12.389386048201912
Rh 11.577408299786688 10.902543535435449 15.64352548893257
Rh 14.070193652201423 14.947964448565452 13.849940060766313
Rh 11.230332242665913 14.067485082775994 10.623655783235282
Rh 9.983238537946336 9.93627314553574 11.677938241967203
Rh 6.947838205480907 13.066645263393376 10.872611106989838
Rh 12.876055769817805 9.368091364635536 8.6240159614592
Rh 6.90715288811449 9.205736339474626 8.447105431220177
Rh 9.176089920373329 14.116645432507594 12.284480619533426
Rh 5.797985365272368 11.51802558565337 9.007915903140637
Rh 13.365162133907578 11.735394019600944 11.306192942566723
Rh 7.007152033998976 11.009239109685025 6.7690122471149765
Rh 13.465637893486887 9.116989154629787 15.472304204175588
Rh 13.213238697467375 11.16937532744286 13.725683091442148
Rh 13.632246641705073 14.16411398864622 11.500180250233365
Rh 8.283731334217112 11.77286148343509 12.69989059929802
Rh 8.79666506956221 7.560998565982356 7.972888575360671
Rh 13.993149206271703 11.482728855201879 16.472423219132043
Rh 14.712343933533797 9.879016786322882 10.38004172000527
Rh 11.600529947386793 14.564585395698025 13.124913351771989
Rh 15.609600629408853 11.298989592485528 12.454986003157952
Rh 11.98808941352383 11.364487779816157 7.186494336394017
Rh 8.892480384900539 14.673355544877415 9.746599357520815
Rh 14.283805865829109 9.035659777361966 12.935436194896385
Rh 15.66205424459893 10.294237131025625 14.808748085384897
Rh 7.825077483798737 12.846012489192729 8.329398975504903
Rh 10.463482085085165 7.491265294104074 12.041751166358749
Rh 9.54646458504039 10.253543579929987 14.261993132265234
Rh 10.881034786469002 7.877637615599789 9.526338220279813
Rh 7.28233458963556 10.431403681038473 10.668549006991345
Rh 15.076548660827594 12.750075053106181 14.535534949574071
Rh 12.570755029048417 13.204361609423195 15.02359943705151
Rh 7.8822861659315535 9.05084217822656 12.76064206780463
Rh 9.250386519997484 12.172891023511514 10.34148110181766
Rh 9.43484355341802 11.27648903269389 6.992190258952385
Rh 13.128851599930687 12.968944683597286 9.034640752458115
Rh 12.428737192354523 8.992633620793901 11.197750746239443
Rh 15.977412208911188 13.826836177419361 12.398423445667675
Rh 10.805124707277733 9.000645516256071 7.18514454688542
Rh 14.605678852524042 11.120469119726144 8.091599578813925
Rh 10.54299376954933 13.183725963707012 8.323123991613741
Rh 11.499600879654597 11.14092720070212 9.728408984529016
Rh 15.46546623252761 12.494117716461265 10.169879117644262
