47
Energy = -280.18125896 eV
Rh 14.075050633991266 15.188807277194705 13.509812810132301
Rh 13.299614361528132 13.223533583309003 14.942382863019668
Rh 11.487973011664941 14.774901279127537 13.623398037255626
Rh 15.357785816579977 12.827252392643455 13.319951913892718
Rh 12.26243113563358 11.15352365827567 16.09813971807191
Rh 14.554753499790333 11.001409848249981 15.034162100236282
Rh 10.992642182558582 12.291354936059747 14.200633267159924
Rh 14.999141518069347 14.50113324075465 11.236502968488596
Rh 12.52649727114751 15.478115646247481 11.40616851396119
Rh 9.12173107494186 13.858420295494597 13.203465892491872
Rh 12.959880394668009 13.00213120230483 12.444017895264842
Rh 12.87137380117846 10.528605937595623 13.224792022493657
Rh 9.996317807036798 15.757835152021562 11.747665828430419
Rh 10.623292642981964 12.782769263026497 11.318934053526494
Rh 12.703842253873137 8.820337071715887 15.044072693555384
Rh 15.303153947526141 10.272980578506592 12.676699357519539
Rh 10.383895387448497 9.883417109915584 14.874102282016944
Rh 14.890830001234248 11.97154497020667 10.889943242618987
Rh 8.586105090053934 11.91943106965324 14.79222228624917
Rh 12.988441415811193 13.531280601228884 9.897551217121158
Rh 13.715505970386532 8.229245259194322 12.532097095511114
Rh 10.688872296315727 14.690661141446176 9.548138841753614
Rh 8.471897519328738 13.872897977563259 10.551662568529975
Rh 8.255042168820635 11.747158603185088 12.046344366602435
Rh 12.454903072678706 10.958889264947038 10.716182293867131
Rh 8.17717989020442 9.753429960654072 13.589100608563552
Rh 13.892305249022312 11.590534554349368 8.512251023380239
Rh 10.387124273994274 10.379063273243368 12.371360049126055
Rh 11.759054287329011 12.898405390456992 7.825434397471195
Rh 14.432779390111099 9.474121334152752 10.31454299066745
Rh 9.15711267665936 13.159380964232025 8.13943854340997
Rh 11.222743383586238 8.044736896299534 13.122389212090088
Rh 10.417669359080028 11.291579321913463 9.186054946663084
Rh 7.947202827011412 11.414614978071583 9.566520808009551
Rh 8.774843278284354 7.635403440561716 12.447291967817192
Rh 9.654994071703833 9.135080939616762 10.40611897671917
Rh 7.317326173024007 9.438574406733977 11.179594940771432
Rh 12.371010116292181 10.997074899624804 6.289295826710059
Rh 10.083631110748172 12.161695509225533 5.963599633619203
Rh 12.32434907355505 9.649148138141873 8.43001409615754
Rh 12.149050921604095 8.327397631097398 10.592382392332183
Rh 7.9127443149964085 11.180324398786986 7.005476063477899
Rh 10.540045582089475 6.48735229319687 11.05489042132512
Rh 8.067941016682314 9.05234115347395 8.441463644512588
Rh 8.214406478328252 7.064118950849864 9.996117893864678
Rh 10.107613483409141 9.91734280222415 7.138701071508823
Rh 10.58680509326469 7.74954772945595 8.61782268826252
