42
Energy = -248.53044881 eV
Rh 10.429538695895081 10.13648608015626 7.068525638795646
Rh 10.275590016474677 7.601103767600409 7.489040409231114
Rh 8.299471604899118 11.16163656109515 6.194554523065991
Rh 10.227886424720515 12.8230857096653 6.816404637099747
Rh 8.04408698150905 8.88310710770352 7.541344836833001
Rh 12.522387247823925 11.561393117106249 7.466584015286685
Rh 12.639918720670767 8.990551874428125 7.702836957672288
Rh 8.885248517088252 7.0442183762814 9.757869207569307
Rh 7.794178205304556 13.408494933841245 7.382068059307557
Rh 13.991649877511128 7.992654542299239 9.63773216623568
Rh 14.408904053708826 10.506161954368777 9.07102727557372
Rh 10.407266325816943 11.877031810328289 9.080474008109992
Rh 11.493159965598563 7.407531035571316 9.643499359796781
Rh 9.71269384948924 9.371433528627225 9.439165340718832
Rh 12.107787048883589 14.156243579475445 8.005711856187292
Rh 7.927597686118392 11.203901064389267 8.679379377195106
Rh 9.734395995353864 14.880333927922157 8.289464084476402
Rh 7.169002492372022 9.190273360796738 10.060603449549333
Rh 12.904473741225882 12.497495762539598 9.740035033582588
Rh 15.089078413720888 9.043000875893323 11.62185610566277
Rh 12.90588402136072 7.658419379473462 11.871735885268178
Rh 7.789254069103241 7.677587717455499 12.074369667279402
Rh 8.514676641613823 13.390635187631409 9.840793976380164
Rh 12.141718400744589 9.8906920966613 10.038057299865567
Rh 10.246156131150784 7.590664253778064 11.875299534065539
Rh 9.00650922877524 10.119273538827045 11.740742707934748
Rh 6.93482877049073 11.623450991437055 11.0238332787439
Rh 11.075523471812662 11.864345432634359 11.526044816085232
Rh 11.534598743667203 9.639490992971739 12.590964593568483
Rh 11.010384922293648 14.207754331104264 10.497875413404968
Rh 13.07995275667193 13.541299582580642 12.048336891923869
Rh 8.789914994551829 12.90465760788383 12.24074587403698
Rh 6.090302256409156 9.43136224561109 12.351543790499505
Rh 13.744799890999579 11.071759523767552 11.692613028019801
Rh 13.66319257833153 9.32632328745448 13.842790931170054
Rh 11.602269048091209 7.530660774314295 14.07235867916938
Rh 9.300170470186243 8.846942308037592 14.00547652421198
Rh 9.99701807064204 11.353181670916511 13.89878816413718
Rh 7.477486811947528 11.118180028474164 13.5685920421811
Rh 12.530809070147686 11.772167141111108 13.895209363110203
Rh 10.880687239567006 13.79863863070404 13.305774174519083
Rh 11.495229486861042 9.791487381281385 15.261771268025058
