47
Energy = -279.29219727 eV
Rh 11.274689754084632 11.809052257289293 11.761059653444065
Rh 9.538014404270543 5.172101100289985 10.915571369310092
Rh 12.258881001166838 9.740219014584452 10.54122712021585
Rh 6.0845277900204655 9.69229348223635 7.38454787007495
Rh 10.392616613058586 9.332755422298078 12.47095597589142
Rh 10.496779391881324 11.556351721041226 5.5994332015582415
Rh 8.947386041176136 10.877020779339183 11.052694523560977
Rh 8.08267494788778 8.008500957364745 7.995182824798072
Rh 9.162757428584731 13.416529211693286 11.859324616836618
Rh 12.90408974400817 11.024783544114383 5.6586769893602
Rh 13.42700963021285 7.662968605706856 9.911320938031736
Rh 7.317677154626168 8.927622039565097 10.382582049402892
Rh 7.477936423191359 6.305410343005434 9.946597917045848
Rh 5.923375771858065 11.145188103959313 9.681167871771672
Rh 6.381568614456535 4.787221935652595 8.33458947485114
Rh 7.458171805945467 8.221451533792616 5.583147014613182
Rh 9.350990638567657 11.44096194228129 13.502867464795647
Rh 8.657378182909902 7.37039767019703 11.966167402394419
Rh 12.692938083272159 9.977494308036803 7.98329687106826
Rh 11.078652625685832 7.052992049906339 11.476644473811444
Rh 9.61590223313091 5.957806353501861 8.518333045236297
Rh 8.233266533153955 10.541953337815098 8.595171908453498
Rh 7.85990595786054 5.802583042924259 6.675145743788197
Rh 8.053248131978373 10.728876081431968 5.96646928021593
Rh 10.564373039756545 13.522657274047473 9.675057838051957
Rh 11.867950688627829 5.632833095420147 9.601220029789522
Rh 12.085730784154864 8.662735558940224 5.790144884139224
Rh 6.680576740504998 12.305053706080217 7.503530764526103
Rh 11.670110987974848 7.550003316234901 8.063382465568354
Rh 5.33487870128374 9.987643348419457 11.838912554834225
Rh 13.282580468225207 5.8676265932116 11.789151221981506
Rh 7.929885745171596 12.939457165724594 9.740787814931915
Rh 9.669262074016217 9.284670315083886 4.6331190512371485
Rh 7.686974435282425 9.48822557213623 12.957158734937451
Rh 12.99308614678784 8.320590757417479 12.443080196291142
Rh 9.935268318725079 7.2024816560894775 6.181364940889088
Rh 9.248104048124175 12.741473932291072 7.471576434418454
Rh 4.954501007172854 6.25208633809832 9.911290688470205
Rh 10.6714255400455 11.142155039972787 9.136902297043296
Rh 9.914693459505596 8.667053721621075 9.769469161719039
Rh 5.736457594944457 7.168907890539709 7.566807998743213
Rh 5.003043850287744 8.708079404707231 9.536580985738771
Rh 6.056144789602979 7.494947357037666 11.974376700024031
Rh 12.927027226211091 12.090228778887482 9.763886777191852
Rh 10.16606633257951 9.593499473274752 7.172849532521223
Rh 11.817083822985943 12.69401937501498 7.478163791677599
Rh 6.942886245941675 11.939586442624693 12.047560485647995
