41
Energy = -241.27507205 eV
Rh 12.3307927021823 6.395207856528106 13.424612608253831
Rh 11.754399413253472 7.635061879134013 11.143699960555978
Rh 9.342531086131055 8.571814162657343 11.065708045476867
Rh 9.984319269411293 7.012620018578691 12.947325394708217
Rh 11.824517748525723 9.654438090273636 8.526656032755856
Rh 11.28026332836297 8.61176935038739 14.444254784259078
Rh 13.399580492452685 8.560623747838607 12.851494876060142
Rh 13.237954613207297 9.82182626139585 10.599270430860845
Rh 12.676984590386546 10.090176107426904 6.231641503537757
Rh 10.194745552968131 10.429357477948177 6.647947011197052
Rh 11.183193095226917 10.002422003715946 12.248542208314426
Rh 8.689160022565826 10.98856877439944 11.46635954219924
Rh 9.247961939023227 10.042834116052022 9.039750864803466
Rh 14.070732314049312 10.78666560925632 8.321701783131394
Rh 8.93992375079001 9.35544421940006 13.467011951983158
Rh 10.464033393570018 7.704447029560977 8.991723542344229
Rh 7.758829054718095 10.831493483882983 7.17880364626967
Rh 10.406728522582435 11.028480484663906 14.847636002535355
Rh 12.889651202538186 10.635896058319789 14.299960544107348
Rh 14.956034163675582 10.49891538483475 12.669539450108243
Rh 11.075209737132534 11.618468530887746 10.173329190512343
Rh 12.992131598843372 12.075550263634682 12.056784287652626
Rh 9.574474620442539 13.505899582483343 15.194977421178333
Rh 9.421329961122906 12.491406250506293 8.115516247841969
Rh 10.404784286525516 12.497530657895748 12.69022818876915
Rh 8.157151116702638 11.828891923326552 13.853486394448325
Rh 11.92250186180588 12.11114515068394 7.52725854403303
Rh 15.241551395543043 11.573351283909913 10.395999549410075
Rh 7.396167742180404 11.831571815988454 9.455506817297406
Rh 12.091027722113983 13.046720722094252 14.658051671006417
Rh 14.557559470279598 12.607163672838073 14.060101117553147
Rh 11.11673471799243 14.177413941269034 8.83440613644362
Rh 16.47715304609133 12.599476275737148 12.439229036583635
Rh 13.25049850128754 12.92534348754779 9.516113311365322
Rh 9.272087713882131 13.585202414703028 10.545286686124323
Rh 11.780824318482024 14.227199818099876 11.283703569462432
Rh 10.914444202363955 15.03603728151945 13.56786218639122
Rh 14.688707440564439 13.932214577930623 11.320307643640446
Rh 6.997577934791646 12.866129597554755 11.639017814403987
Rh 8.53377416109223 14.284273307678939 12.980753163300115
Rh 13.413149560702209 14.779003799874825 13.271429663820665
