41
Energy = -240.97285853 eV
Rh 15.002469155206025 7.929153133856466 9.680195328997796
Rh 15.401406781056417 10.411600927147695 9.146810150430367
Rh 13.64173713201098 8.9324704416653 7.811865778673393
Rh 15.172185487137163 10.191568234544201 11.751905947048067
Rh 13.696490654569395 7.843645482140015 11.848047321465957
Rh 12.341588514899303 10.118831286902283 6.024191055698535
Rh 12.33949169208546 7.509296161065463 9.663925659718554
Rh 13.342747446681091 11.571875918541263 8.040290115957998
Rh 14.102563075638773 12.183149114240669 10.514446456362649
Rh 11.29189256365735 7.937182869629905 7.243729127874721
Rh 13.084775476381614 9.846607181932608 10.21650700887048
Rh 13.190190484855073 9.779903777758905 13.333723058123368
Rh 13.913662733601237 12.211771059383638 13.124086583334767
Rh 11.203949209572077 10.126044897371205 8.435686208997993
Rh 9.833605140199035 9.909557115048035 6.202701449653666
Rh 11.286073617500735 8.65874023776416 11.78531054415686
Rh 10.916719455013245 12.278867891554114 7.1488503762188875
Rh 10.834055237301593 14.935446548670077 10.605528608757668
Rh 11.847972087380438 11.416846875095517 11.841243122200021
Rh 11.679113926766588 13.737387658548409 12.888589789444211
Rh 11.713770384002531 12.732814000429494 9.601376851537571
Rh 8.310245898652122 8.569383640482084 7.626912211319402
Rh 11.771476296675926 11.573470254373042 14.454438111787733
Rh 9.439823571437577 15.053068704445073 12.858732478149268
Rh 8.69567439106477 11.05729338207177 8.174000341393283
Rh 10.953744061561414 9.04448763202453 14.34569629114122
Rh 8.78202160155335 8.488475995117222 11.988762602478133
Rh 9.805469376924725 10.510149999879278 10.432064451326227
Rh 9.379165170006564 13.438882981012485 8.849423577849965
Rh 9.84713391565584 8.125265775139725 9.5194673775805
Rh 9.631921681109638 10.70846007729911 12.999018262999297
Rh 8.045587758879535 14.655952619677038 10.643755887447371
Rh 9.7100944134247 12.8439782988674 11.443914529096327
Rh 9.548878168148347 12.936525248659676 14.251055555486134
Rh 7.499263227790768 9.513015425262388 9.996703691772176
Rh 7.5843174548659995 12.108686842470881 10.268082685706663
Rh 9.618379384825968 10.860018915826277 15.693521752113456
Rh 7.2211087041233055 10.620264677172585 12.363875107599053
Rh 8.13949932398596 9.168277923387334 14.38388709768259
Rh 7.479578981680849 13.225618640267092 12.702737559202232
Rh 7.35501489667907 11.64047230844412 14.71399905309579
