40
Energy = -235.11326493 eV
Rh 9.785918711519097 15.430531005679285 13.193776853754242
Rh 8.921801205979705 14.477961424181611 10.890880026740865
Rh 11.524889769491175 15.195669961361173 11.137486688289286
Rh 8.152422302002712 13.267557717774718 13.230221764237895
Rh 12.379825517116709 14.51240593301907 13.466321388730629
Rh 10.351697720825166 13.46980099843927 14.851944231677683
Rh 10.525016915234524 13.185899673359563 12.34635771844144
Rh 10.839382380022018 13.11821159736646 9.799435129877825
Rh 8.419472663433977 12.385988413712841 8.822501998320734
Rh 6.983258828963644 12.91813337411921 11.026568357006866
Rh 13.151630272436714 13.079350317697322 11.178593883462637
Rh 10.611456535655543 12.609595979988544 7.371560853423745
Rh 9.672705764117316 11.149115931180601 13.743525184497283
Rh 12.275923986254918 11.90496129043965 13.76695839705018
Rh 7.305989497964897 10.683645389562232 12.670698489806172
Rh 6.653269978064323 10.724993612855263 9.922611957657503
Rh 12.782200626584912 11.885486368077363 8.626994023958458
Rh 8.959272549879971 11.031620855854266 6.413960455114058
Rh 11.604718153558153 11.077837326067069 11.47269208485075
Rh 10.583052268152732 10.578863994569675 9.085150168120787
Rh 9.059254885489333 11.354162474998937 11.103739682720791
Rh 9.075335632302252 8.75855898270756 13.140097093673477
Rh 11.595705183047807 9.419307323187379 13.411869221769292
Rh 7.882297220389166 8.817993894089604 10.86893501615292
Rh 13.835488955796222 10.392885404385023 12.384176600331973
Rh 8.341518208662624 9.700980175454916 8.410628400922787
Rh 14.768839150465075 11.429026576094468 10.172583895580786
Rh 11.412355047650298 10.229720889906455 6.767278351919954
Rh 9.60802134830034 8.415075127324174 6.733550454156276
Rh 12.970576381346222 9.632133700887538 9.89139450172456
Rh 10.543441863526827 8.78504390706334 11.002046958233858
Rh 11.017694466059487 6.995209542603483 12.886078839568993
Rh 8.897432902893645 6.582502230313234 11.498812619743614
Rh 9.276556345878724 7.431571099256563 9.153518756182617
Rh 13.642185992443043 9.441251249317661 7.53629632820247
Rh 15.25281140091972 8.883514478356334 10.788060771952722
Rh 11.557447172752648 8.096634329003248 8.34940062681817
Rh 13.125221504917844 7.909141683932556 11.825964045496427
Rh 13.729397471832616 7.291864326685452 9.355619081114336
Rh 11.45297638090395 6.439493575785025 10.377889201840476
