46
Energy = -273.23435326 eV
Rh 15.093267031674083 8.695249678646238 11.687558061709183
Rh 14.171400676484481 10.463835722384522 13.274100025824337
Rh 12.617891991735954 7.084985514687139 12.46588128297882
Rh 13.569714926962451 7.26954528620913 10.039136860363888
Rh 13.913754063170273 7.701641416992506 7.516862474219851
Rh 12.87177036571735 11.88788205541898 14.989178551241013
Rh 12.414623486213413 8.973075815697616 14.300408284188695
Rh 15.018734429849646 11.369158537760626 11.028223628407188
Rh 14.568918159103013 9.51599734413092 9.251421692057297
Rh 12.716915187808242 9.414815045837779 11.435442433477595
Rh 9.908721183590014 15.08676389704029 15.277522313626491
Rh 12.058124772245892 14.182600763220924 14.265278090972267
Rh 10.051872264440352 10.011094934979246 14.801636052434286
Rh 10.500837704208108 8.66012911360784 12.623583693623528
Rh 13.428116774762113 12.819890844288246 12.613918433594367
Rh 11.526604249491433 11.084933667736166 13.013316302662695
Rh 10.935921256441093 7.307308867011157 10.486094455070658
Rh 14.787394442625484 11.979152400894332 8.3825357071888
Rh 13.874813525849898 13.679534264874 10.24884586592695
Rh 11.649371186387274 8.374811849996952 6.421064239767036
Rh 11.798287711134648 6.464863894497799 8.225161571123243
Rh 10.18358888257813 12.511925154937627 14.811016809119309
Rh 13.316603540000562 10.261678290317914 7.089622411450006
Rh 12.427219591709335 15.171610445025534 11.839239456897362
Rh 7.830704028112194 11.384288176096485 15.025836777550106
Rh 12.798469497583309 11.439566943948273 9.83164226233382
Rh 9.900709712672096 14.757071115360809 12.653587060879333
Rh 9.251592945350007 12.163816228675177 12.365073346524515
Rh 8.263835964773092 9.99991009803172 12.90534268322295
Rh 12.323424297594336 12.586010269924152 7.64727953129602
Rh 9.764168669011012 8.211598622737347 8.320031410369289
Rh 11.284987870754927 13.040542257919007 11.09542940481725
Rh 10.448874404853802 10.555367027954292 10.63825085725268
Rh 8.738147776446587 8.610670924600509 10.725381738670183
Rh 11.38574737196631 16.52581965491389 13.746697449364303
Rh 11.713729037649957 14.601490994350394 9.106377985926356
Rh 11.990999405204763 9.091003423603311 8.965917095858288
Rh 8.046093944590222 13.786413669680972 14.217081125175058
Rh 6.801838507667995 10.308336325841141 10.85085587666905
Rh 7.881824936826792 12.5546997444521 10.368281954702528
Rh 10.663774644637082 10.554447444535763 7.421271376533792
Rh 6.6924726209112215 12.167159657169828 12.717049915987694
Rh 8.538010192365341 10.466517388404744 8.913089417073733
Rh 9.38459551583345 14.664065455001023 10.197706500153037
Rh 10.072412025352365 12.545884644787881 8.904426397344665
Rh 7.397255872544712 14.59097177270204 11.874477781254786
