44
Energy = -261.23869795 eV
Rh 13.517042611835487 7.231927741238376 10.994915259208748
Rh 13.108515144536108 8.337089486202677 8.559968005781638
Rh 11.147546245872208 7.087199397124658 10.000565626758416
Rh 8.760935962078248 7.250083780475459 9.11677935787554
Rh 14.555458517111118 10.615195301998568 8.020737306062275
Rh 14.458213981649807 9.539688959729954 10.339588540857205
Rh 9.02454252366003 7.078070463500458 11.745675287384964
Rh 12.273640497351908 10.129819435275593 6.8882275213211255
Rh 11.452220052787636 7.51612420315125 12.498763869037184
Rh 10.51836694485345 8.883164890921652 8.166924503056773
Rh 13.312486537845798 9.291973544017294 12.560254784455177
Rh 11.815232576617639 9.583045433313801 10.310590474643723
Rh 8.014045051051166 9.542215892544696 8.213625823336569
Rh 6.927822896619458 8.378807534026487 10.572755390589466
Rh 14.735615989009657 12.066465947093711 10.143117558201045
Rh 9.826135373262131 10.890064383580583 6.591319844288809
Rh 14.864956180962562 11.294721679748243 12.508437406783239
Rh 14.132026526747106 13.315629714123432 7.977918457162066
Rh 9.271922144725258 9.300468948371877 10.754552732768456
Rh 9.498083761864686 8.274562382849108 14.057857719764927
Rh 11.80894632148853 12.620050792116546 6.639622298857881
Rh 12.400834262291784 11.672479993456216 8.924921384276137
Rh 11.949207959468877 8.87391438700494 14.762663737822717
Rh 12.314098736319215 11.78875140812811 11.530607043142355
Rh 9.787270690009342 11.269547118267122 9.063459527201116
Rh 12.753963632897184 11.2828458552219 14.08324286894958
Rh 10.774787182820619 9.977252271276507 12.738178097622923
Rh 10.724343370589018 13.604017424597142 10.042783409415652
Rh 13.199088828096285 14.0712797280661 10.2727370978112
Rh 7.123183388956738 8.09165529771047 13.113442263777273
Rh 9.667703195560566 13.420264647951837 7.682942093018283
Rh 13.48189257943721 13.525539396082946 12.915583363661154
Rh 9.534753925207314 11.841698769859281 11.545615081676994
Rh 8.174422692631502 10.401421886805439 13.297864038857961
Rh 11.944281726310635 14.704058763432881 8.070263654890677
Rh 7.3106329047034135 10.902380349713658 10.241979122289136
Rh 10.95271040972691 13.035307262916385 13.424934223415562
Rh 10.22787820070218 10.974099332915209 14.95422579724487
Rh 11.600001298828115 15.029093267583669 11.992631670932303
Rh 5.894424372248942 10.145658321782818 12.177864698398507
Rh 8.175106706680175 13.272972549138794 9.790782875056527
Rh 8.57708184461065 12.763539065998682 14.208982030786512
Rh 9.069316319159512 14.279970954622733 12.108701609587634
Rh 7.076924041550875 12.583546146798945 12.131060652704987
