43
Energy = -255.51706366 eV
Rh 9.811011677422036 14.383915825254865 9.514089515627068
Rh 7.764797424216773 13.207269467177992 8.216357447214222
Rh 10.074224014183175 12.458364604139026 7.709265181305496
Rh 7.961774307527386 10.678289298163635 8.035217581403309
Rh 12.26011668183889 13.62939292463006 8.415603406767623
Rh 12.083160511192693 12.093799946159864 6.279240149391559
Rh 6.549429684177796 11.616630304344131 9.966774453112972
Rh 10.027723602304196 10.266081571285424 6.426257360835192
Rh 7.399306304719155 13.933413130667184 10.68266716739688
Rh 9.493450636312744 13.695473784165596 12.029377255030004
Rh 11.857778520220895 13.627409426857504 10.907645879744036
Rh 6.173635729536002 9.254996892567563 8.990721168179267
Rh 9.208136604602345 11.925154841155548 10.053188482462884
Rh 14.053392033484837 11.805332343669733 8.058142017598245
Rh 8.321884280027362 8.185712602088637 7.665706232446693
Rh 14.267406820689342 13.384451907808577 10.105761401387015
Rh 12.355059063908257 9.944961323530588 7.545870973150809
Rh 11.821996459425236 11.382176472015322 9.59352264509601
Rh 10.893777203856143 7.868329048154855 6.99551708180754
Rh 10.064301117071082 9.53654469770938 8.935185354318552
Rh 6.5805423364027185 9.575255909015244 11.585174064822313
Rh 14.562795384895761 9.271727502990515 8.635105045079223
Rh 11.460617000780928 13.827649449444486 13.504357047288146
Rh 7.744770443550347 11.797131317885462 12.251138506046383
Rh 13.576707689760358 12.509518277181053 12.47117923283523
Rh 7.853354055803856 7.859693827985249 10.21191956839143
Rh 14.053286488005083 10.856475781053174 10.53057896503431
Rh 11.00561654074173 11.483183360333852 12.080141634596691
Rh 11.558084232334085 9.007420172631926 10.96882024232258
Rh 9.123062853106138 9.736347582095235 11.457558419146723
Rh 12.583445277763548 7.764266189898891 8.916249105945129
Rh 9.538796348778506 12.012734496288267 14.093494143282552
Rh 10.035709611850605 6.97467258533576 9.26054193158018
Rh 8.113673224247853 9.761611801535306 13.768580385472474
Rh 12.174223456504143 11.598975986525502 14.500776982104849
Rh 7.448549744867447 7.434966452165806 12.749366109861755
Rh 13.997433778961012 8.279980534573884 11.077089271004052
Rh 9.805185641063137 7.273340894104217 11.874734182966382
Rh 13.124618502581658 9.998172179236434 12.789616934366062
Rh 12.162988510951811 7.620808492794138 13.174798011860396
Rh 10.746016128142132 9.640956477222737 13.846229940021026
Rh 11.986649034848428 6.398296623103482 10.940039827880074
Rh 9.469038223993293 7.5866408817054785 14.333926880467601
