45
Energy = -31.75278837 eV
Rh 11.278952566098395 15.010823259424114 9.409454548691299
Rh 13.64454858509556 15.084301502423886 10.338992143006339
Rh 13.247992322134854 13.810029356968258 8.17952457334783
Rh 9.445771799801216 15.894404382780962 10.925771543606247
Rh 11.675997941657503 14.869668718929308 12.101318871180501
Rh 8.896280594126136 14.036533566381172 9.194029478407499
Rh 10.913774507667181 12.78514782068754 8.117249071483858
Rh 8.547459249398937 11.923768126744957 7.573358292035932
Rh 14.757899277229907 12.5738861870285 9.776299044506821
Rh 13.0228264612221 11.168221513748652 8.269778200729736
Rh 9.327599395104514 15.467920258015566 13.358134551312457
Rh 12.138980757335812 12.391767655243726 10.739587921213177
Rh 11.947587791050081 9.795159996254512 10.206013687324909
Rh 14.281916404992435 13.510283586426455 12.161221773090391
Rh 9.803933268545913 12.979891758578072 11.847475513946575
Rh 7.461917371578534 14.283044915573416 11.35680825377072
Rh 10.62325473576598 10.27777598186149 7.571759216536074
Rh 9.69508019908879 11.169927289947253 10.122739474993312
Rh 6.973764597407181 12.40211311555684 9.589793942752143
Rh 12.285675346528738 12.664095545404773 13.610235049227446
Rh 8.190232543937004 9.420065363211828 7.8089953515691475
Rh 15.784863632471378 11.304318950040058 11.673265794852083
Rh 11.801998948985744 8.098366935114917 7.8620300110712735
Rh 14.984252319522914 10.027805677439702 9.475290836632057
Rh 15.971134751101044 10.0617662363078 13.895547912130164
Rh 15.05133034273354 12.388359798823949 14.257594309980412
Rh 7.163449902725364 9.92573485713407 10.08113592762185
Rh 13.868195482131098 7.726491018307777 9.483271693245879
Rh 7.099514550114812 11.705323185599697 12.079450928523462
Rh 9.3222403293095 8.385613704059823 9.923410614387992
Rh 10.791753564096823 10.683021476307491 12.469313620625618
Rh 11.039428256298038 11.010954064895966 15.302832781267776
Rh 13.30733837187498 10.41641089369331 12.331447018731348
Rh 7.6339770043190445 13.60519848902042 13.773171402252586
Rh 11.433884818988428 6.919185994932217 10.048606899324062
Rh 10.036296875448922 13.362691529666456 14.695763348126828
Rh 15.346207550152915 8.665505060702591 11.62621766389668
Rh 13.614420413598289 10.546819618761214 15.218033619170349
Rh 13.01051250533974 7.493117352716345 12.02472024437668
Rh 12.060172197074507 8.715601968254838 14.241048748974963
Rh 8.559136755145039 11.250619039080062 14.22077738147297
Rh 8.37137623460943 9.4498484386502 12.266367619608022
Rh 9.595186589531078 8.933504740028443 14.521118104558267
Rh 10.467944972985789 7.8507897519454515 12.283018952012965
Rh 14.548261026588634 8.085287827373143 14.025876973090886
