40
Energy = -234.43060174 eV
Rh 12.011457543055407 7.789767852198151 15.758167905487802
Rh 13.176177828110642 8.549185964321966 13.665453955413119
Rh 12.094110309652912 10.3128949055122 15.11865061803827
Rh 10.77599386318076 7.581683507804274 13.47400247087349
Rh 14.57290544412728 9.308869745124875 11.621026982876348
Rh 9.891130444336342 9.041379473050307 15.42254006349688
Rh 16.103184555279515 9.872277555531939 9.70725037398312
Rh 13.349442049842981 11.090872692796223 12.96214369159241
Rh 12.3028805742476 8.021668776906527 11.334203107008559
Rh 12.026843346179446 12.707427892439567 14.35074487523794
Rh 14.890037681761802 11.821186025403595 11.071618451371158
Rh 11.0686767797804 9.94872511330373 12.534241467048341
Rh 13.84350519018439 8.638148182556213 9.23954247428885
Rh 13.232954791371814 13.765971096662167 12.184678051737615
Rh 9.846454195630713 11.373852831652584 14.37411681822547
Rh 12.279579516189472 15.13384541035968 14.228145342493093
Rh 9.687720133112059 8.06201438694323 11.17064057900164
Rh 12.580632280552933 10.666655954626867 10.30633216710792
Rh 8.715312435053617 9.411331586378557 13.19861728669274
Rh 14.392959097671428 11.257595792473698 8.542906549401112
Rh 11.338554657780179 12.154788841451735 8.42592240529589
Rh 9.892367561603573 13.833293083180807 13.511044558211232
Rh 11.187188079859123 12.434011060263089 11.796782546533404
Rh 13.303867006571258 13.227645452628323 9.702866952533602
Rh 11.166217319660824 15.510957138574602 12.104057114557685
Rh 7.633838361025238 9.83618877339671 10.985069286103958
Rh 12.543179964072385 10.01536388330077 7.46061914884924
Rh 8.653195154851216 11.955232722885734 12.188712788810948
Rh 9.933513262641167 10.605505284615889 10.181304196381879
Rh 10.992431720772732 14.182814734094325 10.011413411195674
Rh 11.19927416025817 8.535636219105497 9.110250984204924
Rh 8.579989346077506 8.509269632289815 8.915586267444954
Rh 8.762510650011018 14.462377651897818 11.345904475036413
Rh 11.260035853996222 11.605072606054906 5.955572024927291
Rh 7.705603992173929 10.814221501898084 8.531140934922442
Rh 8.996628255563088 12.904524858704088 9.433406247267163
Rh 9.951910365519826 10.009644546078174 7.4132446766614954
Rh 6.806493181837859 12.292603622333107 10.524555911815149
Rh 9.121023808919594 12.394792575930206 6.971364696804416
Rh 6.951378429775409 13.154873068350742 8.069486143909964
