48
Energy = -285.57541144 eV
Rh 13.80627935411005 16.01583358648708 11.421330808901278
Rh 15.578509360840302 14.182238562351877 10.76325129154013
Rh 11.929234616492723 15.062817231494499 12.85212403908873
Rh 17.60247809596926 13.253541044361773 11.619973690057908
Rh 11.669199853959597 15.233732349718139 10.282794647574999
Rh 13.812617727700182 15.096342370335988 8.989416154937503
Rh 13.69734225443884 16.3909408818711 14.002583303608587
Rh 7.335181193292943 14.399068016512595 11.159855507374084
Rh 14.13572703443904 12.648713754693764 9.334048328576568
Rh 14.475145838545293 14.1614729133865 13.014849269963493
Rh 9.452256485624838 14.342438850912782 9.408359668470682
Rh 9.633824978376975 15.399252882013464 11.853761663207106
Rh 12.80851749022185 14.243349465278907 15.08862746549647
Rh 16.340871368905084 12.459331178477694 13.647462226398883
Rh 10.191380295801563 14.820198648592438 14.578018293808617
Rh 12.866008907282227 10.62387807146176 8.407818717276992
Rh 10.657320859581228 9.963915440830608 7.295474108077729
Rh 12.5095496119209 13.045394826334656 11.291237064741411
Rh 11.79989704757832 13.238974370297754 8.665651806983888
Rh 16.992023329137318 10.840468331336146 11.654474285975224
Rh 9.703421573305132 12.022230977349912 8.302610077142143
Rh 13.806906881802284 12.02330864466272 14.333182647996933
Rh 15.218008099418538 10.432981737335425 9.655590672412295
Rh 9.924182020449585 12.887980782824567 11.439965182046194
Rh 7.962268840320316 12.103142944381363 10.199231696468983
Rh 11.254943861048293 12.502318048009835 13.669021204751127
Rh 11.999459292402067 11.91911464125584 16.09664265756147
Rh 14.755145987100729 11.885302524605365 11.753412658974975
Rh 9.443606870011875 12.5773886506742 15.551656064059983
Rh 12.645222913693747 10.501698541580112 12.431443072236274
Rh 15.229071581084328 10.050534724314671 13.455464474871958
Rh 13.383378958214312 9.027603354701165 10.550274599950109
Rh 8.425220347387059 13.501955891397174 13.303438343179733
Rh 6.5429281433844295 12.214237768733366 12.282177208473543
Rh 9.001953911526138 9.860154712689525 9.403747596546687
Rh 11.214362229243255 11.04062932699567 10.1931780554836
Rh 15.740972863729766 8.593069203486536 11.37008978535615
Rh 9.9618480243636 10.529445439282936 12.396593664171128
Rh 8.023693921658829 11.065371849117446 14.023387810374503
Rh 11.237583453894104 8.604369274897774 9.328107774892386
Rh 12.978168690104143 9.667393371113914 14.885570410782215
Rh 10.408151089625997 10.263938265555536 14.979550414225473
Rh 7.630432339803663 9.925075483562146 11.570663601156928
Rh 13.724972363045666 8.054460037774483 12.957134470479758
Rh 11.273432576330391 8.444173423577569 13.304740685361809
Rh 9.612469534203553 8.230727118949057 11.311279296114666
Rh 11.944922302463922 7.074740813634782 11.262669634273895
Rh 8.70843606683131 8.623280111453075 13.706594339260457
