40
Energy = -234.9391395 eV
Rh 12.14237319515601 8.22008012508487 6.483186484817896
Rh 12.68193644526807 11.656180758633317 7.293506626673341
Rh 10.74433040809606 10.304348955561695 6.187291094122696
Rh 13.9038056773019 9.536134694038678 7.769362400661554
Rh 10.236470407520727 12.330768599642226 7.678597845610583
Rh 12.147318123803796 14.046297228030104 8.199919479273765
Rh 14.197522417786569 11.646213114174062 9.57013335970938
Rh 12.697907977516575 7.36102763598551 8.893066546222437
Rh 9.689650639543467 8.266912939176127 7.284754060383404
Rh 11.391673607138078 9.615823671405431 8.670398207035305
Rh 8.438736849398168 10.542831347140696 7.568423642598037
Rh 10.028008574892892 13.968742646469334 9.638079854814283
Rh 13.610917175649513 9.26383826307835 10.226682786601593
Rh 7.887211433773394 12.970234529649327 8.43038200791801
Rh 11.800163190441362 12.088395147880211 9.724889485782878
Rh 13.127424235589348 13.159385419914994 11.455731810322474
Rh 11.819979383504878 15.214770512801266 10.791925213125593
Rh 9.459829131550569 10.917686684205425 9.914217083039786
Rh 10.298700440267288 7.193446322599752 9.505681459967375
Rh 8.12468307913398 8.69998263357722 9.256233271295994
Rh 10.151217953856563 5.995165350868154 11.822107989421665
Rh 14.041918409633583 10.79274242681881 12.118938723570624
Rh 12.000964160350087 7.720444428662079 11.538948902583336
Rh 10.365724347777993 12.465437236065357 11.952355635306201
Rh 8.00665780357159 6.616070768760114 10.60862891345909
Rh 9.471844754632597 8.679676189642072 11.47820940445638
Rh 6.928372502461494 10.930663740380298 9.80207980460594
Rh 7.96289071078661 13.06685986759785 10.9556067901979
Rh 9.475017735094855 14.933280747622547 11.94728373522431
Rh 12.454686849924572 9.251564237287385 13.658003666759893
Rh 11.589578189264543 14.345960081023591 13.212281623342413
Rh 12.284942212687424 11.89311085999733 13.545961069989566
Rh 11.559157869038149 10.213017596837304 11.430022860520689
Rh 10.325356265347315 7.802615413695732 13.653148532238855
Rh 7.950963413137865 6.689572195141811 13.148727230082105
Rh 8.518562284016156 13.000675679969449 13.490988570951263
Rh 8.058658684750647 10.894099154195132 12.209502003412576
Rh 6.872229919176875 8.788074442554628 11.5469685771689
Rh 10.162459183447915 10.480152844893968 13.659681288498152
Rh 8.072541140959467 9.067805199890659 13.950913788676505
