47
Energy = -279.68338659 eV
Rh 6.514504430601544 11.102753593432713 12.03031447550381
Rh 6.3289811964032525 10.933861331407153 9.485471632705078
Rh 6.358006230139762 8.304738270033166 10.02820482155339
Rh 8.459229060332147 12.356156508365647 13.303751829435974
Rh 9.667307334055458 14.085999281563897 11.851066236887869
Rh 7.8602617742146155 12.730156389303568 10.60445666365515
Rh 8.282048922202659 14.453898634314424 8.739993604614734
Rh 8.031630304881915 7.491311639777828 12.113415331474044
Rh 10.199774438874435 15.618303658253119 9.8756129488383
Rh 8.17218528915007 9.732331538798102 13.351527385411751
Rh 7.757793949535352 9.319990616921938 8.084099379072148
Rh 11.097986620253932 13.111128930780284 13.730329820014287
Rh 8.269395345493185 9.705010044997817 10.772211822453722
Rh 10.232475993621177 10.746987738086453 14.374581583337106
Rh 8.109736381226295 12.007643490184511 7.9561766618189935
Rh 8.64627287706568 7.377431404164169 9.546498214652429
Rh 9.968887381507496 11.465607462648489 11.463514736400104
Rh 11.634181484591812 15.679293724038494 11.98945801059246
Rh 11.07944966939678 14.681517656830417 7.6363790777345635
Rh 10.69772304525171 12.269956430115032 6.978791780200448
Rh 9.720401747779334 8.011104436166638 14.47962428099187
Rh 12.722436639952917 15.140265460369392 9.697003871365206
Rh 10.279576970623847 13.040014175496959 9.425537680427997
Rh 10.499622838071778 9.020244618283495 12.302474665623683
Rh 9.38465451650685 10.283132053538166 6.35083945283302
Rh 12.101549806734498 13.286531993015284 11.343519010104865
Rh 9.91244409989554 10.531033867185162 8.921893506949143
Rh 10.241518227973978 6.514891310155878 11.424509615224709
Rh 12.581955579483225 11.538313023931478 15.209466326701271
Rh 12.190314515482363 11.00426577019516 12.688413683740988
Rh 12.71431605419942 12.907243024848464 8.395648893300747
Rh 10.702211276366455 6.047545611515956 8.936547028898929
Rh 10.15600465247401 8.176902959144345 7.5149352798385145
Rh 11.10007272599314 8.482288929345339 9.920880192570294
Rh 12.152536447279175 9.01097217479363 14.515346489566983
Rh 12.144574390620184 10.976210780313131 10.0925063499597
Rh 13.895721644830257 12.810061310498387 13.135017751444686
Rh 11.868789999090621 6.771993478941509 13.244759735442075
Rh 12.162444249571875 10.049449765726296 7.6771573444530645
Rh 14.439665316051805 13.257542609506473 10.430893717733849
Rh 12.622633563288536 7.438917063873323 7.97901660717518
Rh 14.363900950252825 10.25628298859825 13.855420593519474
Rh 12.80065861424525 6.671304000520468 10.588145262067806
Rh 13.182406356423476 8.634117419069195 12.17313643227524
Rh 14.45557667498211 11.197868039634262 8.816081508051626
Rh 14.46754163048278 10.817662102462048 11.354748450332913
Rh 13.730972096484626 8.930970287147339 9.663814391100788
