42
Energy = -247.25382093 eV
Rh 9.203101334999602 11.160606419740361 5.799671205364489
Rh 9.745492446928141 9.160494592157395 7.323621798486102
Rh 9.978173172413058 13.542579885848538 6.515736070303465
Rh 11.181360721660758 11.400229486892263 7.296715217565815
Rh 7.30071886948938 10.043344547308156 7.155818070551043
Rh 13.480804935522228 11.621515493406868 8.413000181541284
Rh 7.856281233613219 8.405737925217108 9.008177812537824
Rh 8.425692966002552 12.189319770398276 8.0521239646141
Rh 12.14459029174696 13.905153384964112 7.978894838783639
Rh 9.525275881850794 10.413370873057715 9.429793029775118
Rh 10.24499037795825 7.906105612564421 9.737357837907657
Rh 14.183570192002984 10.004042273422522 10.301349951298548
Rh 9.748567632925734 14.180720281115613 8.962911469448642
Rh 11.966053605138146 9.677204173291996 9.118842851008282
Rh 15.8242197879905 11.826612738196589 10.01870729303106
Rh 7.0262665356584995 10.741951683255005 9.692424469897274
Rh 13.963510257588888 13.526995782077828 9.99145215827418
Rh 11.724958063981234 14.747873980720703 10.433994607948671
Rh 8.467564015447968 9.080579273109969 11.416976853448025
Rh 11.303818435884924 12.273175758578077 9.77178726404047
Rh 12.724797488810738 7.775516716800236 10.589227299902946
Rh 8.744515085859977 12.47805431212535 10.726523732662713
Rh 11.02056664921646 10.32602938800123 11.505401496117564
Rh 15.44633572360577 13.420080795286259 12.064414384413041
Rh 13.142027626180179 9.286670440537089 12.595171778625064
Rh 13.061963341196416 14.340922105678931 12.513929560442271
Rh 13.105704771365389 11.850363790742069 11.655594086875611
Rh 15.282049964576197 10.844959567013625 12.508599739020655
Rh 10.719953293290773 13.066213369104569 12.270255673742282
Rh 10.827847815623048 8.023323478855604 12.307506743552057
Rh 8.986659395938933 8.77043452366053 13.881366878988768
Rh 9.055045810854459 11.096256817788138 12.901035511363943
Rh 11.764676766215285 11.263077471442925 13.915115847844175
Rh 14.199133508761676 12.58023265324651 14.093252350864471
Rh 11.462235749660337 8.877381117421411 14.636820994831316
Rh 13.91380208569853 10.114819783500346 14.830730246208304
Rh 11.807310558554427 13.64827443703039 14.61471289870963
Rh 9.297946128842844 13.14543734387204 14.45918379847274
Rh 9.712533743918573 10.773786765345307 15.401117070190825
Rh 13.321799996919271 12.674655181802654 16.421144728191887
Rh 11.964127517692159 10.58351926943594 16.506172441569614
Rh 10.677066587094316 12.785487104665647 16.716476160263973
