43
Energy = -252.72822009 eV
Rh 7.575659896074778 11.064393699367887 15.402400167606991
Rh 9.589095968976617 10.516751607280131 16.666574906577953
Rh 8.419640990874665 10.038210223391237 13.421168678863884
Rh 10.67105049861025 10.501131373005762 14.421030503799864
Rh 9.472554869970006 12.64988600024666 15.201400454721872
Rh 11.563644231570159 11.889888282761808 16.932017472859958
Rh 9.230994161452049 12.35316018807924 12.671155612999547
Rh 10.613408526666406 9.082646806388263 12.321065482076657
Rh 8.59171123547074 10.341552383998563 10.976607368247516
Rh 12.922216591534264 13.769647377813826 17.634225137636466
Rh 13.143062202389197 11.24425346155062 15.307202236274302
Rh 9.182200546800557 12.688188912613064 9.940361772207709
Rh 12.795642812525955 9.316173712307247 13.654666460324377
Rh 11.448223672701447 14.146039619301115 15.69365323231627
Rh 10.097617674727122 14.636126472972826 13.64291773586322
Rh 12.829865254743222 8.708606364958813 10.981893750824204
Rh 15.146591844217017 9.760604628345712 14.466042397838612
Rh 10.977174187422692 11.282911411644076 11.227949905682529
Rh 10.683712745917104 9.316048613219301 9.723363227762798
Rh 13.976189438584466 13.687396345400094 15.43354024057778
Rh 8.79021260164235 10.647998416840357 8.469852104007764
Rh 11.96466684410152 12.580356444213471 13.43594244276335
Rh 10.891399081706867 13.934105335821027 11.376713957687917
Rh 12.73106384895476 15.010747983760643 13.639795218346725
Rh 11.405653540756434 16.307205457866168 11.95620616375955
Rh 14.712078489838438 8.004086229998677 12.574800783716261
Rh 9.355904048361051 12.920340175085945 7.36000290219342
Rh 13.42851003060788 10.957938572554298 11.915671426971617
Rh 14.938990379034907 12.119245740207248 13.673401842260827
Rh 11.235203057955461 11.465638751216026 8.380972045685517
Rh 10.908995640334487 14.274442644843598 8.863618194478592
Rh 12.086517641412144 16.292916563631476 9.53447687200272
Rh 13.030612949229367 9.535521957327092 8.577925251064263
Rh 15.853799394041996 10.202338523200341 12.047639054155079
Rh 15.186527539363304 8.575800624719848 10.102457294440798
Rh 13.460509882362574 14.958328236595285 11.157747946518631
Rh 15.129248748982555 14.561930156499084 13.231393603641799
Rh 13.500496495623764 14.463479615565387 8.38669959372741
Rh 11.864391184817059 13.371617349786648 6.692323827040589
Rh 14.850198148383157 10.992970812264259 9.668568454901731
Rh 15.019702356024373 12.930032718243366 11.258413374530457
Rh 13.646470509499762 11.908482219510873 7.677170907525052
Rh 12.800658427472696 12.712926177338012 10.021038185252547
