44
Energy = -261.92894515 eV
Rh 12.904485223220867 7.072257592742803 9.850809636021985
Rh 11.965804079712502 7.57275740341887 12.233702949865068
Rh 14.922953789187426 8.742253087884665 9.500197342626242
Rh 14.459179519728687 8.027041966812995 11.933455430933696
Rh 10.61026526219508 6.147933343830073 10.638822228494154
Rh 8.440312043518423 7.175403519972267 9.799723479858244
Rh 12.780503860732388 8.978935175675161 8.09022429287537
Rh 9.440484772058161 7.58319524048347 12.515118107645508
Rh 14.834892696081024 10.623901091829591 11.559490519153861
Rh 10.672089882706603 10.09648311179441 12.451346349226545
Rh 10.761706985231328 7.3947215853808075 8.362468424756766
Rh 12.668556568590873 9.52504438766845 10.6735286703498
Rh 7.818397006536738 9.312658816343728 11.379279418496154
Rh 10.139500037473951 8.855312647135095 10.248423473295228
Rh 14.008400324327592 11.087964111747645 9.114729203644403
Rh 13.113415129585988 9.735952188105275 13.289123876571166
Rh 8.483367515495443 7.9207367822909225 7.331126498543088
Rh 10.632290243652951 9.482750596302749 6.801665468415491
Rh 6.644659777187795 8.909048832626832 9.145116021313425
Rh 12.656564794321737 11.307366758042368 6.870909015047621
Rh 11.032982414547801 8.58310312453239 14.443917007172207
Rh 8.720670635236486 10.083720287044482 8.422492247156194
Rh 8.964299986224724 11.39053235109472 6.288391025152355
Rh 6.561413779462572 11.017247698552886 7.531254872312688
Rh 14.386475231755773 13.023689244056387 10.710898137992423
Rh 11.163295262830019 10.9239941174093 8.874333425838655
Rh 8.613607491740066 9.614040675853152 13.786026490752116
Rh 11.869089678478522 12.043787963742213 11.08914748822441
Rh 9.335398257369793 11.378657157854128 10.648342317954224
Rh 12.64882724711642 13.202891118661505 8.767780994542752
Rh 13.365938039196458 12.274744279430875 13.004701967608806
Rh 10.55163509853832 12.93716801313921 7.390468266316506
Rh 6.742677894832436 11.33068842486707 10.132952534488025
Rh 11.473065031261195 11.28337420932194 14.53721406725128
Rh 8.26558970987085 12.674207222843194 8.543025186102295
Rh 9.97787899831638 12.608392956083176 12.895393046544761
Rh 7.5274102174082955 11.628829651204713 12.607262423959888
Rh 10.313716548194922 13.712147918632354 9.829265954706987
Rh 12.404544420801813 14.368751440241754 11.540839714085493
Rh 8.88961221242224 11.7737387314889 14.940863734782894
Rh 7.957434338562202 13.587104881885113 10.956365176616243
Rh 11.697991567199907 13.938854132416628 13.973291881113395
Rh 7.959243407873693 13.974542095557894 13.530608685320237
Rh 9.93955193089258 14.916204158326325 12.022136790310503
