44
Energy = -260.97778455 eV
Rh 10.068117323030679 8.065778144133779 4.248996038172909
Rh 8.566968360471868 12.12091288332454 5.667430570263677
Rh 10.200238762443417 6.1979654293583515 5.99580651986218
Rh 7.847133821101225 7.045435753004675 4.933303773409699
Rh 7.904933268760112 9.625393683639981 4.645669801956953
Rh 11.936001469818436 8.114236895883524 6.144275211836842
Rh 10.108263742149797 9.90010747748007 5.9039495816900045
Rh 6.04626342044744 11.199139726136659 5.636673114260205
Rh 9.308221905213527 12.263458348842127 8.32007850529235
Rh 12.405991876866727 5.62050019439928 7.124664032365651
Rh 8.604784188355001 7.896926093023165 7.170730170800666
Rh 6.127296311435994 8.65180781102777 6.349156161674932
Rh 6.804065854642908 12.671795376235313 7.714030096609978
Rh 11.060562062760395 12.150637922549064 6.606783863112443
Rh 6.923021713917752 5.559112105920288 9.616464337676735
Rh 6.6407771784960765 6.224672616484914 7.189443345109358
Rh 9.00369700078239 5.301435927661222 7.987772968934958
Rh 7.9046013066551994 10.291159969992725 7.161139873692922
Rh 13.234156172224164 8.096379733400465 8.416156657017778
Rh 5.3588248167048675 10.502296027341917 8.129784476383776
Rh 11.177171688402444 4.842101420787644 9.217893430674346
Rh 10.917975821737118 7.2352064776200535 8.369059564966664
Rh 6.439391119022255 8.202395852143336 8.911365080684826
Rh 11.954976195132431 10.126681379877764 7.721922643763314
Rh 9.745121401908465 9.513847655345034 8.943881751908155
Rh 8.859885774437862 3.9190792077755927 10.102723188547056
Rh 7.494977557089743 10.851466736602095 9.49654351037996
Rh 11.577306405608628 12.039910928840904 9.315568662151549
Rh 5.507876740589485 12.338781762511806 10.05053976535716
Rh 8.808609648605355 7.143424389248829 9.723822001458522
Rh 12.061219641317523 7.065980681995539 10.576576344042762
Rh 7.941976911304438 13.245352522802069 10.196030859209875
Rh 7.5518446018266125 5.129172478118749 12.036412882512781
Rh 9.938509703192082 5.78459591211809 11.365099818478527
Rh 5.457356700802177 9.764244395584178 10.754704144417063
Rh 6.162680814797514 7.295645728825372 11.392458237247638
Rh 9.69855794439757 11.19505220614362 10.963980492572395
Rh 7.966344632767614 9.03342168870054 11.0652544174123
Rh 10.325549313197714 8.437501122660082 11.699649536058855
Rh 11.969511531807576 9.653001950811193 10.231878858810992
Rh 7.169475202294121 11.48811471247652 11.977244174982543
Rh 8.2729599621156 7.375011830633602 12.950168678874906
Rh 6.415034654082377 9.260422485129759 13.155643956981203
Rh 8.925501742968253 9.95417061909111 13.213005164065926
