40
Energy = -234.76759084 eV
Rh 7.737304107353895 12.448114579957966 9.231058757874402
Rh 10.944571066498026 15.262093713462406 12.188193200104738
Rh 9.186935036112176 13.93023891989685 10.803720553651177
Rh 5.842730503445402 11.000689479128127 10.567328525529556
Rh 7.511410303968331 12.450679224352067 11.994162118164283
Rh 11.515312236000861 14.458676998954871 9.802663119942606
Rh 6.914359815222128 9.782855889334378 8.620144785983461
Rh 9.407977764071791 13.564046678831064 13.380621669602244
Rh 9.397961426597274 10.18928125157429 8.195669227388619
Rh 10.267999191333692 12.412186882641326 8.99789763218673
Rh 12.256681984540204 13.291796789057015 7.669984892955145
Rh 12.282344280391905 13.643843012916752 13.882491299770793
Rh 13.261633188015356 14.232268811608181 11.61507280152453
Rh 8.417086469408392 10.555249686420531 10.60261713920461
Rh 8.27656464173848 11.44521994649172 14.212586437363758
Rh 11.075765380258375 12.496867055093663 11.89565258773764
Rh 13.97944028318203 14.708330315846212 9.100688724522668
Rh 6.262190705461366 8.374740187658503 10.702257161258775
Rh 7.032616990565938 9.895030628765351 12.568142785408796
Rh 10.93541196374991 10.339947004305428 10.478111956250835
Rh 14.83568742088759 13.25090790871902 13.28439541494045
Rh 15.234677197285226 12.979900701754994 10.641754340329909
Rh 14.603564564999164 12.364781708829245 8.131718640984804
Rh 12.87908819138943 12.178505086937504 10.040033555182825
Rh 10.88519511700104 11.477270626633794 14.243488062589458
Rh 8.679751837864265 8.208060439480395 9.876944223084527
Rh 9.605092739389608 9.864907475374451 12.769392317130377
Rh 8.306941591529785 7.6979727624223315 12.315451498172653
Rh 12.125951076774975 10.60619421935339 8.172547422290709
Rh 10.769170349386957 7.949072289916344 11.429243061265803
Rh 11.00303143140081 8.303376280016424 8.814836391047642
Rh 12.933557799324092 10.559812764722578 12.0772484725588
Rh 13.424866432764434 11.374904112191881 14.34635452151524
Rh 14.849293496611583 10.54514575919888 9.736856888857032
Rh 15.343813498380252 11.007315948684887 12.262645107477152
Rh 11.759219566737606 9.010586463550942 13.650713477774532
Rh 13.079772583260041 8.812713030354507 10.185035400020151
Rh 14.361928144309529 9.056009474137696 13.622001550075707
Rh 13.147579506680868 7.340963545035769 12.252637014510846
Rh 15.320893688770454 8.58481591905101 11.293010836429263
