44
Energy = -261.02096634 eV
Rh 15.744543391094627 10.91137435676059 10.351082120850252
Rh 15.22818790371978 9.34367950486278 8.270436295944947
Rh 14.15844238808196 11.67248116411924 8.398488458223484
Rh 15.215855055829609 8.351601834629225 10.663234068067098
Rh 13.555855751748169 12.336495197956317 10.900351132741717
Rh 14.179191782058105 10.207272474521691 12.26603470484222
Rh 12.94758044235192 13.85263005638986 8.9243635877291
Rh 12.889254256513654 9.643775107287105 7.325523773046794
Rh 13.254808538665749 9.860466295945272 9.934649194833563
Rh 11.83596364997028 12.115671369776807 7.268723905356318
Rh 13.142534448675931 7.526565920593363 8.99543507326652
Rh 12.098846099146378 11.65856016779396 12.819958353753197
Rh 13.081364219802479 7.774394990434736 11.850505137606737
Rh 11.358629923577446 11.627680470195468 9.660009225397797
Rh 10.471024963135651 13.96201019902568 8.70514312883551
Rh 12.41003689143971 9.263037102839016 13.876108919801338
Rh 11.305997748206275 13.752846725628743 11.26642697003204
Rh 11.242423654464915 7.472971685657135 7.08083778705961
Rh 10.926868039178562 9.140160392395932 8.865757475125372
Rh 10.48399694156097 9.973490145703204 6.516660800084212
Rh 11.211878144001998 9.49874450105435 11.503574308703739
Rh 11.05021705392213 7.108256667689974 10.469415180674268
Rh 9.318961732377613 11.753823428896268 7.906552829488548
Rh 10.679019803799996 7.5017474082185105 12.999719342714867
Rh 11.205094685475824 13.679839253323959 13.987635608424258
Rh 11.535375023465672 11.363676904744455 15.21493648415883
Rh 9.07840215699042 12.645003798836564 10.439671572322125
Rh 8.954801953933249 15.147972578442463 10.53193539056572
Rh 8.216719960810021 9.466061231356372 7.817004221328753
Rh 9.172539547607487 7.347338649980956 8.698532216476108
Rh 9.087675368963682 10.14666407029855 10.169531308797973
Rh 8.674010582160681 6.713484141525236 11.107930828804989
Rh 7.845074210493152 13.836535936402335 8.529139422526695
Rh 9.57972099678619 11.223828803326608 12.508309076518438
Rh 9.027492647258684 13.794979453090964 12.724603127179977
Rh 9.89348867780163 9.574556535920738 14.438338171836293
Rh 8.498849649001153 8.79943932006382 12.346077975164945
Rh 7.037722326994901 11.381361959801781 9.189187672490593
Rh 9.157313053569638 12.215516374035271 14.760763504111978
Rh 6.883575237274752 13.574245892473193 11.105373518928179
Rh 7.068344673990646 8.763140296782955 10.13467237952419
Rh 7.055995822745582 10.98493126805338 11.761029880341807
Rh 7.4504855111519515 10.316694589416741 14.183076541966056
Rh 6.860238436355402 12.7563202843101 13.58379705269802
