48
Energy = -286.2410931 eV
Rh 8.02597773941437 8.283488129915352 8.349276026428267
Rh 7.8914187314679305 8.244518511987826 10.871306061467603
Rh 7.608834891886762 10.490205566422116 9.509262677031025
Rh 9.214332384609154 10.655717117715044 7.537725434443452
Rh 10.42565042354224 8.451983159053915 7.796969702658563
Rh 10.075113292512691 6.865371467807172 9.980856793577418
Rh 6.134721602774592 10.08716855557095 11.525558927856968
Rh 7.773815300048761 9.050576305582021 13.359404578416138
Rh 8.047021508729998 12.824429588293482 8.424294986024131
Rh 10.18133905579859 9.273878460592604 10.313860403201424
Rh 9.758409070421141 7.621400490529331 12.446931555771567
Rh 11.818679956809722 10.669010540132106 7.913355173802491
Rh 10.559279975212469 12.923182694852558 7.527904539089448
Rh 12.351023033957892 8.258542007881383 9.275224895973851
Rh 6.9130991400631325 11.696973111854774 13.377638165434194
Rh 7.165421825192864 12.624767162680234 10.897529450226713
Rh 9.966947707991386 11.745434101537333 9.736876580007998
Rh 8.723173565863203 10.81531198109645 11.8624359233676
Rh 12.171452548996117 7.803131445973565 11.810129160566495
Rh 9.236897708953586 11.1523352477458 14.36319888063646
Rh 9.22286808880564 15.126586111649809 8.080948438608612
Rh 13.881362409231713 12.244831180348973 8.79886263174906
Rh 12.33424647057645 10.784369203580106 10.34502165379455
Rh 9.944894637554208 8.683401969720757 14.775188746415354
Rh 11.79335001942363 13.533553262443887 9.714227343319639
Rh 8.834993590137133 13.288126447931036 12.834484246107754
Rh 11.017368928208748 9.999849482533005 12.77121910266286
Rh 11.748550111372865 15.15163945579915 7.692676839021312
Rh 14.215211167547398 9.761696235149605 8.479095075903574
Rh 9.205774840618046 14.146718813732194 10.42035032741481
Rh 13.610516707907902 9.932060722079447 12.371884070500906
Rh 14.496052357725945 8.277451553007559 10.617514867931835
Rh 13.740234847679925 12.844363643374384 11.487704313270983
Rh 15.169022375516155 10.869700905793785 10.564684995970193
Rh 11.507467019848185 10.677279945884836 15.37497317609693
Rh 11.181660876365056 12.471044935841222 12.032504868850673
Rh 12.495422420482827 8.529405906009526 14.340925718501957
Rh 13.925924462166245 14.686190680540676 8.735413433632154
Rh 14.442856906261037 7.517695967350029 13.101896354481612
Rh 10.868305153158945 15.959808836997249 9.956866323596563
Rh 10.932319846381928 13.173699975365933 14.433485100398313
Rh 13.060828341947532 15.278927847660393 11.0251138679224
Rh 10.719116536430711 14.952028423239003 12.443708315968298
Rh 16.145818414628565 9.342516221924205 12.445088346366958
Rh 13.15416913881051 11.916841551311318 13.983631047881069
Rh 15.49525235704196 11.74756831686489 12.98791268281569
Rh 14.596502848365327 9.937813517474643 14.72064070848376
Rh 13.02981905307868 14.37256708057599 13.393985923304871
