44
Energy = -260.88733589 eV
Rh 11.440302120832952 12.445040031669595 7.096854958431884
Rh 12.460176463956428 10.103795231707714 7.411675387728964
Rh 13.544560851553156 12.233106719383821 8.604967572083114
Rh 11.4938362205982 15.604378614551859 10.96067214807713
Rh 9.92077882657465 10.41720847319032 6.60930731862598
Rh 9.127460584353281 13.125568269011483 8.064392490292015
Rh 13.915680569118244 9.752398333010092 9.543652233765652
Rh 13.47800853546807 13.94148363116246 10.796223228393638
Rh 11.359250552782958 13.56716466465842 9.356546458583603
Rh 14.964640992977047 11.785004387714572 10.776385226974718
Rh 11.035574091135746 8.124279430307839 6.547014756507044
Rh 10.697850112812914 10.797690830374467 9.000470558934087
Rh 9.18937762228866 14.798279413205117 10.133611392773279
Rh 12.87413250568876 15.005698174398393 13.118729761113837
Rh 12.546023538018378 7.806855463115943 8.624096087921371
Rh 12.440474887822067 11.473870127414344 10.765619408679745
Rh 8.130901769194155 10.828049726395077 8.475271851187278
Rh 9.269174595523966 12.364693888175298 10.502961907849361
Rh 11.257488409216489 13.325733740559231 12.146137802534438
Rh 8.051371322794305 8.71356449654435 7.04071138688657
Rh 10.493496020993849 5.991417972879381 7.960528057888356
Rh 13.648687912695198 12.424789205254791 12.954427986225893
Rh 9.573095640935549 15.133039738247192 12.660578772705572
Rh 8.10614826824831 6.493685616027947 8.484397254100472
Rh 11.867654613021148 13.109891126874517 14.687891295695625
Rh 11.522192065819976 9.056484217541449 10.72495181051457
Rh 11.062921044969961 6.531921905909666 10.320321975373
Rh 13.822979757764854 9.873990027634113 12.243405477233653
Rh 6.852193577896202 11.209556623266627 10.751295380513627
Rh 7.770375127028143 13.347084171526792 12.196417507956117
Rh 10.562510204988493 10.881197583538437 12.410866293013548
Rh 9.849706262412521 8.33114691201745 8.742071999881807
Rh 13.47406146590238 7.537574973691417 11.026340406485906
Rh 12.316787418394556 10.633584370113685 14.169392361797344
Rh 8.968677354909747 9.768377156813614 10.74115979121243
Rh 7.012387308438575 8.718837144926646 9.449338949474805
Rh 9.513685947105762 12.820399659760282 13.913440918688382
Rh 11.954408026044025 8.317407682909185 13.114276314316061
Rh 10.461437852567073 6.380984079356282 12.649784011729224
Rh 6.917954807490814 8.860417647190719 12.038286604326935
Rh 8.00478213580059 10.919341560493471 13.07995778633502
Rh 8.601836543940228 7.172782277525294 10.893676309452887
Rh 9.918922358838085 10.420713702487511 14.891755629922162
Rh 9.376000050243341 8.623347022258345 13.04172785890647
