45
Energy = -266.87877864 eV
Rh 12.178913168388954 12.894908635013454 14.600745083414939
Rh 13.575495238150861 11.461179786002047 13.055655382101362
Rh 11.808538336495573 10.614918438960617 15.825643572343157
Rh 14.393739254829248 11.021067417495498 10.593001834072082
Rh 10.09741155450432 12.537207249886222 16.07356933624145
Rh 14.3664476270707 9.119583239208014 12.332440080871557
Rh 14.121183308493228 13.55697967811965 11.305913804053937
Rh 11.892947797844903 14.346315312696099 12.547951660021756
Rh 15.074117863068741 8.66808173252667 9.932600797257312
Rh 9.79351831366474 13.284521701296695 13.593229994257271
Rh 12.01558200322399 12.228979738395083 11.17873797454963
Rh 10.92753245920757 11.053516405889429 13.302920362289617
Rh 12.479694448129612 9.135457760211377 14.013413425730315
Rh 13.1279831007575 7.192295533357083 11.157802790637037
Rh 9.387885361791461 10.296280663579179 15.02344493736237
Rh 14.612298250911191 10.413918378909068 7.977367467456795
Rh 13.791767728887699 12.897417066453096 8.808537646547114
Rh 11.100416843150676 7.489542672686901 12.793317367406825
Rh 7.8164281308482995 12.31884884721525 14.771065155877166
Rh 12.050957650648504 9.576928937766972 11.304305752839397
Rh 11.993566977830202 14.48190235504367 9.944891727991138
Rh 9.677786279051412 14.334945700826811 11.209494069588843
Rh 13.000493729854789 11.90162223071758 6.5498355749406105
Rh 8.535656748622065 8.253515534386796 13.930299532618399
Rh 7.530620481856408 13.054233000073884 12.241442011815188
Rh 12.39051971783879 10.83195548543005 8.993441444497265
Rh 8.866130916268329 6.731460106398295 11.704509151967036
Rh 12.811764544553334 8.347465035583186 8.879604637834378
Rh 11.92182256524373 14.022301657865434 7.405575242495608
Rh 9.494305798513826 9.27466610077028 11.866135180264749
Rh 10.737240404149397 7.544896460959709 10.14537243141439
Rh 10.425243055817203 12.539386967482006 9.006395289992353
Rh 9.78400234614896 14.912993722748022 8.615412892177435
Rh 7.6254992822209635 10.588020827491 13.026555873971448
Rh 12.746597143997608 9.278293580341646 6.532809158801524
Rh 10.019648314595091 9.994175759507144 9.453199315419447
Rh 9.506249016995026 11.807576167427252 11.31122359991739
Rh 10.74278381118728 10.743138684011937 6.969981069350411
Rh 7.0171816597798164 8.520875563554364 11.732418218803288
Rh 10.536332581811774 8.26367603157264 7.665615511933552
Rh 7.918657589298339 13.120771009395591 9.663491897398206
Rh 8.322701135713137 8.112591030643266 9.467135280243642
Rh 9.703169156439547 13.073312051506706 6.593406563913446
Rh 7.528756333771145 10.545739520356618 10.295854418202477
Rh 8.38014514280905 11.234949962053587 7.941169457694127
