42
Energy = -246.71839436 eV
Rh 10.832244805822187 14.35100699312938 7.566450870872748
Rh 13.653952917242336 7.913219564103869 12.357563558547636
Rh 11.272283558513745 9.529566407381434 11.67298750425095
Rh 15.671477860838289 9.13293197464687 11.207039755416607
Rh 12.137531674741071 11.162599581857753 9.883004361246087
Rh 7.617880934493925 12.269389361194689 9.391284825062618
Rh 7.312081120285837 11.288342038442677 7.0703679369178625
Rh 13.67470122868459 12.953681693947447 11.177109161351455
Rh 11.60648170501717 14.192164662419465 12.298383507995975
Rh 6.9531602159566175 8.763041861797657 11.491551126720779
Rh 13.83691856203502 11.648765081771336 14.766615374134624
Rh 9.343234971316928 14.21688396349269 9.754193248380172
Rh 12.877684242487831 12.333765355557087 7.797107852180642
Rh 10.184318991058595 12.202271277623122 11.277402011942776
Rh 9.929177871459894 9.690225586997041 13.81620706504482
Rh 9.027716032319459 9.42489713636222 7.63898546330366
Rh 8.407080794070843 13.579209784395447 7.362469008624428
Rh 11.98347841874026 11.822330621970806 13.05726694669113
Rh 10.194641163615 12.112778180090084 8.532992100189782
Rh 12.585796464203668 9.50158944476375 14.091123906915946
Rh 7.930760208328219 13.274226141083487 11.76427708807501
Rh 11.272056906532569 7.470860808826876 13.395806242342047
Rh 13.22366052845539 8.842160754071458 9.86188041871169
Rh 13.93820018151261 13.907268642233902 13.4741181921312
Rh 11.718272061342766 6.933046236629662 10.970831744826892
Rh 15.148747492699794 9.506840424226239 13.75292527220052
Rh 8.20089378664282 7.758430165422158 9.455017382743655
Rh 9.340045509335535 7.935056736529267 11.770170141332928
Rh 9.055553866495703 10.234881179749365 10.031372498782952
Rh 14.59637307191185 11.138139469545255 9.483461289768272
Rh 8.243357312999551 10.780164171098363 12.343894204919632
Rh 11.876109058591982 13.783139705707184 9.748435902976658
Rh 9.619994084680622 12.417090541376059 13.806583704157559
Rh 6.143182512855568 11.306953778718258 11.16434308687074
Rh 13.737076746963503 10.45948916838758 11.82256189430631
Rh 11.8733773347805 13.586097445634218 14.920744614926615
Rh 10.733854880373974 8.429199858093753 9.258681982330884
Rh 11.258910550453987 11.179233103914369 15.469924146585143
Rh 11.539621977616719 10.15682235146723 7.573586348507579
Rh 15.480148260561927 11.951755332374221 12.806612179292841
Rh 6.722898336451528 9.832665093412416 9.132089704554298
Rh 9.6684319661195 11.420318177252847 6.198090414548425
