44
Energy = -261.91552313 eV
Rh 7.973637288909648 10.817909877605256 12.957854775282339
Rh 7.25969497580857 8.818738918563003 11.405968474897332
Rh 5.811097259328871 10.833359082276472 11.600792218670644
Rh 6.924476321516518 10.603828272546387 9.32860120091956
Rh 7.067004397764929 8.08071217989142 8.954806044241037
Rh 8.835189086972637 12.726996942953736 14.557351144155152
Rh 9.513688907675379 8.62202648312035 12.638154820923528
Rh 9.33265749397813 7.822788581780635 10.149119170349524
Rh 10.244105067659083 10.570730413558183 14.221686654870798
Rh 7.654717102775387 12.49109613072331 10.961374675169441
Rh 9.221669287041845 10.410614077310507 10.65464687115453
Rh 11.58714287300932 7.592967582236352 11.433221288962192
Rh 10.048364864398673 12.35217077207152 12.27448925915644
Rh 8.919373054972787 12.170657641541194 8.647994465467686
Rh 9.000441549084016 9.594520157199707 8.14293448896092
Rh 11.793725417993336 8.514980049414072 13.8556248666543
Rh 9.22110070057904 7.085190499992985 7.703231104407649
Rh 8.427894271806368 14.355552782583146 12.57050734607695
Rh 11.158813725488882 12.50695428674359 15.639657356620438
Rh 13.873424728377525 7.6504610564641515 12.636057101774066
Rh 11.5858740507363 10.21095848439636 11.945159504488227
Rh 9.693788507303454 14.075649493450243 10.277952869544702
Rh 12.609434869466218 10.402630918891933 15.333174888387653
Rh 10.790510826425777 14.294157420823131 13.816988682767676
Rh 11.362194478828222 9.396766473875362 9.425852446284424
Rh 10.410619073855473 15.909260828660457 11.86652482394947
Rh 13.969310061480707 10.126913662887052 13.128318768318282
Rh 10.8968088095074 13.739842694553037 7.953404607968613
Rh 11.003692171294901 11.187209194450503 7.435376026279757
Rh 11.119389344145752 8.596667727216266 6.969085504599042
Rh 11.284868507244443 11.993775045009631 9.950568153841658
Rh 11.441805339241352 6.8414189979248965 8.928274422373399
Rh 14.46535514833377 11.915268610064697 14.756398937813955
Rh 12.416310347700241 12.303398757312545 13.416690248275595
Rh 13.712771515634403 9.304769583262287 10.67839932347119
Rh 13.655479108187235 11.897532831520609 11.183656735090912
Rh 12.105936588119302 14.002306663411352 11.51796877770996
Rh 13.399349062085795 11.001411972886329 8.724569549842732
Rh 11.675437290778632 15.569130212679031 9.539881753479204
Rh 13.065865544051166 10.11557458623828 6.349623421816594
Rh 12.97188274817391 12.744303245843208 6.838114397384954
Rh 13.464594212293562 8.424869748423667 8.212169963286787
Rh 13.66507575429313 6.791947312359723 10.149202538214373
Rh 13.258053158381157 13.571578369053249 9.225183957112963
