42
Energy = -248.10416949 eV
Rh 13.138937995761495 6.3090508660377465 10.425331073231536
Rh 12.449834114640431 7.818076664614007 8.627181430077002
Rh 11.715700379746785 9.229967094784936 6.673217185057318
Rh 10.912561527328878 7.761442358122227 10.718237769422466
Rh 12.775897342920686 11.555772197462709 6.420986031419151
Rh 14.040417783385973 8.774013645311381 10.442238513044165
Rh 10.53349577847819 9.547108518736453 8.918886790278581
Rh 13.200650067671289 10.288621298783694 8.546416681214376
Rh 12.836600507292244 7.701873606935904 12.432049908827391
Rh 8.862134033595746 11.495608159340671 9.141958285206544
Rh 10.274089648777753 11.36995554550113 7.001889293546547
Rh 8.95851341723359 9.52613694189718 10.977179448105483
Rh 11.94810676848817 10.160160854432053 11.03553915761016
Rh 11.564217349641106 13.646182816429656 7.243152122431802
Rh 11.355618736495764 12.054163252138038 9.212099009274038
Rh 10.631557046025089 8.902630132807772 13.00174178575884
Rh 14.006602796970139 10.049531312500084 12.838434189000115
Rh 14.195399934645621 11.449035769072054 10.686828092336297
Rh 13.696682507324654 12.82491700449437 8.51568729332925
Rh 6.8652128994608885 10.77541913978194 11.852624044802322
Rh 12.677735440338294 8.819573944962725 14.629810396397115
Rh 10.472556223635388 9.83376559073282 15.429773414310786
Rh 11.743017425306443 11.211847225262604 13.493102611966307
Rh 9.82133529468679 11.735236588475166 11.745277975779423
Rh 12.57757686601081 9.494499675326804 17.00251025118111
Rh 14.31179428267851 14.025614295230147 10.755452067550344
Rh 12.072338803696024 14.639451475944135 9.468297674014858
Rh 12.160338641474471 12.835592349269906 11.501016817822599
Rh 13.621192001389431 11.188830309479089 15.213393535987086
Rh 14.239068977059283 12.61982617091374 13.046798731968611
Rh 9.745336816781625 13.8209639326459 10.164229081451902
Rh 8.65407794258 10.321875432106193 13.600529401290437
Rh 7.481718151319169 12.867805645133048 10.771894695689094
Rh 9.881701819821425 12.271426865103983 14.920735588128638
Rh 11.632126220238389 11.780096708083342 16.663004061477356
Rh 10.352367361658542 13.974477525471135 13.037367394971325
Rh 13.313524626605359 16.35404136136783 10.781543465762228
Rh 12.283044836367797 13.378917678494668 14.733824666418013
Rh 12.767640287786715 14.919721053417746 12.8099088782143
Rh 10.856940617910086 15.846346198529456 11.335270071686473
Rh 8.017777772316657 12.792600204481337 13.285224055571517
Rh 8.363288388410082 15.03417408395799 11.91665912470669
