44
Energy = -260.46887785 eV
Rh 13.527892912752952 15.833112855766085 10.82488904459238
Rh 14.708933450443128 13.736565972291574 10.230414304657401
Rh 12.618369296135134 14.43796444502358 8.748810613548729
Rh 13.142450293663677 13.757174392326899 12.21560217269419
Rh 15.535157069946528 12.985694295737357 12.52249899400985
Rh 13.506851447412497 10.583950135704264 6.701921368847673
Rh 11.143592503672627 15.103436074195846 10.761724837174288
Rh 12.540749614803945 13.38439537050943 14.761831322151886
Rh 13.773823310079509 12.144579770439314 8.593638220169094
Rh 11.614963811087621 12.55289229196254 7.172401738833801
Rh 10.83731615389975 14.543684635413792 13.231758468901056
Rh 9.383650006775275 13.353800474648958 11.381913429144296
Rh 14.201725340266071 11.341613905050957 11.053629412008107
Rh 11.755479708901497 12.578102960971592 10.355908377549158
Rh 10.996518449809043 10.179593633641419 6.155905300184196
Rh 10.337930650067978 13.940052566142858 15.718397571321507
Rh 9.369410444598673 11.294693817843159 7.786434446318597
Rh 8.874979168136283 12.971882196839926 13.871274136285335
Rh 13.701734458653597 11.538178264706744 13.539664920896291
Rh 11.140156857583941 12.005771223122617 12.93788593836713
Rh 11.683118000800468 10.521942502520746 8.699144436298688
Rh 10.00897639980685 13.633513729909373 8.860819152228885
Rh 14.1085372717625 9.221151817655493 12.46097654079106
Rh 14.065870500371732 9.596781322808514 9.079744466561422
Rh 10.580822348099677 11.449299964922 15.352246769694101
Rh 11.944757317452114 10.056279182433856 11.27107268721219
Rh 7.773723092242463 12.301055066772397 9.543391877004638
Rh 12.485103400460527 8.300548336926555 7.156429361582463
Rh 9.702043349904123 10.925170034055396 10.430723668356846
Rh 14.298115444682447 7.586852056811999 10.579036212113415
Rh 11.998850720448425 9.647831784800086 13.926136152393415
Rh 7.707481156647165 11.529690593246109 12.174595540027681
Rh 12.023982328461905 7.99175928256085 9.584707859337612
Rh 9.64466130315884 9.836073973816873 12.739314014001598
Rh 10.018580432598553 8.681055695627101 8.153534705141308
Rh 8.259358642682576 10.644224068797143 14.635044269874035
Rh 9.978918475320206 8.929149124563432 15.320354516333582
Rh 7.915883754976523 9.633974362477703 9.247453952490158
Rh 12.171448286033565 7.626674004711788 12.093332497640523
Rh 9.713631721131563 8.260419978677223 10.72192452008247
Rh 5.981801938415876 10.68497868206464 10.547619654143377
Rh 7.404003329230171 9.05858049370755 11.778780096789728
Rh 10.045856540028765 7.381524000970785 13.241325930089712
Rh 7.7752439367635855 8.140687788708272 14.019746913087591
