42
Energy = -28.49531824 eV
Rh 7.9338259385358265 15.315990703527124 10.569969819287575
Rh 8.90154380024246 13.29318291456806 14.449293847826585
Rh 7.223867863052027 13.738350399492337 12.383750570119016
Rh 9.679946281284051 10.886452894118893 14.919467757764291
Rh 12.044167672371534 10.885908575298007 15.704610956333664
Rh 7.816202939336216 11.289592122629212 13.074916260727946
Rh 6.587207755050143 11.804129959263607 10.782755999948696
Rh 8.901537243425038 8.952706819745337 13.333592324775045
Rh 9.150698760707137 15.298976184864083 12.961604059809058
Rh 9.38477993605435 14.951217622184268 8.547157314986006
Rh 11.691660686348072 14.944114099389248 13.246981346975629
Rh 14.355526227746092 11.836004976479105 15.40629235760211
Rh 7.42892885726681 9.422099629034703 11.283239789106075
Rh 11.273518157165487 12.399238759124252 13.464127845777405
Rh 9.533443042916087 12.716396904415111 11.300952786526091
Rh 7.670777021513967 13.20215165634662 9.013429070160722
Rh 11.379762555656924 9.033443699337019 13.947542509775845
Rh 10.539788301766768 10.398332243111222 11.72476283645319
Rh 8.56068283699125 10.774520957120066 9.392214145866312
Rh 9.324579583920114 8.273731100888645 10.132119695558801
Rh 13.767453367414744 13.485768309094361 13.462914154717128
Rh 13.0934022527991 10.773922941802953 12.4658623953714
Rh 10.684232996489834 15.062448203030689 10.852540941443529
Rh 10.229064862503572 12.48557437288433 8.303603692953422
Rh 10.355912490427817 7.2204083883866215 12.226442435252466
Rh 13.204839897540198 7.590927658553708 12.782338488253034
Rh 13.228646796926 14.71754318237508 11.049123467315503
Rh 11.959138036167428 12.376727469753664 10.662473785885728
Rh 13.998161002256312 9.394211443628867 14.581991914684119
Rh 11.047475814638174 10.13586465917779 9.060386788659171
Rh 15.695024194434273 11.50109313147971 13.325318690325597
Rh 11.904302188173283 14.476475902577851 8.60070861285415
Rh 11.859156677504725 7.976064459660574 10.363901664671875
Rh 15.318108533209017 9.171921560504686 12.272284533006435
Rh 14.308202394117451 13.820396442800817 8.826228901410266
Rh 12.786561384193947 11.882432572974365 8.064684203474664
Rh 14.701816371984338 12.632960020611838 11.166000723511583
Rh 13.48885296976533 10.159878059845934 10.00121370883355
Rh 16.781831386986006 11.044010755788827 11.021141302242595
Rh 14.350520452601394 7.567264479740503 10.472998771628879
Rh 15.41480648790581 11.527656541896105 8.789574125854067
Rh 16.01632684918964 9.169476419958169 9.526297438093495
