46
Energy = -273.62942261 eV
Rh 10.279889615611076 7.579291970205436 14.570010630827728
Rh 13.029746047873674 7.741595333121706 14.148104721989126
Rh 11.101588614869481 9.50727537228279 15.917927855589744
Rh 11.195222367047386 6.969188781307967 12.38915083271846
Rh 8.57480309078418 7.866849864365687 12.538429751454407
Rh 8.977256072767139 9.818073674411542 14.29504928464506
Rh 13.346052056085867 10.319023298919886 14.883179768560165
Rh 11.498735261074037 9.560490652264114 13.316953019343103
Rh 13.7600212237819 7.052633747501892 11.75631861924795
Rh 14.028580944580282 9.504961879626684 12.500625414137499
Rh 10.840344555360275 11.682307871462996 14.530899240717023
Rh 11.98179836185331 6.227816026963185 10.039716496368522
Rh 9.8773262004359 7.629386547092319 10.338974761336122
Rh 7.751695384905151 8.964964529817387 10.185091792582272
Rh 7.190326010031076 10.186213317255477 12.318788654305386
Rh 9.668251713765649 9.987113025841097 11.72083157784821
Rh 12.130298714827642 8.83589106460168 10.816687037613471
Rh 8.656782706987203 12.072603312556064 13.22255021824063
Rh 12.933044845476495 11.821648097522523 12.895098022143776
Rh 15.452015696202555 8.97200473993106 10.571061308868488
Rh 13.932474765779997 7.531118297581787 9.137812468576888
Rh 8.790040118233435 7.712265429612119 8.093981105471522
Rh 6.05878550425082 10.820418024644338 9.969135642939388
Rh 7.0071314751239955 12.766691347270585 11.365330987475456
Rh 10.78987186017623 13.08941643000143 12.374764611926851
Rh 11.557929996621832 8.140092110221092 8.239983896784736
Rh 13.641670770992247 10.042178192657971 9.188485010750782
Rh 9.235773921738705 12.15341430944087 10.507718050141994
Rh 7.701340398869045 10.113612860972824 7.863870459322852
Rh 11.745388747631935 11.388164512019088 10.587068627920313
Rh 14.568421943456679 11.552799985709624 10.941164575042212
Rh 9.939282287195379 9.430885494853158 6.61098719271015
Rh 9.93422380512342 10.036235666157737 9.132798105953174
Rh 8.702696289180222 14.54276089200853 12.484879131594381
Rh 10.776122523637103 13.367724580283515 9.014072906856654
Rh 12.983119750110758 13.600770205568478 11.05040411505622
Rh 7.4673434395767835 12.486249629450466 8.7462640562436
Rh 8.493915614572025 14.567180223541426 9.968978742956754
Rh 10.84680824633514 15.130028217524735 10.901931045150455
Rh 11.879625311220433 10.756692466239171 7.589258110861885
Rh 13.317505965395293 12.583706723921303 8.700944177561045
Rh 9.52382142289578 11.876386500633936 7.253932335328307
Rh 8.916747970375393 14.242124175059955 7.420771500478756
Rh 10.234094037206896 16.040007847744043 8.595147021509066
Rh 11.695846650862697 13.20928863721641 6.755409726066935
Rh 12.61158265885557 15.07957078975823 8.959653468107403
