43
Energy = -253.94578266 eV
Rh 8.56813073482619 12.451805572753118 14.276545017131573
Rh 7.697914661119347 13.65710455998655 12.15511988829933
Rh 8.125826851828995 11.108498948372947 12.096833389424003
Rh 8.876964568250143 15.829377091783448 11.642179811135172
Rh 7.670779319128818 12.343459698903049 9.880595021362486
Rh 8.50882154255785 8.568607420414473 12.170100090189138
Rh 7.755541538321796 9.675270075257739 9.948556027810397
Rh 9.260845178308559 10.016920994464366 14.169100299631443
Rh 11.145890324551642 12.61549352799153 14.915597549293178
Rh 10.027420492967297 14.296492361712241 13.32767148437502
Rh 9.666322299948265 15.480713344462382 9.280833036958999
Rh 10.61801979679813 11.667744676453609 12.631659769804166
Rh 9.55910170120894 13.032314755947477 8.35205555329939
Rh 11.496788390728156 15.44894918415321 11.441182572155453
Rh 10.24081792171673 10.681096754935195 7.657904048493718
Rh 9.93534320350542 13.487409358335787 10.878935942448182
Rh 8.707592239685304 8.728354691268112 7.861702912545889
Rh 9.868526795560001 10.935122635838965 10.164037226607782
Rh 8.950912050860238 7.2845634745480305 10.027624284181112
Rh 9.28405546540518 6.145184479756079 12.278514355140594
Rh 10.4202250389351 7.757720171100181 13.866729248194309
Rh 10.858985767262498 9.176299845643806 11.806869918430587
Rh 12.469863556693744 13.53411764942456 12.860843027317747
Rh 10.660606215924549 14.867615024169275 7.025551239719029
Rh 10.879277153428678 8.732981430603758 9.223736636923839
Rh 13.592081410041457 11.923170361563274 14.57621558339059
Rh 11.778207200804099 10.006764193219778 14.545004368579855
Rh 11.852276708431111 12.612064814711534 7.1612990195041935
Rh 12.224975948848805 12.135202218237186 10.594752572377583
Rh 13.10773629329275 10.5605124279285 12.447098522991073
Rh 11.357321043404546 6.8301522781369535 11.048947554860074
Rh 11.892206227767456 14.276878078732755 9.169115200265901
Rh 13.814072256525419 14.414502992229785 10.85707620853043
Rh 12.577052738011574 10.609473375417531 8.662450771574868
Rh 13.112502493071787 8.836302112020565 10.42590332187433
Rh 12.842360447795729 7.966941407233812 13.094280956962663
Rh 14.790341942885997 12.53756727869205 12.359859513209425
Rh 14.33863258763965 9.484558210420913 14.531811224250834
Rh 13.962170744755984 12.845284572374766 8.7385753355905
Rh 14.62227437548278 10.911756015927093 10.33651860155947
Rh 13.939184256559868 6.631207099590322 11.26501513075715
Rh 15.96357641541986 13.080727694515248 10.220409407934566
Rh 15.091816467991487 8.89559970720616 12.089384417385865
