41
Energy = -241.84499575 eV
Rh 13.928924173065582 12.137059209957 12.587224772041438
Rh 12.352618289591582 13.075118181076764 10.627169754507804
Rh 7.0513108012380075 11.759172073527536 10.791277454351622
Rh 9.873001231280481 11.64732939295143 14.332124369538995
Rh 8.096635388552945 7.640699945774512 10.50004493914205
Rh 13.016485350797778 8.719256023263222 10.131083909186282
Rh 14.074031744050986 11.136913650983846 10.223114722778028
Rh 9.395184198952883 11.996434249879318 6.81052986847561
Rh 11.470480455076363 13.272463491079339 6.354619146748879
Rh 9.826347861164804 13.78561424478304 11.024128761867043
Rh 11.941341366027483 10.764394907576142 11.57815922666344
Rh 7.410918896480348 14.113283996043888 11.6285604325319
Rh 7.775287158855111 7.963702343126239 7.885882371579123
Rh 8.145363590756519 13.450903298450358 9.096497214897758
Rh 11.564371224723665 10.61292498188444 8.961508611253292
Rh 9.206483895999854 13.98951675642515 13.526470256869151
Rh 6.141985380179937 12.100846342513535 8.448464661685424
Rh 10.18711216709922 9.067665592528357 10.539431199641944
Rh 14.006487381558149 9.534361716291109 12.419906631625972
Rh 10.05968499843112 7.31291500718494 8.81788962440851
Rh 7.391819032295636 10.435854879480138 7.1322002126225605
Rh 8.868717584557135 7.291808521096528 12.830342052054226
Rh 9.761889864993273 9.415859263214033 7.348657623308628
Rh 7.545097848553281 12.043684302344156 13.247893677395705
Rh 13.744148935577275 7.0653659822234065 11.968499182839755
Rh 6.8375719858687125 9.599347446038063 9.580303118387148
Rh 12.167655927202423 6.386083081953604 9.727243304666423
Rh 11.825812551034593 10.724793738879766 6.489636596900142
Rh 12.28002406836402 10.689714305195519 14.153242698595728
Rh 11.242826490931975 7.246557422514425 11.933889582763204
Rh 10.669244595263313 13.08653988211188 8.751464143264714
Rh 12.46757230964974 8.168604015022328 13.925615947721422
Rh 8.942255306828088 10.980710074743639 9.1820281398721
Rh 7.801083944152119 9.596791828304184 12.168624572234226
Rh 9.729305917146208 5.714173550785018 10.762454034623108
Rh 13.125940580341368 12.480910645177069 8.132306579756616
Rh 11.543437773029382 13.001126291113504 13.035014776729126
Rh 9.49138282746991 11.458828683524233 11.692001116481562
Rh 10.225183793628148 9.392951765365577 13.184466972190588
Rh 13.982769082469757 10.027541653523505 7.990964718734403
Rh 12.077063247721387 8.357036483049665 7.723922240024563
