44
Energy = -259.56408829 eV
Rh 9.843197341528551 10.4973047174744 5.220692884238166
Rh 7.477785364825914 9.75232716977206 5.794401610230703
Rh 8.035311699498862 12.252765774611241 6.252740379929771
Rh 11.980687650098497 8.145989039960643 5.44948071832976
Rh 12.424190920030203 10.932857304971433 5.341995979749071
Rh 9.441909078642876 8.093616867524208 6.294903101206569
Rh 10.70798099091206 12.283357693189421 6.883083613233694
Rh 8.896115262220277 10.565365477345663 7.911294978705455
Rh 6.367781876589646 10.768702304856337 8.001832717746707
Rh 13.08241833490471 11.352164776422097 7.862172204565683
Rh 7.38035898159884 8.333559683131064 7.915274841093903
Rh 11.251890060108693 9.716724614766425 7.176400646188804
Rh 11.487883671507474 6.98278538846169 7.737793663985886
Rh 8.866609494941066 6.216750786351174 8.097336713649657
Rh 12.13272556168792 13.679546219025902 8.486801339663797
Rh 7.790918829829132 12.675867136424342 8.870936405585384
Rh 13.45105719280191 8.686150497085006 7.700129381680334
Rh 9.821607946973815 8.407011510029529 8.916481194449952
Rh 6.030880905088305 9.05816922946729 9.87572692441247
Rh 10.275427996279905 12.34203104640697 9.37992437787023
Rh 14.253331149984128 9.945045115116498 9.761746766603663
Rh 8.506065613356396 10.032309838902076 10.457320664128257
Rh 11.685572109036709 9.989245161965327 9.63466948944419
Rh 12.73043521622307 7.7946542933516 10.119133759484397
Rh 12.883498737372152 12.148440382613707 10.42817123142674
Rh 8.034542804679505 7.3685626992381525 10.419824430221437
Rh 6.410214727107111 11.443493573928404 10.777854230532393
Rh 10.450345816633465 8.364350807906217 11.427011316162794
Rh 10.57086067629674 6.213007900362741 10.035904662511932
Rh 11.004134634794985 13.66229872654035 11.505437422748502
Rh 6.782850601460203 9.087868177636409 12.208834409017346
Rh 12.880106263625699 9.819086667318148 11.951885013959956
Rh 8.565601934219934 7.279569446715964 12.917665736084711
Rh 8.58206726025313 12.614881608336734 11.332060773393527
Rh 10.636002614302877 11.09828568816684 11.63906616374991
Rh 11.918951753149805 7.844876257108828 13.346285158937425
Rh 9.087911757328767 9.775004979845821 13.096526341528417
Rh 12.504031461555165 12.262225216144897 13.041872078532567
Rh 7.373344505346521 11.520769909095565 13.311796432107503
Rh 7.411409536960064 8.829565387083889 14.711720607457888
Rh 9.903219496195526 12.433942158551405 13.647436334116469
Rh 11.414337055474777 10.221797759029206 14.12097277562727
Rh 9.995740305924912 8.227007605276864 14.930103583676981
Rh 9.097115294163563 10.709093888000684 15.435727427543586
