45
Energy = -265.79517178 eV
Rh 12.114485029309126 12.240172580093267 6.2260157203931215
Rh 14.284193344278039 13.16481652872634 7.6244953993045765
Rh 9.872582946126315 11.876978824798591 7.527184875102246
Rh 11.286674495881737 9.913612747554561 6.816072989308682
Rh 13.37088444573814 10.853457888053985 7.966005750771078
Rh 11.908361817529308 13.08953793490868 8.572861063097044
Rh 16.122239484748686 13.083843897758767 11.468941803892772
Rh 13.917665146734333 13.259291147351076 10.139553769768062
Rh 11.124200938434356 10.53347551562641 9.350864255517681
Rh 9.77182237969401 14.316721433758328 8.587122333975227
Rh 12.057316938868128 15.081490393884451 10.196453366200787
Rh 15.846795183403417 14.353499919360114 13.813696548117873
Rh 15.377294625113741 11.404365243564715 9.431898221650574
Rh 13.529027451153377 9.932959574769981 10.37203303485259
Rh 15.399796068556658 10.555714802369199 11.854214481270699
Rh 9.260966948018549 12.148487005973418 10.008806335710839
Rh 9.633938426950124 14.482272300383272 11.060445198011609
Rh 12.564949992467747 8.460908307094723 8.518354541757729
Rh 11.454664152568464 15.00118050330701 12.78742991848949
Rh 13.853145807139793 12.51467001755036 12.623617260153962
Rh 13.96565431688572 14.97596863260032 11.972386537254145
Rh 9.69044480361906 10.06875960083281 11.501519269496395
Rh 11.583456799749715 8.38731067949297 10.792697805118467
Rh 15.113460175594787 15.281551780455343 16.06608637222241
Rh 11.558500631065318 12.680067465060946 11.193096772034048
Rh 13.386165851695473 14.44697960931881 14.372578427155771
Rh 9.273696580567485 12.433167645433443 12.54759833952778
Rh 14.850257703938887 12.652818433362532 15.626581533390135
Rh 12.063187710741097 10.49442937466624 12.439849134801012
Rh 16.393613351847097 11.88655808016567 13.732404979674932
Rh 12.78270196529403 16.395922133853222 16.051670971607855
Rh 9.029677293188694 14.721640081595146 13.61538302921813
Rh 14.21233223458061 10.565988195792102 14.252339710155912
Rh 13.589612709028861 8.564880437908933 12.650645072805395
Rh 10.907685859276986 14.734311499965767 15.307655672737635
Rh 9.96758280350874 10.439534938915596 14.019183760468778
Rh 10.674660025430665 8.146722444847269 13.097138630353639
Rh 12.500592033643407 11.640338653710625 15.907547750320687
Rh 11.547824908455352 12.589104038017203 13.907152766875514
Rh 13.02907531806247 14.001247641139479 16.890709449126234
Rh 9.296259731926348 12.624830153995138 15.166277932741739
Rh 12.131945878790157 9.313059254954723 14.845790520118115
Rh 11.081801039218208 15.466107107909178 17.71874636186115
Rh 10.722645886099079 12.986426403375145 17.26422262113599
Rh 10.27620107931782 10.614861459984079 16.494712026691246
