47
Energy = -278.86782253 eV
Rh 6.12218027931785 8.882472509324417 13.136344569068722
Rh 7.031273380621695 11.354281012888208 13.18499552252242
Rh 8.490242829746458 9.311756606417465 13.862096274064843
Rh 6.539847426846315 12.452164059908396 10.866742052912823
Rh 9.384939503993849 11.7194316118145 14.234139504995767
Rh 6.808958417254559 9.990358665945203 11.034694898458534
Rh 8.557640184593103 13.226304992978573 12.356093423929913
Rh 6.642081992576167 13.599807346724301 8.627370535287572
Rh 7.999357682373099 7.803928348661278 11.770802808994334
Rh 10.892176361906621 9.48979612630009 14.66254140213509
Rh 11.734742353702398 11.948741404881698 14.973358785056117
Rh 7.229186117537029 10.950621401160936 8.71744259747236
Rh 7.83164617335106 14.816378270543778 10.575244526171039
Rh 9.330263023443239 10.709936791471614 11.82185383531187
Rh 11.050515329437372 13.001084973788162 12.617552345679739
Rh 10.389980275567417 8.30661353230564 12.423781959853924
Rh 13.548393819231165 10.200284831546114 14.776138916017137
Rh 8.91997540412948 9.239896400519699 9.811347549751813
Rh 8.857707933378517 12.525739366921743 9.785069329196158
Rh 10.423057606103132 14.468419676731463 10.4118712010661
Rh 13.91120391988053 12.518353442260189 16.009773940392858
Rh 8.443260519761807 12.689099125079409 7.09387763864385
Rh 11.910967912987834 10.486364456710712 12.561837850686649
Rh 8.932291199736415 14.938214033541563 8.288092862774159
Rh 10.750871072151671 13.165048905705756 8.057265082496361
Rh 9.954470289001398 7.020909901840556 10.2182485281264
Rh 11.257534035451664 11.577284544876605 10.303836171342551
Rh 12.63979162397189 14.824953191422509 11.617866812518516
Rh 13.208127043300024 13.68031237830614 13.82034070113181
Rh 9.845229902751376 10.771935888303513 8.032762750218053
Rh 15.086624790929228 12.018713183200546 13.867917599603777
Rh 12.851205656025135 8.206572077870733 13.336250827393094
Rh 12.272177328021561 7.61074710012263 10.93101764881693
Rh 13.51904022128772 12.30682722705403 11.630258898088508
Rh 12.766681895574798 13.573473364201908 9.395502862132444
Rh 11.31522633560625 8.964532922393 8.919405828454245
Rh 12.466734546548148 11.171934384569985 8.039071294609888
Rh 13.286828479089078 9.93527662437192 10.281389836903557
Rh 15.512159252045015 14.38138888768816 12.954108311667742
Rh 16.114007670461824 12.083206984566452 11.563746351112874
Rh 14.953268738034081 14.165535897416808 10.543399581872535
Rh 14.771823924190924 11.94232973739285 9.282275710951174
Rh 14.608989188913267 9.784560471252036 7.945975957989458
Rh 14.686459471699653 9.957534766772122 12.481311993252
Rh 14.711595659633357 7.768457281567599 11.20347941337537
Rh 13.58722174201149 7.706401880678968 8.778594162292181
Rh 15.921973786111504 9.833653309167055 10.219182139714373
