47
Energy = -33.29941923 eV
Rh 8.25441312902051 10.504253492460588 8.7012657680173
Rh 13.707709574408987 10.516032040920736 9.034272453967745
Rh 11.381642970183353 6.706643855769126 9.473008416760313
Rh 12.019251673569059 10.21983574324925 4.0745369447460655
Rh 6.2154986815532896 10.042176221320961 6.746573461403709
Rh 9.759191461283656 7.843952800693156 5.222951438402126
Rh 10.14234350271255 12.254545964320998 7.6573399804170945
Rh 10.15074325468235 9.63921055801151 7.050425316956095
Rh 12.131010823603098 8.562823279957215 12.909550963815729
Rh 9.896695568607782 5.367202255320461 11.36592726332169
Rh 11.131592110474573 6.498105182609212 6.958350930982809
Rh 9.198600693136031 13.111815135340471 12.74170876455664
Rh 8.22766507913173 9.890143729410838 5.09294631995482
Rh 9.656305514189896 8.73864584398999 13.87355456509532
Rh 5.476603528182096 10.402283105081603 11.68750021825766
Rh 7.093831734063501 8.56071957013147 10.667591265425074
Rh 6.894074081758997 5.726548671782004 8.06948597653909
Rh 8.94393369060505 7.982869075463613 8.672619313648116
Rh 11.546681130157085 12.87420783427551 11.792136910477504
Rh 6.839307758502199 12.301711353199838 10.308471408576894
Rh 10.263016181258527 11.56977662118328 5.103480211086563
Rh 5.849160871754139 12.36760130327634 7.791955083147468
Rh 8.798767858054006 5.679630659156216 6.340367768406363
Rh 9.385378985084635 5.261740949044717 8.79884673940636
Rh 7.929788372943268 12.152681099324557 6.14761127737178
Rh 7.229193304415527 9.362156369446062 13.212400125455188
Rh 7.454995560916232 5.969717455427774 10.495934137315599
Rh 13.051248318200603 8.368734579331566 10.469445125450072
Rh 9.95918104309344 8.265672984181936 11.15501580912813
Rh 12.484229221110267 8.562638680764099 7.867373696748699
Rh 7.217101692696281 7.713829527165738 6.224394878127248
Rh 5.866475314652734 7.938387824982171 8.399943093955356
Rh 9.601145013497055 12.953029888124265 10.132390218295374
Rh 12.112443877778531 12.431256327198712 9.312493187366726
Rh 8.157600904482667 6.9560735742080375 12.737181086379348
Rh 12.359252301634966 8.081304052058739 5.271764157694301
Rh 10.597464719211102 6.373615115035225 13.599840399664041
Rh 10.750043657637791 10.051461793728862 9.561224663701957
Rh 11.15081916548286 10.90864063646328 13.43529442076956
Rh 6.9013662877470185 12.089759787812083 12.890677978756777
Rh 5.390343538125581 10.292623318984809 9.20088497333609
Rh 8.927855454847567 10.62293636014029 11.351011766579582
Rh 7.932732304505583 13.567416278153273 8.316999912732655
Rh 12.370769846132678 11.065664757228703 6.868308555125622
Rh 12.362851755530903 6.204077442479137 11.806027106225372
Rh 8.80455039072055 11.102738362266146 14.334649262604254
Rh 12.77486456419935 10.692845005065006 11.42400314938657
