45
Energy = -265.95235832 eV
Rh 8.330938294923014 16.013564941327946 12.496839721456675
Rh 13.328082982043556 12.141782939461411 13.82111096249954
Rh 10.274420068397403 16.200999488258393 14.188879880826919
Rh 14.470136055921866 9.095368401012859 7.827954158274264
Rh 9.184735278902286 13.885374083043782 13.785147935106199
Rh 10.88278402614149 13.775503202467672 11.707948551216164
Rh 13.138703096208562 16.19692752442717 10.687214824749466
Rh 8.216024255290678 11.66018203072461 12.907729768791334
Rh 13.555375311908179 7.833439774192468 13.833902813150074
Rh 9.840342386545512 10.303563552761565 11.37570693009348
Rh 13.44837788426404 13.742534853557714 9.61564410704071
Rh 12.323458256359004 10.04111529230666 12.28738299070907
Rh 13.554768538139433 7.314906449887262 9.370355599301524
Rh 9.727453256330474 13.225161117336162 9.453993722402355
Rh 9.895700217276417 10.822302810978556 8.741678970724696
Rh 11.768513957825753 9.12247962891587 9.900562614054042
Rh 14.318127939265008 9.54139977233785 10.345388247933315
Rh 11.717564906842206 14.121754254098597 14.14287910657548
Rh 11.739699289862095 12.561819407010598 7.919494575107233
Rh 11.346494230644195 15.106112552861516 9.281638848431168
Rh 11.773886066414262 11.787638040088519 10.314503264873876
Rh 10.971348812790593 8.301213580088923 13.558192676651323
Rh 14.826446040559809 9.824993079348316 12.860769831034215
Rh 14.068628757222546 11.856782997082437 11.430599543193821
Rh 8.557279100568971 9.071292160727074 13.154267191741745
Rh 11.18640114218233 6.5009993364957035 9.417834193364776
Rh 8.278195619050166 13.758346945997774 11.437343920002023
Rh 13.916595405990366 11.434075646362396 8.705266717648925
Rh 10.065882328872823 8.367846602502949 8.08191209989789
Rh 10.71165382024366 16.20771182715098 11.639269704652119
Rh 9.909962740536027 7.677143247328846 11.271219550498037
Rh 8.886175511234022 15.72888728167271 9.918627284070597
Rh 12.359396330435006 7.157714888441665 11.716728051640558
Rh 13.359364756343288 14.151210191956359 12.11381463261373
Rh 7.429037242217305 7.452682934690016 11.559903232097342
Rh 8.26962842299533 9.024312066647072 9.751495084427123
Rh 12.10698387924592 9.9140548367374 7.576770569564969
Rh 12.571427464238072 9.939463522323244 14.825791041505786
Rh 9.909086589509664 10.1294488957631 14.941827777950254
Rh 7.885244247331128 11.584437778371985 10.26827056691189
Rh 10.8090396014572 11.768555403118322 13.40903113851203
Rh 14.87939377094531 7.487318095520325 11.67519507287289
Rh 6.662451271799061 9.86287700886965 11.666353689327035
Rh 12.668599477677448 16.338219903654345 13.253606651531737
Rh 12.319531468469505 7.409821753511953 7.203292286392317
