45
Energy = -267.39404827 eV
Rh 12.500865958994405 11.849713000397479 7.808857136617789
Rh 13.28884732558406 9.475978129011184 7.482802665673162
Rh 10.273624655694817 12.419938862093804 6.800682076166089
Rh 10.746279114340895 9.903407133762618 7.240900911652941
Rh 14.113214112736541 10.808267522342916 9.536114674140256
Rh 14.28199151680169 8.165400043934158 9.41201192206549
Rh 11.74933318455846 8.78896930435695 9.327075737098074
Rh 15.206203227343629 6.86555488823987 11.369341000684933
Rh 13.419682336954239 13.379199512843082 9.598898531564165
Rh 15.439700366980265 9.398757084619943 11.308087291569253
Rh 11.665081579485806 11.367473096347569 10.173512542349211
Rh 13.79679304852756 12.040137161986861 11.80116855270496
Rh 8.392405624101581 13.612820321784495 8.006369212255633
Rh 12.70103909059594 7.005743796909645 11.077163253473486
Rh 10.064747923357764 9.685929653443443 11.274761354149813
Rh 9.181979496387777 8.681539376519044 8.94294698221045
Rh 9.255629526656419 11.293189796523153 8.804014051784904
Rh 13.339781543817995 15.511216585542913 10.772395142053439
Rh 10.804036486849853 13.64931577734624 9.008076718868793
Rh 12.841854252028071 9.530750181686082 11.677061167812298
Rh 10.210379646406578 7.139143959029119 10.69823334386358
Rh 13.79353408244224 7.81717580282939 13.3006382840167
Rh 10.707246587096567 15.74258935368125 10.559010417334477
Rh 7.583650589429455 9.949410199236334 10.327995423026612
Rh 9.432687004163 12.324111668283118 11.234947980536353
Rh 11.373233282160427 11.421597866116727 12.821292221763645
Rh 7.11652585320587 12.448161615401794 9.875501780825633
Rh 11.15685380453449 7.89882240451215 13.00035928309241
Rh 13.785486337652157 14.294455585435696 13.060891627521492
Rh 9.780121838251306 9.803352463916964 14.15687441266164
Rh 15.564274507252264 12.633190873205942 13.516058471941825
Rh 11.689200657297949 13.663464303920993 11.565047385375834
Rh 8.532451827394006 14.569548940096402 10.325954454283579
Rh 5.79381417261775 11.253432274450848 11.574554901208783
Rh 14.75448823577173 10.210774859166897 13.508213378489815
Rh 8.569846844099672 8.1420905466595 12.58381400217237
Rh 11.870818670474385 15.959048935509946 12.910385406245139
Rh 13.335222457085587 12.088947780247377 14.513308753134783
Rh 12.382204349208658 9.620605410837525 14.475956007091495
Rh 7.900167198692653 10.666399754450921 12.724610194119544
Rh 11.06148165927541 11.599953728731952 15.530669697246715
Rh 7.362282181959652 13.269875763053479 12.371424150145549
Rh 9.242084071876125 12.48035064154655 13.960783126291224
Rh 9.53733362108296 14.761280930905397 12.71246931306042
Rh 11.411373859835706 13.821220250657936 14.241565433056017
