44
Energy = -260.99455405 eV
Rh 13.691733707238601 11.383408339082127 10.209423750528893
Rh 10.562339896191828 12.4042333794105 7.2722735835160615
Rh 11.429699781710358 6.938613601599845 11.805395561041847
Rh 8.850061903160723 7.272617131656662 11.047536443842167
Rh 13.349929112135884 12.564849477536164 12.466552604740825
Rh 6.995115884592219 13.143243747157651 13.329897695608366
Rh 11.651649436409516 14.728577343928048 12.566759091015882
Rh 12.341805622720285 8.775808741732213 13.523651845971095
Rh 6.919287024289966 9.60724627699396 9.702369459081321
Rh 14.721768997987205 8.922866530682583 10.060815433345498
Rh 6.634698201377338 12.331298043502036 9.062946597445993
Rh 8.807412235761898 13.685515270094022 8.649235605668892
Rh 12.43933180435166 11.107513830374392 6.151669401546808
Rh 14.260559390788085 7.918381906297293 7.74973050555546
Rh 13.083711118968958 11.04677857709408 14.533360519294133
Rh 12.961337082294456 12.672610666362852 8.10650242878834
Rh 8.25237916185485 9.320553660098287 14.711570127530976
Rh 8.921254374481885 11.284694002514708 13.145043804168711
Rh 8.717930657874948 11.070102473407658 8.479227344610765
Rh 11.175821646503453 14.60532285436272 8.385419289867986
Rh 7.453786742404579 9.074301422651699 12.212912850169534
Rh 12.127344965063841 9.296613692752505 7.847430248888628
Rh 11.937514360770482 13.387976041711017 10.467873970039486
Rh 6.377452181209987 10.739974276487112 13.753729429841675
Rh 11.139019093138279 12.63652026654633 13.903553994556692
Rh 10.657501297659868 10.272386773881465 14.780428332317534
Rh 14.144236016270197 10.064622834871349 12.334348318799623
Rh 12.106688960434317 6.709628913127744 7.471926824052096
Rh 7.460009935080688 14.021017384081414 10.900368888128801
Rh 9.45958953754014 9.71016837030618 10.577245674784221
Rh 8.755764869181126 8.497672407701039 8.320349578711884
Rh 10.08093122776705 9.972264194816766 6.68474495869693
Rh 9.476990663005616 12.413119830840019 10.815282659357567
Rh 14.348846160180884 10.486330120328615 7.975089333345197
Rh 9.91325654228569 8.689716097305434 12.897604093812333
Rh 10.739054467940685 7.502673215951521 9.346357727508737
Rh 14.0108075285873 7.45525926639468 12.118180616383885
Rh 11.347278470740749 10.9719830159258 12.063325197688952
Rh 6.97685034012603 11.502003384967475 11.380049179956213
Rh 9.870194665494887 14.98387929208297 10.618026778374052
Rh 12.309900440742961 9.094165165194712 10.640669542025105
Rh 9.261951334471416 13.958395165803386 12.903696980254004
Rh 13.167334806461389 6.796573421694198 9.807141622523147
Rh 11.276318508200742 11.14496974614022 9.386732262066552
