45
Energy = -265.72593966 eV
Rh 12.163588893522405 14.140219717319445 10.939601127558136
Rh 13.949757045950102 12.270176278844025 11.103552172013663
Rh 13.822706528931503 13.995868866082096 12.99016455123983
Rh 11.574856615112262 11.906599609566872 6.533434337166915
Rh 12.452213225571342 12.463355507509702 8.937806669302352
Rh 14.99477826341845 9.975006124437765 11.908668153003857
Rh 11.714094322195013 15.346974907448141 13.230860811247792
Rh 13.468693368993836 10.288858250073726 7.025236861534346
Rh 9.832761365031605 13.122239816458436 8.137724871589878
Rh 14.268226198481935 10.440527609868152 9.440940207629447
Rh 9.782741693623398 14.628141846038007 11.749460899872982
Rh 11.691614159568473 12.309535527614154 12.68926300785423
Rh 12.004955111507751 13.358644939305886 14.918801758910874
Rh 11.014417237337222 9.312949831791636 6.441138525618552
Rh 13.98059157598196 11.54967217582559 13.598049923906277
Rh 10.181245254297503 12.317530854500825 10.51754255699747
Rh 14.906609378544402 8.37192772502759 8.116180578020371
Rh 12.069306059555185 10.57892606565116 10.785482489999149
Rh 9.09413292058925 11.080280128410664 6.57119046927053
Rh 10.640270220087793 10.67523078679629 8.575644440278555
Rh 9.686351627997546 14.387187915663437 14.35961058162394
Rh 12.978775253906095 7.736423138021977 6.481407393953322
Rh 7.747319833234077 13.283245051194827 10.69690781856323
Rh 12.669720901579955 9.133006905771134 12.625187422399922
Rh 7.493819744475387 14.705603781259136 12.911745088843322
Rh 9.005799353423322 12.469786486927346 12.784204036575046
Rh 12.342275805605508 8.850829183894506 8.772914338400854
Rh 13.293236746664396 6.371737243119714 8.754974876731483
Rh 8.185238236178657 11.25924044927555 9.047908197140595
Rh 11.968435471593144 10.620864011004143 14.685877239676934
Rh 10.088316359193016 10.036357970033654 13.094500368880606
Rh 13.978774507621015 8.048579795517076 10.607797168312688
Rh 10.860652800355979 7.063470971446327 7.875610190918384
Rh 9.775201925251734 9.29878786346455 10.575104794919794
Rh 9.842422753966884 11.87205451800622 15.06859308074274
Rh 6.294444503971599 12.424359471237503 12.75967739677318
Rh 7.554370838906648 13.076316086818045 14.953602256613468
Rh 8.949768150631385 8.836510329825265 7.980990066382181
Rh 7.642655791193093 10.751077622684576 11.45929107438833
Rh 10.527240061797908 7.624952768321404 12.486768238714115
Rh 11.542659467212774 7.077478970768186 10.401764689674431
Rh 7.71884153952526 10.618785463358384 14.062922391117745
Rh 7.243655751758073 8.838000817810451 9.896252497851288
Rh 8.081164259522229 8.43511932408837 12.417607943804011
Rh 9.03337256316681 6.980604632975152 9.762334705576402
