52
Energy = -311.9809335 eV
Rh 14.65172683654714 10.023847109386697 8.58795228350124
Rh 14.197408237857333 12.644558774824931 9.473019662521232
Rh 16.1419028479296 11.2810260934535 10.450465548894318
Rh 13.084797122992093 11.877260107958419 7.323762604319851
Rh 13.618582448379463 14.730228833555332 10.748790597895034
Rh 12.367673347916448 9.310277138936394 7.400293743968948
Rh 11.918458714828043 14.144068558236938 8.874082415625988
Rh 15.187434068764635 13.114729925213235 12.06224355251183
Rh 15.214712052171304 8.96209057991931 10.868423605104205
Rh 11.070381195878952 10.994149862031339 5.959994382691368
Rh 11.235893546694294 13.489561329356903 6.407066640984494
Rh 13.839316937445 11.068808685506676 11.658506048489823
Rh 15.810787260315015 10.499185960311227 13.099086985990208
Rh 12.987615205718905 8.119774784195112 9.853961622450987
Rh 11.812029280380507 12.641952272148304 11.024055539548574
Rh 14.41094322712744 12.348952323924527 14.355429823182682
Rh 10.612573244396966 11.950329139269524 8.436774683438006
Rh 11.17382218824494 7.151049368643736 8.133542862505111
Rh 12.894640019053803 13.960743793760006 13.086818438748029
Rh 11.25940912849202 15.197462499625594 11.488665502778433
Rh 12.532823719381812 10.686279982391696 9.559901499849172
Rh 9.279883647549115 14.043222922235138 7.859130280579255
Rh 9.640998436593376 9.132896677581073 6.947892013427648
Rh 8.68388723758441 11.559580065193147 6.9995131684181215
Rh 13.87369914028978 8.847997939735706 12.98482128938789
Rh 13.849567708337666 10.113282187464712 15.134467579272096
Rh 8.70561432737175 7.503084311635173 8.867146099505634
Rh 12.220192142896396 7.072075444411426 12.584330387940252
Rh 9.396843829665041 13.994381006282278 10.291936925404825
Rh 11.6459671929917 9.485673244189755 11.675743978239362
Rh 10.595319767729881 7.153430395282525 10.659892996761668
Rh 12.332122863476704 13.281876984238139 15.508265842528601
Rh 8.857310972409067 15.466199165765572 12.310419678569838
Rh 12.058599443133385 11.504414417963462 13.520249219412177
Rh 10.440277939245785 9.367402005297711 9.247679649304425
Rh 9.880132533905224 12.90793077080392 12.681769840354361
Rh 7.54368267068591 12.521939540983531 9.255424544101235
Rh 11.602812858296518 8.99636377613561 14.377435977420934
Rh 10.678843763987063 14.789618108749615 14.127552300130269
Rh 7.941252717575625 10.005073728878703 8.877570708970977
Rh 9.401729981186186 11.375341548914376 10.638666127880674
Rh 11.597234521179853 10.80292368312268 16.17402070376397
Rh 9.768060623022858 7.7252336495970155 13.097553080663893
Rh 9.722213588806145 10.330715157507788 13.044755250020085
Rh 8.680778349884696 8.863410012085648 11.104848990339352
Rh 7.471575887067355 13.22534803447872 11.862035532024926
Rh 9.938645487981592 12.381552116687473 15.194238685602032
Rh 8.156617659414655 13.998962011542643 14.29733200194981
Rh 9.23445778191503 9.871635136241261 15.392135844397654
Rh 6.98769422446395 10.797257951840907 11.261672607622224
Rh 7.708451264689735 11.53194956751822 13.835033264723661
Rh 7.45367808077604 9.082424756964437 13.368834708493246
