55
Energy = -331.70034563 eV
Rh 10.8136398611484 15.72733939188985 14.726693272351428
Rh 12.466393060066602 16.278311678825926 12.716764335181512
Rh 12.972021475805285 14.373343024343361 14.338144876739333
Rh 13.119603201801512 12.341562262423215 15.9375132772871
Rh 10.761415736230166 13.203330442472753 15.154291955379561
Rh 14.716557697595798 14.97405366959013 12.425837904017266
Rh 14.758772668184971 12.584751070415939 13.990781656672713
Rh 8.774890304576033 14.233146996897043 14.024588172352443
Rh 9.690060682976602 16.201798370278276 12.477948262247846
Rh 11.235696587638458 15.828889406421236 10.445285282946626
Rh 11.248326243440694 14.124022201292314 12.374837294765989
Rh 13.75979109886335 16.129491164013736 10.422244063069416
Rh 11.149636197508231 10.7079004562152 15.589338055256237
Rh 16.37192955920417 12.929904368895519 12.100928971471783
Rh 12.2091094230004 11.845723929153746 13.500417868938902
Rh 8.66494391339721 14.005552263573183 11.443448141725518
Rh 7.195265310072472 12.480939570176695 13.026185497705656
Rh 13.785538105051087 10.132164510879358 14.427536025856583
Rh 8.721196723533765 11.503984579254793 15.004937829826273
Rh 15.287709646669496 13.873850145536865 10.01242180136715
Rh 13.526403044032744 12.97587340066587 11.643578170236609
Rh 8.82037063000076 15.924381401204286 9.9076349943471
Rh 15.01125628766705 10.71539891455374 12.169772992160164
Rh 12.769538327900488 14.069248141834036 9.43594967690929
Rh 9.726351046139916 12.082646747959114 12.822681738784928
Rh 10.89313103264963 12.379583941032728 10.440233491536603
Rh 10.249992467832557 14.169034787107858 8.711790684258212
Rh 7.77982359752556 13.529309395913325 9.108167233365508
Rh 9.406440604117098 8.980006471860854 14.770381646755723
Rh 8.004762764794718 9.98937647272168 12.924411127980365
Rh 7.981568669343356 11.553698542384407 10.763337395827024
Rh 11.470984159764805 9.36804343390911 13.459963281663695
Rh 12.600021521175298 10.536227991401583 11.210966402283706
Rh 10.007245961525921 10.063764936410962 11.339092257211643
Rh 16.291769970478008 11.425060583274114 10.053526478068362
Rh 13.928277948208686 11.749511124669452 9.293687859068015
Rh 14.612675949237026 9.340555632737091 10.04389885748543
Rh 9.352700749514465 7.757537167325368 12.436304592427268
Rh 13.74245398781919 8.44867319860433 12.417453434683559
Rh 11.733223064308232 6.880219852716294 13.371235700133631
Rh 7.061867999015937 10.809818482170927 8.623651530780236
Rh 11.868786100926066 12.236413204656445 7.881393294502166
Rh 9.368786508626552 11.760525294848062 8.291709494891382
Rh 11.213908889790037 9.940509544257832 9.101229290278535
Rh 7.837032653778174 8.895757693403734 10.529083142703454
Rh 11.565302330230908 8.07796920510902 11.06001723920422
Rh 13.265784407396115 9.854352732892762 7.748788280370478
Rh 13.219990618611071 6.16936416487552 11.205508743863957
Rh 10.674725519478994 5.633673820513553 11.420190396675629
Rh 13.042219222760828 7.65907612016817 9.137927673226557
Rh 10.719871520226413 10.235912249235195 6.619188591818468
Rh 8.947410476023627 9.187254000193793 8.219067456695877
Rh 9.647434559437462 7.245102811783175 9.708956186685137
Rh 11.076910200563113 7.852898126031585 7.591573680314514
Rh 11.495159168451433 5.639840365142806 9.014181893760812
