51
Energy = -304.99818433 eV
Rh 8.354077338865924 10.479528745080025 5.378503444868098
Rh 10.92383589448569 10.26156105054197 5.713804647080596
Rh 10.258024113360715 7.7222218416141075 5.994138215677036
Rh 7.086836657535883 11.932858897533714 7.026816911946146
Rh 14.002876950239832 10.595956420899205 7.854903055867905
Rh 12.64706375229298 8.546833893530163 6.691326919786667
Rh 9.758831723652847 12.540620962735357 6.1935842470039
Rh 11.449881417441105 5.781543746491471 7.14123437395634
Rh 6.745573355606108 9.018042492314644 6.684695142407347
Rh 12.278347921190912 12.228958223393589 6.767651566445812
Rh 7.162154036945426 9.946865025753892 8.958612566344692
Rh 9.210019108188414 9.43929675453721 7.506835787599739
Rh 8.85571591505466 5.776147069870104 6.949867485389759
Rh 8.361678805722073 14.093890401808695 7.961066643581689
Rh 11.477479860166056 10.342929443726637 8.240974070431744
Rh 10.966366929012132 7.778751198705463 8.523993819739678
Rh 6.982349718346683 12.57355248665395 9.593655156849197
Rh 6.087653104314485 6.721653051949257 7.552613340458322
Rh 13.245506534928108 12.83715152969941 9.112792108184022
Rh 9.257194290590999 11.765907019763548 8.504658588820497
Rh 5.044422280156414 8.700780702621488 8.826494334056184
Rh 8.258934696402665 7.4607726730233095 8.698136951630378
Rh 5.028440980547807 11.242912428218814 8.494784797129594
Rh 9.964484614613095 5.444565809008581 9.352174951129069
Rh 10.913380371493398 13.730356249678778 8.289625314240608
Rh 13.566436680343623 8.365135038563947 9.125828555894374
Rh 9.73691717907169 7.593837551985922 10.829488978097709
Rh 5.748161616795995 6.51912211488999 10.09139818171083
Rh 12.173811258598947 6.613262456381799 10.582918628967183
Rh 7.42622744285954 4.972131035342501 8.891166208092312
Rh 11.68247600882206 14.35283627687162 10.680303493141487
Rh 11.267297093437037 11.848297867178207 10.329961385720146
Rh 13.77246418579221 10.62670392623579 10.421773965531148
Rh 7.2440484729647086 8.329357720022442 11.019388072504551
Rh 4.696316922732607 8.506961066991142 11.384588745618663
Rh 7.9502483037613985 5.703191461546256 11.289467235658785
Rh 9.226243152736322 13.554902500176388 10.44681809889271
Rh 9.256564647524419 10.073249516015496 10.382214314665076
Rh 5.855024027782109 10.723929809582467 10.994142658596285
Rh 11.661272058940405 9.245663092436677 10.633048715798015
Rh 13.762177948020648 8.378380728779472 11.754641918399432
Rh 13.17244135504307 12.633518658129747 11.834646978516917
Rh 10.34451833001505 5.471221419406308 12.092761184791414
Rh 6.145876837658288 6.828059423541039 12.720855571615562
Rh 10.484681425056616 12.39274106222217 12.584976211830044
Rh 12.237382931208323 10.392114115621519 12.777662384398925
Rh 7.132340660606419 9.6430006762637 13.094962594997668
Rh 8.700116418928816 7.481688904986144 13.16632636575127
Rh 8.086537514488418 11.683615736691213 11.817224783665136
Rh 9.684921543208306 9.923029324621133 12.858830417030557
Rh 11.338204171571086 7.854228955485793 12.855498468610913
