55
Energy = -333.53888683 eV
Rh 11.208944992358141 11.208945960484613 11.20894607903077
Rh 11.210635123755154 11.208945960484613 13.783942045054058
Rh 11.205166782573603 11.208945960484613 16.311309636708252
Rh 13.081590393653867 9.84803515892438 14.977343491187373
Rh 13.073348240986656 9.856786992882968 12.357376100692429
Rh 13.073348240986656 12.561104928086259 12.357376100692429
Rh 10.492805351304503 13.396263658091062 12.35589049951862
Rh 8.90217168165274 11.208945960484613 12.356773800971245
Rh 10.492805351304503 9.021628262878165 12.35589049951862
Rh 11.92508463341162 9.021628262878165 10.062003831888338
Rh 13.515719389736171 11.208945960484613 10.061118357090296
Rh 11.92508463341162 13.396263658091062 10.062003831888338
Rh 9.344541743729467 12.561104928086259 10.060516057369114
Rh 9.344541743729467 9.856786992882968 10.060516057369114
Rh 11.207254860961127 11.208945960484613 8.633950113007481
Rh 14.891464181344517 8.537148985813326 13.492995548511388
Rh 14.891464181344517 13.8807429351559 13.492995548511388
Rh 9.798817841383546 15.534015863577272 13.492768858551297
Rh 6.652520975636815 11.208945960484613 13.494635166581817
Rh 9.798817841383546 6.883877144064585 13.492768858551297
Rh 12.619072143332417 6.883877144064585 8.925123299510242
Rh 15.76536683573389 11.208945960484613 8.923256991479564
Rh 12.619072143332417 15.534015863577272 8.925123299510242
Rh 7.526425803371446 13.8807429351559 8.924896609550155
Rh 7.526425803371446 8.537148985813326 8.924896609550155
Rh 11.212723202142362 11.208945960484613 6.106582521353129
Rh 13.081590393653867 12.569856762044846 14.977343491187373
Rh 10.485461186696941 13.407935572970128 14.972796675506274
Rh 8.888590280193995 11.208945960484613 14.969978314317489
Rh 10.485461186696941 9.009956347999099 14.972796675506274
Rh 14.930891956315733 11.208945960484613 13.527506505474733
Rh 12.35415986778198 7.672671008468789 13.525067826378539
Rh 13.8110219460029 7.644178066698355 11.205856329232041
Rh 15.41813539223333 9.845551923829172 11.207980342010485
Rh 12.35415986778198 14.745220912500598 13.525067826378539
Rh 15.41813539223333 12.572339997139895 11.207980342010485
Rh 13.8110219460029 14.773713854271032 11.205856329232041
Rh 8.182868493765872 13.400039150741168 13.528852817542719
Rh 11.208944992358141 15.626824472540719 11.20894607903077
Rh 8.606868038713223 14.773713854271032 11.21203365548424
Rh 8.182868493765872 9.01785277022806 13.528852817542719
Rh 6.999779585954237 12.572339997139895 11.209912902723687
Rh 6.999779585954237 9.845551923829172 11.209912902723687
Rh 8.606868038713223 7.644178066698355 11.21203365548424
Rh 11.208944992358141 6.791067448428668 11.20894607903077
Rh 14.235023664295671 9.01785277022806 8.889039340518822
Rh 10.063732290279402 7.672671008468789 8.892824331683002
Rh 11.932428798019181 9.009956347999099 7.445095482555109
Rh 14.235023664295671 13.400039150741168 8.889039340518822
Rh 13.529299704522128 11.208945960484613 7.447911670398635
Rh 10.063732290279402 14.745220912500598 8.892824331683002
Rh 11.932428798019181 13.407935572970128 7.445095482555109
Rh 7.486995855055288 11.208945960484613 8.890385652586648
Rh 9.336299591062414 12.569856762044846 7.440546493528909
Rh 9.336299591062414 9.84803515892438 7.440546493528909
