5
Energy = -20.51603052 eV
Rh 7.175113395403125 5.845349903571837 4.409844095393971
Rh 6.030326701791951 6.641652813356694 6.449276895343729
Rh 4.399905882868648 8.128850023810624 6.647386642872922
Rh 8.301341289071274 6.257123787941322 6.564985706754927
Rh 5.633044522350805 4.463794981174215 5.594174940344375
