51
Energy = -305.86218029 eV
Rh 9.35472594426204 13.519349783181347 15.319853063417012
Rh 11.696317896302057 12.975758631494232 14.661126822788226
Rh 10.326459761489385 14.630116495876068 13.262696658178044
Rh 8.718973909071147 11.338483695743385 14.500432639433237
Rh 8.210649715314815 13.20889746426851 12.81050247506628
Rh 14.241355447051468 13.007253740164346 14.593715750854143
Rh 12.952185596803467 14.78382348463284 13.16977436416457
Rh 10.810895784886945 10.975928015882731 15.958216471147955
Rh 11.459248697501891 16.22844363191172 11.643867831442076
Rh 9.493422026951546 14.770138168717411 10.793655957375064
Rh 10.407834432715736 12.528982378861848 11.739395925496739
Rh 9.054744219193555 9.089944173268577 15.647456207535283
Rh 7.193255234754814 9.495120957412325 13.887572338909578
Rh 7.9565720840416505 12.713669830190698 10.306724984664905
Rh 14.04021598467192 15.630048730465518 10.951811919402736
Rh 12.94298064842291 12.34838953995252 12.452540185401748
Rh 15.132514857418641 13.551672016750937 12.167609235370131
Rh 12.146692618438875 14.004934673309204 10.54386732778021
Rh 13.099315061376945 10.66621729529205 14.70044918328484
Rh 9.57841800527916 8.408093906416264 13.261004183746389
Rh 10.90391981829419 10.673434436439848 13.359819529960204
Rh 12.727105846627872 17.53303607104328 9.891661335245416
Rh 8.554876202362053 10.61078283994621 11.912502943857497
Rh 11.516045176135673 8.653251041631451 14.952496475665086
Rh 11.200809386013468 15.697145096382448 8.952579896435816
Rh 13.728533081648893 15.72366458304355 8.42459553605101
Rh 7.509282276007288 8.086057865049021 11.8346149907565
Rh 8.50388119353338 8.933195995419158 9.7659106068053
Rh 14.02912973797973 8.356983925861838 13.955320495571803
Rh 15.23714813757757 11.046688487175125 13.305332626566683
Rh 10.848940151443015 9.304431087115004 11.04991918763739
Rh 7.472675610069609 11.001853619659705 8.510597745407692
Rh 11.99289093652456 7.582281565653922 12.62939139899464
Rh 13.179311321723892 9.792308755452591 12.083719190182427
Rh 9.778498704098348 11.159260943669985 9.585421831017973
Rh 9.838213535918255 13.50082064459774 8.583024387706084
Rh 12.224035838665186 11.409199330529779 10.153023789245012
Rh 14.880332834049613 11.290842270371122 10.753007568892647
Rh 12.410567913478006 13.605685244729585 8.012380953353333
Rh 9.773477692266887 7.016631626547331 11.105675672014325
Rh 14.427464291728585 13.451402197535016 9.626135338623794
Rh 10.132635652149272 7.386470580784328 8.528736692148751
Rh 9.491802059224911 9.673933715067914 7.494091465959405
Rh 15.71655516452088 9.038361640094802 11.86776893994645
Rh 14.239140900867206 6.984073469953471 11.609140463315772
Rh 8.95045345582366 12.103863897039606 6.770238709577731
Rh 12.146008856680693 7.134749848266697 10.056963148568316
Rh 11.887978692287382 9.26964766437335 8.627970991569805
Rh 11.39019913467511 11.481404451624389 7.4599540868164445
Rh 14.077002750042185 8.88985275592974 9.893049109823048
Rh 13.844338247607748 11.032848152297445 8.29840811231051
