5
Energy = -22.6928397 eV
Rh 8.691387938084226 7.523607907707678 9.586647484357448
Rh 6.516845956859536 7.987977230515242 8.780867030641437
Rh 8.147166409024061 6.806147651683211 7.173448934420239
Rh 9.614753641982848 8.81731211837659 7.83953630638298
Rh 7.443863554049333 9.278972591717283 7.033517744198129
