50
Energy = -297.70256877 eV
Rh 12.257887741572125 8.586222476279813 5.095847763380577
Rh 7.350371436392988 8.763365294468095 5.165901021589335
Rh 9.760409748577679 7.9148401577490075 5.280589306278875
Rh 11.63557352802745 6.235489902480313 5.8010220713004195
Rh 13.946320425585078 7.2644289399732855 6.556022306936427
Rh 10.560765016305414 10.425686179048517 5.611612878794195
Rh 13.848763647009328 9.7313975542834 6.903089430681931
Rh 7.685390640785 6.530190207812261 6.3984043050104145
Rh 8.106395399720267 11.254282727504293 5.757324957984291
Rh 10.029881907959066 12.850504117315529 5.3663160658811435
Rh 11.50477461170368 8.887948859222972 7.541058541966422
Rh 6.442045603336507 8.472607316744757 7.560309469262738
Rh 12.599240995502342 11.755177627545672 6.1963169106554545
Rh 12.267012736865874 6.386504138216355 8.234220762921705
Rh 5.654843572862289 6.203546415080467 7.9992210768757745
Rh 8.872024173745734 9.324174175892445 7.236200321989266
Rh 5.750674287005778 10.463014142908145 6.169617019523001
Rh 8.344748271010497 13.111668894320257 7.472946120317132
Rh 9.832697678057874 6.76630803015545 7.604088380192163
Rh 13.576280539039598 8.437485734984554 9.141113600828682
Rh 10.644749770311766 12.229400076379347 7.662589753501787
Rh 12.639156374545534 10.918091289966155 8.78081206442267
Rh 7.98400825452121 5.656540599367358 8.977334488218876
Rh 10.092110609862068 14.38999493014965 8.813197215149648
Rh 7.138840340400847 10.984739415987786 8.227783676412013
Rh 5.893049097997649 12.077214445026874 10.268174089370918
Rh 7.11045104514192 8.398499193417354 11.8212330281951
Rh 11.117587651107739 8.040636577188803 9.960701781793489
Rh 11.195044323010054 12.536913687441759 10.161016761102742
Rh 6.031275641423883 6.6543258380226815 10.363011394166035
Rh 8.40441599191195 8.131902520156514 9.490211548302236
Rh 10.015835823805709 10.352150388403452 9.33296300237849
Rh 8.511781215309128 12.8942105556862 10.078559763335942
Rh 5.700210934061023 9.34624482104659 9.846707565342934
Rh 10.428530543566305 5.608817280801778 9.982081888108517
Rh 7.842534020306483 10.516430542092577 10.648083750070391
Rh 8.462938865078714 6.227858892316538 11.456546247675695
Rh 4.60079766454119 8.085340451716899 12.02786506832937
Rh 11.931971120278542 10.199985524695114 11.184383897673479
Rh 6.3849800075169 6.282721587289266 12.926355558185422
Rh 9.636964456889894 8.98782955250324 11.711860847549204
Rh 7.389938464248935 12.46917038424237 12.341339686241222
Rh 12.89828737030786 6.409599280641936 10.6726903034819
Rh 9.83306550509253 11.545610045778743 12.067297238735666
Rh 5.690879093796282 10.478491511516662 12.343381541447974
Rh 10.818766082276255 6.835093922876461 12.264604298512758
Rh 6.070267772498659 8.638405111761658 14.15230466250627
Rh 8.648308900272552 7.624753806885649 13.738773403186439
Rh 10.544345603573127 9.65110669294884 13.854336608027793
Rh 8.060490874980557 10.210763561407262 13.500261935905115
