52
Energy = -310.85283789 eV
Rh 12.789852770608126 11.18404807086469 16.035743020247764
Rh 12.222354248631932 11.772895365943393 7.378408811052684
Rh 7.213854963275141 11.015149352092445 13.939311265246529
Rh 7.077983534293683 14.30112018415043 10.527091589395567
Rh 15.627088977426274 11.569281864708016 12.613371764372577
Rh 9.11523992795654 9.231229181134465 12.956146242174247
Rh 10.421897245631978 9.795993658460306 7.491588230625661
Rh 6.332948635959171 9.312932136416848 9.355895241717214
Rh 6.366429551046127 11.944415832001043 9.657005138696414
Rh 12.901494306993895 7.251906734734107 12.454015729403835
Rh 10.94768414876618 11.664607182891107 11.501609992861281
Rh 12.852400311940313 13.28770301806474 11.534555355347894
Rh 12.589017403610617 14.828046669484053 13.499521752543485
Rh 8.279304605903173 8.185608650340926 8.082845500732917
Rh 16.151060349677277 12.811979378635604 10.482799516389473
Rh 10.305612052635844 14.202176891751368 7.355998024805364
Rh 13.974166556976567 12.1931738005129 9.413219815455426
Rh 11.262873923995855 13.075734342128634 14.795843706883328
Rh 9.528833341315751 11.955008711087633 6.467616108304649
Rh 10.868150268718578 7.686339192117585 13.963102789698757
Rh 14.774163059682492 9.038077991342659 12.685877959980006
Rh 11.821559260402479 15.549314786375662 10.94845607945624
Rh 10.368131513237968 14.03691495644589 12.416717961290413
Rh 12.093010258459085 13.878329941344404 9.013382988017936
Rh 14.311633694038452 14.676005830037798 9.99234501231279
Rh 8.049092173737492 13.319278951968927 8.24869356468253
Rh 10.371697787116446 9.85067067152979 15.165012363900443
Rh 8.039658933728596 10.679036165250471 8.168583258125143
Rh 15.02627946419093 14.042015144323468 12.430941727617189
Rh 15.008997359644974 10.513575960683374 14.857731696814957
Rh 10.166318483112113 12.094166255433995 8.981703448152812
Rh 8.003026188224975 13.757534427449293 13.185477161112736
Rh 9.657538913450674 14.522486656977533 9.946775666569255
Rh 10.272987336902855 6.810854355923949 11.657478784141537
Rh 11.978923569124493 10.282445909022172 9.495935713037317
Rh 7.097533698782039 10.13036957111838 11.595223897651806
Rh 10.390828863733907 7.821621200773007 9.290934718120674
Rh 13.047994564842814 8.886499991811624 14.550758373148273
Rh 13.711450503532095 8.445890675570272 10.302996858421999
Rh 11.411557872497898 9.121196736712545 11.785000057914546
Rh 9.388706332764299 9.975000701457189 10.30715599949064
Rh 13.482608216313672 10.795605345964553 11.583252143588858
Rh 8.506584139023518 12.327638441785076 11.056420221331148
Rh 15.604521118028755 10.206070845004373 10.295725552045678
Rh 12.280981689933464 6.3949319484197185 10.025410769635183
Rh 14.161497286629467 10.003513303910207 8.11350017362942
Rh 8.135275439944404 7.901143941556073 10.69434939226291
Rh 9.49159973089465 11.760311593862 13.636536666497229
Rh 6.0910149635480275 12.445498356248134 12.139781593388495
Rh 13.809476765390446 12.662000965620248 14.181299425711481
Rh 12.038114549688704 10.938045848461464 13.685195149856023
Rh 12.510345958337881 8.136574425499528 7.997727526512633
