5
Energy = -21.75998181 eV
Rh 7.5762021906327135 9.249799977810127 7.288010274743804
Rh 9.360622792747469 7.740527425958624 7.819505233135722
Rh 6.83208185742239 8.878722392685477 9.513804663736023
Rh 8.3135245212304 6.251631185693967 6.293429850835098
Rh 6.973583199356689 6.935333579241592 8.141264538939257
