55
Energy = -333.78389167 eV
Rh 13.257902587521041 13.58503659169992 13.146466075494173
Rh 9.026748095957586 9.61515341819943 12.228490503533232
Rh 13.1609044359902 9.599627150139058 15.487609680132346
Rh 8.898849016912243 13.562281929871949 14.454595429552471
Rh 13.37671293282175 12.249397617356786 10.88048737860883
Rh 13.166525232088327 12.279867947659008 15.454041772295438
Rh 13.202852734930941 16.194672779445632 13.139307655876594
Rh 13.356106003535192 14.913019328731805 10.812025654861175
Rh 15.258092609324278 16.208342262339706 14.714374266654017
Rh 13.27990686345705 10.941498409498957 13.164965310398168
Rh 13.401951346558791 9.584680197749622 10.846666686793238
Rh 10.91794033509895 13.58051410018689 16.12055549164563
Rh 8.920950374750012 10.899674319597006 14.468198968374825
Rh 15.538661052292984 13.595668679032496 10.261357235011145
Rh 8.787409037878861 12.24375144860182 16.620204222420522
Rh 13.268326553070416 8.331816487595933 13.193562859928424
Rh 15.56002883982063 10.92929908295816 10.279318271831952
Rh 15.410104389294673 10.950795108555939 14.802225993030778
Rh 11.073975921737878 12.248165968053586 13.818122394776628
Rh 9.048378870318082 13.561482880161519 9.925845304946154
Rh 15.319284467310826 8.378196663836425 14.777605089997873
Rh 11.045332195123404 14.913931706151281 13.869095645887233
Rh 9.072834452010223 10.858057682238773 9.938147281140461
Rh 13.119123092531328 14.960107956259247 15.446839837075903
Rh 11.090310603049723 9.582492825084447 13.89986625888179
Rh 11.300180182207294 12.225139139315313 9.242064799571102
Rh 15.388009610295112 13.637749792341584 14.781497471031228
Rh 15.512474557713821 12.276730093774379 12.573569406942102
Rh 15.669241469634816 12.249937926423295 8.05240031848078
Rh 9.236374451672544 12.20359132691746 7.675092492720872
Rh 15.432984539200152 14.879381372853672 12.487029834606933
Rh 11.290663412832501 14.927070463803314 9.247281736433852
Rh 9.281295939536228 14.760645386741727 7.660435276653824
Rh 15.475177394029416 9.67308767954531 12.525791082766045
Rh 9.136650265373016 16.134771916859396 9.954683808789829
Rh 9.327341852027175 9.647830911757971 7.682984926235616
Rh 11.172440694971463 13.547617609943364 11.532074585703889
Rh 11.338093451399475 9.524268484056849 9.27631009068458
Rh 11.42901865763437 13.537762971136251 7.013711159094888
Rh 11.18103062937434 16.160437143469938 11.563209881429843
Rh 9.205182115042353 8.287507282286764 9.98946320378877
Rh 11.451983526890873 10.89721016793539 7.027333422441527
Rh 11.195576781425055 10.922436071842021 11.547053909996182
Rh 13.538070621641264 13.593693336205463 8.584351010758258
Rh 13.538530120022587 12.229520594185338 6.410700257322659
Rh 11.247938101642088 8.310911553014117 11.606798656979329
Rh 13.559907018992842 10.881547400993055 8.600469693256816
Rh 15.192314125633072 12.311509118506077 17.06495477363498
Rh 8.9444764621473 12.21883798685344 12.144634740082017
Rh 10.939671138723277 10.944140637349903 16.134980262267018
Rh 15.130255005365333 14.881056737576799 17.019837906768476
Rh 8.979761543309326 14.823285566616374 12.203913334203053
Rh 12.974920382642075 13.593609172188938 17.67741517383966
Rh 15.1689317109015 9.741224186980427 17.06242056379974
Rh 12.992848479851643 11.00051171303754 17.698117236085878
