52
Energy = -313.03236908 eV
Rh 8.74531249788034 9.339550890411221 4.917364330169031
Rh 10.799268451488933 10.8893198431415 5.664655874012128
Rh 7.24744073166899 12.492662681811169 6.124952754825863
Rh 6.392417608372369 9.813699588082965 6.2694593037140365
Rh 8.043783910968898 7.593185873120915 6.531772389127404
Rh 5.571419213718006 7.432262739916853 7.2866943317624955
Rh 10.52377573730803 8.515760943180995 6.747025442220291
Rh 9.717685380511355 12.899817512051179 6.916020449481288
Rh 12.221257987017998 10.352466475176616 7.629793050643033
Rh 5.907192031996962 11.744231233081063 8.113314013037206
Rh 12.29849441626859 6.62288296444694 7.260467827326357
Rh 8.692358473914103 10.698862691782319 7.008436695651188
Rh 12.131246255384758 12.780263033062552 7.653854660378858
Rh 4.625126481867884 9.58335526488531 8.198095760693375
Rh 14.10992026608494 8.756067591714654 7.850970592844624
Rh 7.29435294775232 6.215339884806672 8.63658960828967
Rh 11.97672487166619 8.185530194084919 9.172103133734916
Rh 13.959497087743237 6.546925954613125 9.34219971662853
Rh 7.319952188638975 8.94668738484804 8.517979063167278
Rh 7.718598171218126 13.629745753644809 8.483657728616262
Rh 9.81918555460089 6.067335574367062 7.431491300174774
Rh 10.216440872926645 12.952464993587505 9.357378919244049
Rh 14.282786447850517 11.225985189765648 8.932082881816772
Rh 9.995897169823095 9.867051920415706 9.06568216620312
Rh 11.538303309576515 5.653895887525272 9.624973125128854
Rh 5.583736303386018 7.749811023093696 10.009142885561017
Rh 9.463879985133008 7.372076414871588 9.491483509607669
Rh 9.091781053707534 4.940289193700365 9.938682546952611
Rh 14.231824985917205 8.937280190945698 10.436206977605943
Rh 8.404728552866148 13.46062589820546 11.14506585125217
Rh 8.00819696598372 11.414799222617775 9.461174830391274
Rh 12.696883922674624 12.985382494617426 10.151340311696298
Rh 12.189071859188926 10.562237277124773 10.283204707862692
Rh 6.382715881808484 8.62960583373909 12.495140008731388
Rh 6.015481236747488 12.835359035959574 10.4619133721369
Rh 12.733495930748534 7.074351165599887 11.553786471055222
Rh 14.280352534886294 11.31155979934552 11.54515401428378
Rh 8.192821068575055 9.226292700787175 10.9257538299065
Rh 7.646258002329095 6.70208259863858 11.272447882556387
Rh 10.699411200633621 8.710597492631596 11.376483537955638
Rh 10.208693598430719 6.207639462717062 11.881338126232357
Rh 10.837600735880963 14.05388996344648 11.594666236106239
Rh 9.85997607911809 11.219974386613574 11.309501831043876
Rh 5.782660889461468 10.255572450824802 10.367370880704092
Rh 7.284069697985065 11.359518454971122 12.175939333850854
Rh 12.910618338128087 9.483845054991239 12.678758694748359
Rh 11.998826744377299 11.995304871842034 12.564255936557824
Rh 8.814675367712494 8.10355925430094 13.178536599618367
Rh 11.374824662792214 7.646747230676828 13.675309441080051
Rh 8.027816853627153 10.296102265263833 14.199239528940895
Rh 10.475994812941904 10.111340030041372 13.597896604737329
Rh 9.610350532487365 12.503990032685111 13.448376793709848
