5
Energy = -22.29716041 eV
Rh 9.251740677390861 10.509120710770775 9.129664214726667
Rh 7.755369668414794 8.501109992880696 9.034380945069245
Rh 10.24442665585265 8.210269343378007 9.073351964121365
Rh 9.043049647935277 9.004640113197693 11.079150216783662
Rh 9.121585965348265 9.142377884343855 7.07881603275523
