50
Energy = -297.99243063 eV
Rh 9.772557741601542 10.12935135473049 6.077451872392579
Rh 10.791385044802183 7.75316361032611 6.626242790290681
Rh 12.408961787054963 9.816575897484936 6.504803028201612
Rh 11.160379853808672 11.92533435573357 7.32554694950649
Rh 13.762610529831742 12.290867664459942 7.646788993385286
Rh 6.528829171145668 9.456424468079568 8.08882389750442
Rh 8.51323847501988 8.119452368350412 7.69476192558206
Rh 9.518049955171477 13.851672865132148 7.4276032732008765
Rh 10.473891711861025 9.577043835227972 8.434624642357429
Rh 8.619220368528401 11.406930263301835 8.133976354146485
Rh 14.77235255353609 9.714932392834688 7.574294969793022
Rh 12.842971767455891 7.951401410286708 8.27905454550881
Rh 12.023834708031126 14.186421014760356 8.37093904399559
Rh 7.7402026061540425 13.62539528570027 9.281691618538668
Rh 6.037607045174716 8.8239794278839 10.490075846591596
Rh 12.7703864482255 10.429698297766663 9.001973614821125
Rh 15.289583975324245 11.224484920158762 9.640810199443875
Rh 8.481663639580102 9.364878485903628 10.032279274941562
Rh 10.397377283743472 7.148800726514325 9.19974424705088
Rh 9.727229954729284 15.302232417367426 9.552626919485348
Rh 6.3597196054072045 11.473702087071587 9.46223553407286
Rh 7.851183543696499 6.905337058896105 10.244383828247717
Rh 10.406866522014994 12.808016455512092 9.662823788508303
Rh 12.14545176699293 8.226936880413358 10.737938502493087
Rh 14.639364125858592 8.709369603615395 10.018695913029697
Rh 13.443233681105282 10.536563344706588 11.403151055844933
Rh 7.475315675023766 8.036907197984418 12.649441974813966
Rh 8.449105706963003 11.726414505007321 10.903059268088791
Rh 4.5936548609112045 10.92794146192233 11.082061469613489
Rh 13.279863264443385 12.795535412505641 10.167178408231647
Rh 15.949237147568534 9.937066699905552 11.898570761889612
Rh 11.622133182412979 14.366071434935943 11.215529618503838
Rh 10.871964474941977 10.575649398010937 10.756078889061337
Rh 6.301022074501744 12.980373738251926 11.547845213094835
Rh 8.619539650901505 14.21726115313767 11.659811092914888
Rh 15.154799975643689 12.38779997906016 12.021129972962884
Rh 6.520200201441773 10.445765723039745 12.492403559831166
Rh 10.357750976542809 12.584875204754377 12.521739150635788
Rh 9.808363188300078 7.539701119388567 11.673650881806678
Rh 9.168654609198356 9.917830721636848 12.542986958600155
Rh 11.74875112669552 9.87375810856071 13.171806314548641
Rh 14.240720645601666 10.554354354902035 13.891720586405617
Rh 14.025953852266449 8.323195206476447 12.616750738313915
Rh 9.973903761797152 8.443882435484666 14.433049707745807
Rh 8.038073501423836 12.29111291880916 13.481251324120416
Rh 12.739908849119885 12.446057644913095 12.876154747624703
Rh 11.803577220629535 7.183922146083312 13.085997471504918
Rh 7.749304711050293 9.884232837582225 14.636393781148694
Rh 10.080436660538837 11.105616928344602 14.646645988853264
Rh 12.813664889648544 8.55976125050545 14.979453564173012
