5
Energy = -21.64206176 eV
Rh 7.762582367357793 6.554235288368211 6.6001987179413995
Rh 9.198753643702524 7.4299094561977626 8.204591954199504
Rh 6.195769556340594 8.240238407470313 7.039848051163532
Rh 9.632756113865383 9.052460994169786 9.923073788684272
Rh 7.585352505007341 9.161309298309035 8.660297076514173
