54
Energy = -319.55042325 eV
Rh 13.917212738514825 9.545905558553965 16.134556808022925
Rh 11.59071115264322 13.15682644469446 8.61602123211616
Rh 8.798572361822542 16.154256865537896 14.155501437271424
Rh 15.57884832137461 14.483261619520981 11.752840022331052
Rh 13.18574444928523 15.828492369000331 12.030922477008769
Rh 9.559611263551208 11.774180943333475 7.930751135176727
Rh 15.89069546552302 12.88887505212258 9.721729686240062
Rh 11.873426782897408 7.903061511866199 14.929723752697493
Rh 13.521708500729645 9.511861259775287 11.279016780002712
Rh 14.276057565825276 12.036395640916986 11.7783490055437
Rh 12.014454273711769 11.274137126993015 6.97245376842592
Rh 16.303983344867504 8.048050410324484 13.415124058828704
Rh 14.638925976702891 7.286458698392693 11.819661956747577
Rh 7.581480754594275 13.365938587664026 12.04603882951256
Rh 12.160500720917934 12.769490974386633 14.917336049456798
Rh 12.020889990946035 15.23561307169233 14.245766944441597
Rh 14.123149021060977 13.889174261488899 13.74485601673398
Rh 12.089448217868952 17.720068454190525 13.763760152404181
Rh 14.305590066175268 11.423301699541733 14.50522933853577
Rh 8.056967604395897 9.853755214371814 8.130053112530236
Rh 11.388769498870367 8.386242651389466 10.178473071724348
Rh 9.706598560273 14.151036283503124 13.102237591592043
Rh 10.07612485798527 14.196397861562621 15.551599986663375
Rh 11.245064939053865 15.002302776437421 10.396105268436102
Rh 10.628142785857262 16.88369483204343 15.575603270431555
Rh 10.263624664317035 9.295218812488896 12.282849872780632
Rh 13.603533620396965 14.02213418391259 10.028680397215357
Rh 13.912998413884498 11.919269430509335 8.574357373313624
Rh 12.859602275740613 6.404431958238205 10.285617568585401
Rh 7.376569117012099 9.391697856656004 14.074378716726804
Rh 10.45197206350115 9.343859770619547 7.704522293348722
Rh 11.662485846445852 10.350996652566838 15.505219584345639
Rh 9.691242268762377 10.205130399363636 9.957786837832531
Rh 12.13197716508689 10.865780853169355 13.00711504060428
Rh 9.694117881956798 9.168216799792736 14.60664734411407
Rh 14.55840264448577 8.1193824168625 9.373739213876076
Rh 8.712638565832217 15.420541297901718 10.969799349553123
Rh 10.543468633070027 16.514286654191395 12.336459081448512
Rh 13.964717601602224 8.90005453832439 13.805268199084157
Rh 16.280409618464528 12.594351389639085 13.298541987657947
Rh 12.068768494469795 11.490554027863432 10.399593532804033
Rh 7.9453298795973435 10.409684180255665 11.89711129411377
Rh 15.515233296060225 10.406259791906217 10.03873234470697
Rh 16.842716747499406 15.119400361922413 9.69970593410028
Rh 9.289754810553696 13.344649395641913 9.786859254848128
Rh 12.820689187220063 9.603706965087163 8.556024382312449
Rh 9.86138412538427 11.78826124489902 14.337960193839615
Rh 12.007383458849445 13.460064396697264 12.199902539283714
Rh 12.122954735170639 7.563648295762313 12.482415033905893
Rh 7.496591271785319 11.827433910814257 13.929958387656532
Rh 15.982595455814636 10.252609154853728 12.56989506473795
Rh 6.944814676368296 15.685223210578203 12.695435128822005
Rh 9.945439093644618 12.007847045078458 11.748025414461365
Rh 14.685187208572822 16.212617612887946 10.067309411892868
