50
Energy = -299.33142832 eV
Rh 10.84249949389768 6.353039514440217 10.058305172022518
Rh 8.26155745622424 7.234474804158269 9.446919043448103
Rh 12.91037613201978 7.632919747785641 9.170167100822741
Rh 12.53215581627963 9.949948791975968 8.18549233052749
Rh 8.244894633565558 9.104152118398346 7.687468016662296
Rh 10.444333174981924 7.070535254461257 12.555842912770974
Rh 7.975922886963256 7.998452626558504 12.071910214585165
Rh 9.731707086919558 13.06601234232338 6.648505017044035
Rh 10.573887719080098 11.07457914658287 9.553219260920097
Rh 12.01351635880607 12.445544138691146 7.587367145197247
Rh 9.964207459121102 13.698999367518253 9.117955364985981
Rh 16.13632620161876 13.600969893668108 12.065178856531098
Rh 12.835355828532867 7.125445015210796 11.63960547015078
Rh 7.844860263288139 9.81384032707208 10.093281160458695
Rh 14.402329763550659 9.170623015418288 12.375954374712784
Rh 14.650787062838715 9.674029199879193 9.626934636764219
Rh 12.011986916976799 8.87235182116965 13.405397141946906
Rh 9.932933149850054 8.622185996090776 10.644587880785725
Rh 7.831865425361919 10.509701498385443 12.672965829429424
Rh 12.313809915173238 9.49310303999302 10.84088459028415
Rh 10.567190654736295 8.294116437473 8.272714239234439
Rh 13.759785371387382 10.257499368418 14.746429307073672
Rh 11.24157123810448 10.327889473466342 15.372308106139934
Rh 14.469376596475763 11.648780821856883 7.887253641536141
Rh 8.768845854251886 11.235420753664608 15.05863226714308
Rh 9.460535403917126 9.004787953644174 13.950211225853243
Rh 10.355053842677732 12.237561930077664 16.880667349060186
Rh 13.059423454958186 11.835600186227849 10.034267245195993
Rh 12.762334946620996 11.328812365041244 12.70149652916378
Rh 12.750905336860306 12.420861002983079 15.741584407136902
Rh 8.416779783347666 11.63425715572072 8.284287069386364
Rh 10.307461743000745 10.59422374189486 12.211002721619671
Rh 14.674861332342847 12.578519589804342 13.923736152144668
Rh 10.778858518117628 12.458591817949872 14.071523048878625
Rh 15.182928455518566 11.397146861550906 11.529839232080889
Rh 10.320118194098812 10.514807904432441 6.966475378204241
Rh 11.117743345299964 13.000345358376086 11.44940438812145
Rh 8.421887111659732 12.999619857564998 13.166000516547138
Rh 8.746655324029678 13.795776465078337 15.616918523801354
Rh 15.117708814624496 13.371819757533814 9.672853712153437
Rh 8.574571567655275 12.172901477273292 10.798792595248006
Rh 13.675036219512522 13.794980058873199 11.753849964485559
Rh 11.160427889396503 14.530658952024217 16.072357014783634
Rh 12.642359638763056 14.231673145812742 13.973583858839866
Rh 11.382497009345597 14.933869449056466 7.351472120083351
Rh 9.196647157419138 14.720209178917296 11.33994361029864
Rh 10.132523866626748 14.904725836599065 13.720630495031424
Rh 13.910196151175988 14.152546302013238 7.496382762020519
Rh 11.752395895679362 15.478288330784348 11.842445280204151
Rh 12.463020653591279 14.37622467594748 9.57036301667121
