53
Energy = -317.76981043 eV
Rh 12.779788107280394 9.541567942606076 6.54528572612973
Rh 11.676678827652111 13.164968954942935 6.7109425582097
Rh 14.082116014241649 11.894617212595577 6.965406079386793
Rh 10.835429197624745 10.975316220467677 5.827312729493637
Rh 10.410143734006116 9.281655254746918 7.726080530634917
Rh 9.592968285167855 12.033167140696202 7.93115092927055
Rh 14.361337246430818 10.05446193365354 8.644527092843498
Rh 12.605274868063388 8.249886861118812 8.792383341728542
Rh 15.409995382574856 12.205136847419277 9.488211560033763
Rh 12.023642203234562 11.213207963730305 8.347609840291597
Rh 13.255892834857715 13.459885093422708 8.808335487043898
Rh 10.727180284609064 14.353691137436984 8.765419754846233
Rh 8.262098652332456 8.79698323629198 9.03268381441311
Rh 7.533898322209101 11.188464624867807 9.477503939305867
Rh 12.737641658387066 7.670253785244812 11.319554440692084
Rh 10.00586746851689 10.555733514884649 10.040975764872119
Rh 14.856714304039032 7.951174874230734 10.050673219425253
Rh 15.115638456631102 10.130079198486078 11.13256281390313
Rh 8.981452356194165 13.171229980574156 10.248866681866527
Rh 16.28998900114482 12.207504219048271 11.933271264015584
Rh 10.470037483983207 7.979172892061921 10.058158770392916
Rh 12.436867520986096 15.089236310605052 10.592029796473303
Rh 12.59678403174322 10.231877290834271 10.659107556533007
Rh 11.542108819438427 12.612768693905068 10.54824231216968
Rh 14.024051748856838 13.176919300227361 11.315005657996057
Rh 9.873714161960867 15.490335578932756 10.943369741222755
Rh 10.525146561462448 6.807523875064109 12.381245512591002
Rh 13.45667688830413 9.343827820457129 13.054550818085739
Rh 8.350981831193286 7.168889984490748 11.121498436571617
Rh 16.938252961160188 12.345620373080564 14.414234724170571
Rh 8.095251717189873 9.66067063348374 11.598003488806196
Rh 10.852107923639078 9.31046598295404 12.307282328342453
Rh 14.649027945324956 12.920761973029295 13.864562030785825
Rh 11.131018921475924 14.126454193621846 12.733855231998339
Rh 12.398967774146403 11.76919073563379 12.832005726476968
Rh 15.584351351402676 10.462341770712918 13.61650583255914
Rh 8.509392422735058 14.102083156724973 12.707152593574696
Rh 7.225925773767691 12.087639178022204 11.876614140705247
Rh 13.510538644635009 15.012434468142768 13.028196157644244
Rh 9.44646264720849 16.250971582754058 13.501893470769414
Rh 11.479762912198515 9.114902218426492 14.732959371304228
Rh 9.779917633439675 11.781202461892883 12.345895095393487
Rh 11.693904008132964 16.738533343746134 12.37323516714496
Rh 12.451146800844338 13.468167168063163 14.93433652041332
Rh 9.657973845463548 7.301904830868705 14.53455022848079
Rh 7.4688619839326895 7.7822235273218245 13.31801796838053
Rh 6.582560667858854 10.262950457319134 13.579170906465121
Rh 11.70297334744312 15.867770576197097 14.792236447014254
Rh 13.256786335721912 10.9834394517826 15.095098759533009
Rh 9.87141539761509 14.005822242551053 14.955656200091942
Rh 9.015367773864908 9.718289296514987 14.095584627649565
Rh 10.690955106096599 11.553230977871337 14.831253965390546
Rh 8.167229816899612 12.166898158180153 14.361596169277764
