52
Energy = -312.69431818 eV
Rh 9.711408455884424 14.45686196710086 8.34380549279443
Rh 11.537683876833297 13.159951659348485 7.1598711235411505
Rh 13.392958947274122 12.024929462235821 5.925312752684302
Rh 9.264947022593724 11.905764136282716 7.415555133333382
Rh 7.776425101567425 11.288144897083288 9.458547427141108
Rh 11.397476175598813 10.54122283139466 6.800040669343759
Rh 14.022512840393285 13.680450009324867 7.9113212385320875
Rh 6.374380413051141 12.804349256526848 11.121535944175179
Rh 8.554539717230517 13.527124665541502 10.281746303218707
Rh 15.492125916164973 11.486012194041805 7.339817392085454
Rh 9.97157042236269 9.88975707913606 8.869893271031463
Rh 10.78299717202842 12.264498593490037 9.489742634001765
Rh 12.043582341461784 14.535273399149974 9.34097431920725
Rh 13.057869385619684 11.413204167542284 8.546281362528866
Rh 13.8188609575323 9.58424319689177 6.632878944167964
Rh 9.449767194636735 11.045601822145732 11.426981312540173
Rh 8.263941958521244 14.210959735245973 12.660558321730315
Rh 8.402702602133717 8.826852672600836 10.497184616654218
Rh 6.342505754209088 10.17766804877558 11.307566283764132
Rh 15.271844791872406 12.2439877191656 9.707151506183585
Rh 12.363532076296652 8.816882316060946 8.55859593058756
Rh 9.995444425719628 15.61551129277111 10.771575417312334
Rh 14.441418994292142 14.625883833637957 10.329175363250087
Rh 6.545318039511299 7.6660091529338 11.676690923780516
Rh 10.801537573295736 7.831538598321729 10.342865955894126
Rh 12.952303880878869 12.558728341496353 10.946596259340657
Rh 7.841026753699478 9.209587139686239 13.11078582203325
Rh 14.814684956390316 9.628248889330067 9.054785701447763
Rh 11.870219597971674 10.17726782086976 10.723413277820558
Rh 10.627690350674207 13.389452803853095 11.805949433416089
Rh 9.105662338080178 7.013779902529283 12.295838307423615
Rh 7.656745265346584 11.783946068573094 12.957847131118157
Rh 14.605151457360252 15.300174513146867 12.813252540916281
Rh 13.433473517551695 8.101054891994362 10.799534959891368
Rh 10.495967549513754 9.062619215756667 12.79649515051325
Rh 10.502066638198327 15.182449479481802 13.552698354528381
Rh 15.189606774919218 12.906841019191381 12.18806383714642
Rh 8.287708025165774 10.650121931847613 15.105310791593702
Rh 11.782767122015803 6.839976525119869 12.496718029641844
Rh 14.409928167130191 10.457321307668714 11.42581548076744
Rh 12.3616101866624 15.46317293234419 11.715986731358496
Rh 11.675023347824718 11.338523488139996 13.024729986899311
Rh 9.16476235283778 8.091173042424305 14.867672106634878
Rh 13.12765047224094 9.129413679797862 13.160532116367495
Rh 10.266847248098328 5.866638320685516 14.310427346255318
Rh 9.80757307877717 12.705531116326716 14.247891937931838
Rh 10.699290994162395 10.254803241127567 15.172160813813546
Rh 12.774895838216048 13.68999203900816 13.452853686936203
Rh 11.700366028875504 7.833263608628784 14.902395834091658
Rh 14.105107550272114 11.425698398615845 13.904693159777112
Rh 12.19457706922659 12.273660964348538 15.450936618805633
Rh 13.15813576051011 9.802760706150906 15.623837477110744
