53
Energy = -319.10205846 eV
Rh 8.727768689310775 9.268852849981286 4.979261007365784
Rh 9.49894403595391 7.213805882405934 6.3939170056217955
Rh 11.257232368554568 9.132867079495057 5.593340645187146
Rh 7.5229362101612525 11.129245243979573 6.389165941460947
Rh 9.910109947560642 11.546232123817559 5.691961921460453
Rh 8.144641193815254 6.23060792548679 8.449869631128378
Rh 10.545322130510048 5.29580580122519 7.911829660226008
Rh 9.46349892873367 9.604626434661629 7.361003621155996
Rh 4.517117418404962 8.15055341490775 7.2256461555311144
Rh 12.178274039057722 7.1640960224656425 7.076313638709368
Rh 5.354799896438554 10.175972494777328 6.176114553776043
Rh 13.732667245238652 8.989104797424556 6.303771350006875
Rh 12.407629258651797 11.409432495168732 6.221604278753279
Rh 6.1125815013004905 12.490438524094305 8.132442237689757
Rh 8.589205214011963 13.231720262266256 7.341703535163363
Rh 10.958935037305645 13.758188584373745 6.46320964412012
Rh 7.114808055812973 8.29812892526984 6.893086357713288
Rh 10.416483273853604 7.613293973362064 8.852639913678145
Rh 12.19534141790913 9.697678427336758 8.122148844602986
Rh 8.147881368445614 11.264190570520206 8.97541642203735
Rh 10.910989702650744 11.999870716299084 8.244708160037561
Rh 8.058673138881739 8.674607587819771 9.398414075751035
Rh 12.364489651814388 6.099748162755063 9.634230305442603
Rh 5.796538226940669 9.915147503775975 8.666998378249774
Rh 14.01215111404749 8.014901726082655 8.817432160686069
Rh 12.439591052141244 11.200085900316171 10.298269305113488
Rh 7.746234967065694 13.621980180738454 9.900664083093057
Rh 10.208811311002743 9.995816989892306 9.756876312007192
Rh 14.340262418056053 9.707594844530655 11.245059234752743
Rh 10.122110691838344 14.332526125332972 9.05039284107292
Rh 6.0556130416316885 8.927966357078487 11.141232784748258
Rh 12.18752340344614 8.554674842542275 10.584084721615055
Rh 10.097271281725273 12.397053877931063 10.725198861109472
Rh 5.88395525089891 7.301670994746165 9.107420489087415
Rh 14.03158301935858 7.056717552950924 11.378607585067659
Rh 9.396704944890446 14.565516313641567 11.704063109228798
Rh 9.837285476432251 5.597335146132625 10.435642260362531
Rh 6.135070565779629 11.56965611612876 10.619727032760057
Rh 13.089592598605579 11.33740838465444 12.793857733747997
Rh 9.70003075364305 8.049592915904565 11.364490928297709
Rh 8.326674202222797 10.307596526617852 11.454485444545329
Rh 10.867907092340978 10.260083909593792 12.235467286826063
Rh 7.47200308218499 6.673113878677127 11.017895736637568
Rh 11.651375595256779 6.558982233765957 12.224805821756178
Rh 10.461131559099774 12.622547550571202 13.246097870922487
Rh 12.845133619511788 8.738821532755892 13.15874049679454
Rh 7.924392976373822 12.64257971882446 12.361955728106839
Rh 9.195396628562222 6.120828820077333 12.958613468648183
Rh 6.4478346371349655 10.623877247482588 13.107618119156298
Rh 7.7491446874112 8.326172351554774 13.103884192498704
Rh 10.341034154298974 8.273047252023963 13.884300973669125
Rh 11.409861810990806 10.48390349394806 14.669779040274623
Rh 8.913338856227426 10.59962015532988 13.970427836042106
