50
Energy = -300.7835059 eV
Rh 8.985688875953892 9.470322106317642 4.971619872521065
Rh 11.612549918503888 8.658800509786031 4.803863204982375
Rh 13.29808670243431 9.872753386521302 6.654775321163618
Rh 9.873863017033655 7.272606922506325 6.016457556252116
Rh 12.321744060926859 7.492267722266419 6.966006339319961
Rh 6.4071387260423505 10.339727508523252 5.428148441119621
Rh 7.216676812343502 8.106798643515916 6.321386146755377
Rh 8.157688253737655 10.533868533838682 7.176753632967813
Rh 10.541764378269903 5.975965233786451 8.264901691359285
Rh 6.224939102678343 12.205039391195388 7.501093644896431
Rh 10.720315611340647 9.705828662251331 6.875200537580495
Rh 14.72954950804638 11.127898014625663 8.64060299200673
Rh 10.15928877007612 12.199891453468263 7.601416761896184
Rh 13.883184958869876 8.73705512130591 8.901475248180098
Rh 8.092294946287497 5.866950263225953 7.326830821321763
Rh 8.91437471662321 8.095234573883287 8.232225615741358
Rh 5.5834772372449715 11.49752974781323 9.921270328589548
Rh 6.27493175448271 13.917347293612387 9.689242757441502
Rh 5.648015093322033 9.682140114073373 7.754709985291591
Rh 11.365375481917741 8.316112307377336 9.192711566245915
Rh 8.102406227808451 12.287819735751855 9.265638726289156
Rh 6.471128776709663 7.334484894374955 8.779176815168896
Rh 7.328813623509734 9.640302036796125 9.683404069513708
Rh 9.747186846248505 10.310557831000775 9.193943141026164
Rh 12.23085111786039 10.948907977968146 8.722089575255408
Rh 12.972904966620751 6.302388193424756 9.204406385101016
Rh 4.9491008124313245 8.967594637020104 10.177635269052063
Rh 8.478818925313243 6.023462237507303 9.931268784540936
Rh 8.8259550715113 14.300109527332966 10.726238321872124
Rh 10.63093034487132 12.534067908935654 10.197466207099145
Rh 13.194617061281267 12.840338185990358 10.167176281817351
Rh 9.300732570408904 8.368552442271351 10.813902200613338
Rh 6.856153049152396 7.610680855999471 11.382125433551652
Rh 10.921066821360048 6.257070168669005 10.84245208686231
Rh 13.81901488903922 10.447793600870057 10.920117876248936
Rh 7.056153607657384 12.68263530767182 11.761641663097675
Rh 11.300942075353406 10.02428818796699 11.215163841526058
Rh 8.820248727301076 10.845458525089398 11.521819039801704
Rh 12.996970558143143 7.947270930912341 11.270877240349366
Rh 6.361744519839007 10.10984690467069 12.07847868999125
Rh 11.401927064835226 14.415040480160492 11.637906592715698
Rh 8.883104098608445 6.364213155562625 12.495363380351463
Rh 12.163221503636553 12.104301733925846 12.442875881509785
Rh 9.68192749220798 12.922795341867388 12.733371809359694
Rh 8.372175909981994 8.824107930225257 13.247749874272365
Rh 10.857620634321279 8.052558178843833 12.948802415847533
Rh 12.342004674374776 6.075646871075852 12.857436680180259
Rh 12.854367838202116 9.707582700503346 13.244097425327396
Rh 10.375613860247409 10.515995009672567 13.660573468211854
Rh 7.8824159354010055 11.351058528416225 13.827175888185302
