50
Energy = -298.66969879 eV
Rh 14.767293989037682 7.267936493722616 10.13566158558781
Rh 12.946561152687424 5.825664608891762 11.319161819410178
Rh 14.544592027365047 7.754104810473475 12.615359932999436
Rh 15.542060049611733 9.642252936448363 10.99530313869663
Rh 12.442468922962194 6.99931410700117 8.972454037001757
Rh 14.87446673123543 10.237350983934718 13.485880193282501
Rh 13.692548039214534 9.357204293678011 9.086577837508834
Rh 11.339465651430515 6.994419907259482 13.007032420299952
Rh 12.530705713408429 8.321278684425414 11.127196742325443
Rh 10.341280498687471 6.334531883807554 10.685402807966492
Rh 12.630525132563164 9.151290530701583 13.563364719119114
Rh 15.543220756311422 12.161852876712288 11.936797495143972
Rh 14.736602613562292 11.692408544495537 9.548551540137481
Rh 13.319192370523671 10.73417341025646 11.534603062486982
Rh 11.796490668710103 9.191455647765707 7.318137706523573
Rh 8.445138682296369 7.502977467536343 12.844878722213622
Rh 10.253431118019142 8.175645480827614 8.965143798131209
Rh 10.167226194428952 8.976918658824445 14.20837027484469
Rh 10.115400955246336 8.772534881271074 11.559988303994686
Rh 13.429736065108006 12.660131544835991 13.408165958596356
Rh 12.766822047554243 11.454139797696744 7.933604480263546
Rh 11.455160399381302 11.239351169292483 14.22194196553857
Rh 11.3291247837482 10.403872935068488 9.880350912551634
Rh 13.462097842319423 13.485732629309025 10.913529993937164
Rh 8.074920951297045 7.692726669754275 10.212661771759837
Rh 9.287956479837261 10.860085621224405 12.625157921126457
Rh 13.564363157422617 13.796298306861765 8.358493388903552
Rh 11.225475025081922 13.607056073194569 14.788924168040749
Rh 11.315603015957073 12.215195878826641 11.866731986376786
Rh 9.137634153554712 11.770336331335205 14.964764410638116
Rh 10.055201246925574 11.261992646687037 7.713021808737784
Rh 7.642819102398974 9.649845324710737 14.201711020452677
Rh 8.452113147471097 9.146100990879452 7.574467997139752
Rh 11.68267528906305 14.63138689112062 12.496843827932874
Rh 11.37480388555914 13.314394951479242 6.825910907620647
Rh 8.727186035189883 10.257353091134005 9.895420522577455
Rh 7.059766872060358 9.576944665689698 11.777068022569695
Rh 11.324533633860483 13.037904362528929 9.41418838767627
Rh 6.389758714283517 9.52621441758084 9.26128275135792
Rh 12.044050604070272 15.427677212722559 10.032696831260065
Rh 9.304191844421782 13.61922460188047 13.124630083027162
Rh 7.130634206496595 11.979983578541864 12.989402720300944
Rh 9.121183466466647 12.575438815602537 10.665651730556052
Rh 8.78647618372168 13.306079303196864 6.732202131974081
Rh 7.462909784890309 11.512901412775047 7.997578651617991
Rh 10.043905680684647 14.917072300700532 8.29058927481623
Rh 6.617780947512864 11.889997736119678 10.443277416992087
Rh 9.671293234244674 15.026922097663803 10.879836032726486
Rh 7.273782584826798 14.151362124462507 11.560137397486338
Rh 7.8524326973633745 13.889027536780938 9.039474653919154
