52
Energy = -312.20849321 eV
Rh 15.04050310307414 10.582118605384233 9.328520609693133
Rh 13.283725652316507 9.719650871839804 7.529426596130804
Rh 13.742694617313557 8.371459969150752 9.718375982768212
Rh 14.177741490352748 12.02956468229907 7.202688067231141
Rh 11.817053787808726 11.40476451218551 6.124408083101816
Rh 14.917190679933892 12.307739671362446 11.962964650167132
Rh 14.27204660645174 9.901186586377598 11.729303739793501
Rh 12.234178751879204 7.3191415529744255 7.944116391795174
Rh 13.912394057712927 7.399554405281647 12.115612838594847
Rh 13.894093235661503 12.741697405388814 9.635424072912228
Rh 14.141608017824838 11.017808485473514 14.037098053627254
Rh 12.357888513697024 10.659889285273922 9.626839185617893
Rh 10.885851745647583 9.040827141774226 6.688420065062276
Rh 12.051655920997543 6.5556749670994465 10.462239201872999
Rh 12.640523324300009 13.056540133949571 14.326981866486317
Rh 9.325887155902969 10.767104262708475 5.621183365745677
Rh 12.049428583989936 13.256558515080727 7.788994029820909
Rh 9.713439719027955 13.253314315720496 6.766447845520653
Rh 13.148352889536877 14.144640520815837 11.72745133548084
Rh 10.297920376375632 11.178435337048066 8.147414030726411
Rh 12.298532306899506 11.611996218912788 12.162998964189235
Rh 11.805448967039402 8.922621738027477 11.565669236280916
Rh 12.78010684184556 8.904155399495135 13.958142341877839
Rh 12.930160437941593 15.082907497676159 9.301342821580699
Rh 10.54930247197055 8.716113694642274 9.252180504979643
Rh 11.625814047812895 6.76271478815496 13.144313446973932
Rh 11.176018858351942 8.23876609142401 15.759590356662216
Rh 9.894371551895732 6.307439049605501 9.047277712911061
Rh 9.770434956973185 7.252973257530837 11.457907434350025
Rh 10.37987656315891 15.032388179348828 8.795737414910349
Rh 10.453635791129981 10.245389518485608 13.326870872009781
Rh 11.223476682755111 13.089602029583727 10.247891683945173
Rh 10.047037806591147 10.81838403808687 10.76628496032515
Rh 11.313619717592985 15.86095381087358 11.144895520483667
Rh 8.491353011387883 9.385023136912967 7.654076833644041
Rh 7.670442022032367 11.746095475483411 7.353755070005247
Rh 9.51521329321701 7.985281624088234 13.9144559864425
Rh 11.897717773369918 10.76462453738948 15.409736051322747
Rh 10.847298260289786 13.897243403714477 12.745788956577607
Rh 8.765495169054516 13.060874610137443 9.140153772121842
Rh 10.146409166926057 12.486059724925836 14.686719927698954
Rh 8.315346865790321 9.301439420764357 12.003533569396176
Rh 9.286318721331497 10.058752746590928 15.48497452144559
Rh 8.076400305683109 8.137040440113056 9.792225386883016
Rh 8.749767747461354 12.20328363795655 12.426365972418578
Rh 9.070947235100814 14.616281368650847 11.085667121690301
Rh 7.589928953539853 10.732537445715808 9.811316107531493
Rh 7.199769352819077 9.3958006568224 14.182639644051736
Rh 6.970695399103765 13.030326490973364 10.850051188385441
Rh 7.650071683855026 11.848108606354012 14.603748073520046
Rh 8.544433057183625 14.3141576565088 13.701966656869077
Rh 6.502846584469005 10.976219875288852 12.2457369676723
