5
Energy = -20.610169 eV
Rh 8.360590463351569 7.893026716972188 12.079564910296973
Rh 9.835680588141383 10.370794347419713 6.8936483723039155
Rh 8.212922040768717 10.416037480796506 8.607726226165704
Rh 10.502742437551714 8.524288560722926 8.200163701134242
Rh 8.850020918474433 8.559737768042053 9.968688561190415
