55
Energy = -334.70228194 eV
Rh 11.68980790148702 11.763347297908627 14.010692328353395
Rh 12.961392095174116 11.748940631600664 11.707059050341927
Rh 9.104739847844428 9.619627337658605 15.561907238641497
Rh 7.751882494549114 9.61529942884781 13.32399095514695
Rh 11.666049294608072 13.891148412125245 12.468063192181871
Rh 14.319062038623521 9.638890226746812 15.507461500990242
Rh 10.373007279903346 13.962233729122948 14.788281356038624
Rh 14.37021167398951 9.600278603695397 10.918118171768759
Rh 10.396118643848862 11.757789158949047 16.272839744239338
Rh 13.020052700744595 9.622916288691364 13.249795226886505
Rh 14.348640998523225 13.915657473172287 12.511175954344356
Rh 13.02738984436131 11.768412260978058 16.246058731227684
Rh 9.09015273402265 7.464486252684996 12.558549603331214
Rh 15.610877166537897 11.770355387835322 11.68337520528419
Rh 11.622233026302437 13.899950933369565 7.842335459337493
Rh 14.287403219821167 7.485057534663315 12.5025484394697
Rh 8.939721870387832 11.664798094831452 9.453872620451607
Rh 12.945918439506428 11.740607415152393 7.182725863722748
Rh 10.3597825593329 9.612682407434798 13.27811903047104
Rh 10.264449012502006 9.532594951213916 8.683204806443289
Rh 10.302539242075039 11.72781982881633 7.211217801382494
Rh 8.989648390150435 11.789773979442437 14.062208594209741
Rh 11.645162706706328 11.724528772374256 9.43033691403567
Rh 9.012048590760646 13.836240261240983 7.9606237311083055
Rh 11.689235457077325 7.387731068157051 12.568158352851613
Rh 15.575628354318049 13.921626458475728 10.145673474920269
Rh 11.626613177616903 9.648579002569589 6.520370129638779
Rh 14.389571129212582 11.811610845411803 14.00577581495074
Rh 10.308827737804977 13.865093243348673 10.207989810968185
Rh 14.234294226591794 13.8610400856521 7.9051795961742055
Rh 13.003951009789393 13.972484798447702 14.762436989888908
Rh 7.7129486312308275 13.88584312290949 10.227550462645723
Rh 12.985240173115377 16.01754884344156 13.191323024468417
Rh 15.627981800435158 9.646602699434057 13.240998431078111
Rh 13.027649299680377 9.545320773783015 8.65561946243059
Rh 10.344648656811378 16.007570707176477 13.216543989356994
Rh 10.372561433458847 11.7384106254155 11.733887115255277
Rh 11.64900889058437 7.4522575545233884 8.115980352586899
Rh 11.64347893160926 16.10034742156065 10.944979316718703
Rh 8.985247732451617 13.894080670607757 12.568442797694763
Rh 12.979083016351755 13.876569044236275 10.180002698015617
Rh 9.027008392250842 15.993199633351006 10.948542595831912
Rh 11.667252433801021 9.588083296051101 10.982909777536289
Rh 14.350543432553966 11.689135951011487 9.397566340710584
Rh 14.259483963066218 16.01609282856662 10.89711659128777
Rh 12.995195747170587 7.465763703769095 10.275427316531891
Rh 13.034747280629324 7.486769267578393 14.791388607057446
Rh 10.314909650918374 15.990223124126686 8.690255108583482
Rh 8.96498383163532 9.576788232861679 10.974005298892903
Rh 10.38696082881157 7.476844267343819 14.82088622770912
Rh 12.92985197439188 16.00327429359541 8.664611091294516
Rh 7.72455681448274 11.736773350904556 11.765797995749962
Rh 11.713126837337045 9.596682823511243 15.607037111292367
Rh 11.709180764139 13.81354269896065 16.948640603563966
Rh 10.340754118908878 7.453490394659613 10.303159494904992
