54
Energy = -324.63755474 eV
Rh 11.684659148236028 9.647143281246583 15.188488175367631
Rh 9.294667641602375 10.423160291442805 15.428569863975406
Rh 14.748286487608889 6.631645402923652 14.005584891059279
Rh 12.307880246603125 7.28716933489736 14.350494217417175
Rh 14.14106528614981 8.953503816130189 14.960316579061454
Rh 9.793127508540518 8.061626617910745 14.408937655815038
Rh 13.360520960127957 11.33409609742459 14.28430764670674
Rh 10.809734517823294 11.761034118370198 13.944518158798784
Rh 15.029022108569837 13.034656346783947 13.638329749646783
Rh 13.481910697635303 6.946446658492167 11.822686899017855
Rh 7.476066759965233 9.324777834997775 14.14762832470491
Rh 12.714538428681989 9.270343127208891 12.733188106545102
Rh 15.26310104277254 8.640451248516138 12.601697822148891
Rh 10.912380655682824 7.1747645787515975 12.19321059540332
Rh 14.615135017457282 11.033026245630301 12.110190970087961
Rh 8.454128393505878 7.749212877526472 12.268267730132601
Rh 12.446948841150927 13.635764592312846 13.572593702512506
Rh 10.10459279609783 9.732035100458328 12.465230965416856
Rh 9.83204535340884 14.026258483736793 13.347682075386569
Rh 11.911895942496121 6.476881097199936 9.892152219267409
Rh 11.510500073602154 9.00410101536085 10.383728530463145
Rh 9.520817065364653 7.536881057260917 9.861358801870647
Rh 11.935730121484639 11.429590832627031 11.454336324287677
Rh 14.139902638363841 9.14810598208493 10.371145536100606
Rh 13.92101914315257 13.424361785237032 11.407949928040964
Rh 7.487920310639694 10.119116526580896 11.825191535175394
Rh 8.07005826118688 11.972812502725235 13.736505326419648
Rh 7.026787631764469 8.195040632044114 10.24316464203405
Rh 7.344442209213172 14.42655544032137 12.896642520779212
Rh 12.858612919960505 8.086116075971747 8.321519521200743
Rh 14.693195592750172 11.686917349481698 9.651521172356238
Rh 9.393823230491062 12.16167847841728 11.556744090482619
Rh 9.252881383480467 10.20024993457731 9.895289487478117
Rh 14.74465072877224 9.78077388820347 7.903844336031221
Rh 12.514018367913122 10.771606103463633 8.8373683007041
Rh 6.76916951391116 12.45677687784728 11.495375455817046
Rh 11.454490858524414 13.972750064075173 11.257190389050287
Rh 10.606774943812566 9.25347782922547 7.777802357115209
Rh 12.903369953910753 13.441064953937683 9.067908310250541
Rh 6.7935902309690315 10.6868568077649 9.385745960264959
Rh 9.036123447538035 14.758280082068929 10.996849205450903
Rh 10.585193646805848 12.425360232877257 9.277782985278494
Rh 8.086868034377195 8.751505135948081 8.032833117580314
Rh 12.677314619358315 9.733381600529151 6.375589351999534
Rh 6.548823154842151 14.750791640400012 10.341631629814973
Rh 13.72816091380864 12.139201754130253 7.035850905794807
Rh 7.983548247120105 12.937247521438174 9.290232851425513
Rh 8.769877779593735 11.153349130654307 7.569494943459586
Rh 11.139551325983682 11.75079291230435 6.7445855961507
Rh 10.833809363498132 15.059784087326621 9.064794598713007
Rh 8.308753314280755 15.39809534491802 8.628709241918196
Rh 9.436450336853705 13.564555476354528 7.133820361493902
Rh 11.919599668441375 14.197323740380993 6.863147129715717
Rh 10.027608476816704 15.995506522972628 6.854381024112779
