55
Energy = -329.39781903 eV
Rh 11.531792901113826 13.015532740564561 7.997301616312906
Rh 13.98006694567058 12.240770259242636 8.64570616949025
Rh 13.196733152850271 14.687949455721702 8.822787147306624
Rh 12.253704222863943 16.965524448987015 9.37700825179001
Rh 14.76182322414962 16.442547780983126 9.885984347357189
Rh 10.727006473014493 14.763681057481959 9.768993703556891
Rh 11.803418621557764 11.302195431274457 9.739973358877329
Rh 16.471429775447422 11.941547974766765 8.977926720348819
Rh 15.509009922406314 13.9721062609155 9.91870517261951
Rh 15.915279215854833 10.765431138341544 11.050487058996788
Rh 13.689620585748305 9.758208671326154 10.384051793962406
Rh 11.646562354813604 16.416532083482462 11.713348530442712
Rh 9.584692639686711 12.443063401581792 9.702203405741317
Rh 13.428758457119608 14.771495239189882 11.298273251037044
Rh 17.068476844144403 15.634198531638104 10.95456102846038
Rh 15.17275268745137 16.33840694772249 12.476655094688544
Rh 11.478086599840042 13.182211070062213 11.520668592156674
Rh 13.896037231525279 12.23196029387807 11.17665582428571
Rh 17.344789239093444 13.034482019909763 11.428068232008474
Rh 14.49258592977591 9.612180812616247 12.888130931876374
Rh 9.525673264636135 11.50540513204521 12.296256291326499
Rh 8.883300929655473 13.869230606253796 11.615884390689054
Rh 13.522420104622347 18.033459140875625 11.496494501876382
Rh 12.093940196675046 10.614034365961531 12.223966265270741
Rh 15.290390752983292 13.719368357966744 12.733108823194364
Rh 10.451870084807377 14.976875254372748 13.282210870558458
Rh 17.23844397592213 15.13975758871883 13.490114100873946
Rh 11.199742544103456 12.59559009649104 14.019637510801804
Rh 16.358031199178285 9.569713094487822 14.916237650310704
Rh 10.08476510794738 9.276260865269466 13.134036868115976
Rh 16.415309448278155 11.470208051585901 13.344430482198698
Rh 8.763077098640503 12.017646219053601 14.58658045724197
Rh 8.012533201871605 14.317666267016767 13.859416558028661
Rh 11.80039079817879 10.223811221233651 14.77335165873883
Rh 9.772166079213948 14.139857022113294 15.64142575832374
Rh 13.122141137140662 17.22223980094434 13.819893774772
Rh 13.062051922764804 14.575955817960443 13.939856658769283
Rh 11.527388448811863 15.945521652244938 15.495921438590772
Rh 12.062162303219925 9.80185194268656 17.209336547192763
Rh 14.10463957604499 9.936723390034961 15.69004588476729
Rh 9.450053266639685 9.838417868416814 15.477341248752058
Rh 13.860021021895617 11.852588968298594 13.803373475466259
Rh 15.276870690732045 16.25552730282911 15.035755292430357
Rh 15.288290309773492 13.61950106677197 15.265957187523906
Rh 17.639345833569344 12.87180283729073 14.86338980007248
Rh 13.362899248897534 17.54252503167366 16.252557432982908
Rh 12.869355244314018 12.846172692530464 15.948769742048151
Rh 10.57945680466818 11.866237020382144 16.663113609939668
Rh 11.426285396043786 14.202421533855142 17.512314362221993
Rh 17.22594020708426 15.092254975652882 16.155810801176308
Rh 13.69778182479398 15.123181721855538 16.731402839467965
Rh 17.239953132000476 11.165516662519826 16.51795001596647
Rh 12.82029137546934 11.926257973205622 18.226405306039126
Rh 14.98623750653768 11.771757164703851 17.02785147881696
Rh 15.625171230906494 14.145653965159287 17.81332897628819
