51
Energy = -305.15525944 eV
Rh 9.243603102705313 9.727098848815968 5.466887485140634
Rh 11.857041700089153 8.871889963328893 6.552490347240538
Rh 11.460780439586202 11.42781206400108 6.101779268130334
Rh 7.275407148587463 8.118559303042401 6.228974089048296
Rh 13.93281650821904 10.519193269622507 6.69215112853308
Rh 7.305620321415556 10.40394923842577 7.208792551835741
Rh 6.733267910831756 12.86277586853402 7.874199489535519
Rh 9.61110293155271 7.468996211124868 6.941827094988436
Rh 9.876474264885365 10.168422956238672 7.759946455605626
Rh 8.962786382661788 12.33938789583472 6.499528141735406
Rh 11.859171106546405 6.389054955481209 7.824168658113588
Rh 10.945365999114989 14.015719625535377 6.466390333220711
Rh 13.61326786248104 8.278675639004788 8.459048328181764
Rh 8.290536026156515 8.539270891479829 8.966709185188293
Rh 8.403755414747975 11.635317520146101 9.29312904495678
Rh 13.114712254037514 12.895128675363619 7.536954280131303
Rh 14.66956125327888 11.420400034829731 9.086792773328195
Rh 10.982920931861676 8.362266628120754 9.017351973599556
Rh 5.837446547421385 8.556416975492448 8.507031887143844
Rh 5.980766716028326 10.972374210176936 9.452075397800895
Rh 10.704335553185468 12.432639952797029 8.454353309228377
Rh 7.29683707653773 6.3787555868595245 8.133304856443667
Rh 12.387724230826265 10.515755106376082 8.65081517663691
Rh 8.881647570025754 14.22036717412514 8.390102339933105
Rh 9.718566806451605 6.095536391102815 9.251717431954965
Rh 11.543735273528071 14.745298339173493 8.867311135228867
Rh 7.704946040991398 5.004543319079244 10.27877994180592
Rh 10.058996941542688 13.485816969492756 10.686835724178781
Rh 7.319727210676798 7.3092549445376775 11.180686827166273
Rh 10.499758329955723 10.608282023386279 10.523010863088606
Rh 7.7795364334144494 9.883776126330895 11.099127969125481
Rh 5.411880228955378 6.520225966134342 9.897240671132204
Rh 13.7636856155034 7.507508259622445 12.407958931030045
Rh 7.285180702012459 13.387721241590246 10.544388217082295
Rh 5.367785414893371 9.051037882888622 11.029749151930707
Rh 9.650036459687097 5.693732018959534 11.858547471765096
Rh 12.713859410761133 9.06041773962323 10.778295235989873
Rh 13.881055676517057 11.099417391960491 11.50005186367576
Rh 12.56924989252695 12.71061444362246 10.158095667166783
Rh 8.810982416516998 11.914074701013307 12.213162296256181
Rh 11.955773033813609 6.552017247300082 10.595009381936556
Rh 11.524220492530457 11.950638378502937 12.391557884069009
Rh 6.176474226596238 11.55221447065495 12.056256541917756
Rh 7.294346581842446 5.542566986870911 12.936776535357156
Rh 9.773472206220129 8.166246519994187 11.164922050986473
Rh 6.15091030449177 8.017180356252958 13.258326640429027
Rh 12.601874618285352 9.63064173308735 13.229105833219004
Rh 11.335196552542904 7.3311696776052875 13.005219595464297
Rh 7.657475665861933 9.962286998329082 13.613602165584654
Rh 10.118954450778416 9.79000432352099 13.083595025670107
Rh 8.766109927316322 7.568287121604781 13.48660551808765
