51
Energy = -305.1239933 eV
Rh 11.266957347346573 10.638831597939658 18.16046421153379
Rh 10.21662260055805 12.334815591924885 16.596919550842234
Rh 9.025180097569198 14.045144802554704 15.098285816004653
Rh 12.83355373772833 12.353548228222358 16.945714262385053
Rh 7.868743591074191 15.888622118142594 13.863692512251987
Rh 11.684442145248955 14.137458350646641 15.465123269569807
Rh 10.464559511844687 16.00876132708851 14.086006827590724
Rh 14.325320571133776 13.900447293004568 15.428267696690666
Rh 10.241447559663495 9.834636717863221 15.855006830359706
Rh 12.884857189641265 9.814842858275643 16.46532733887619
Rh 13.011385473724266 15.955147886455036 14.290251161283173
Rh 9.223379660301072 11.611409803625563 14.216009147782797
Rh 7.951328638256582 13.433534549198017 12.795777307899465
Rh 11.86359512781444 11.496118168615922 14.741265659181742
Rh 14.45727512800777 11.380892402962225 14.97496791524846
Rh 9.273946673476846 15.593420446535847 11.822206596439626
Rh 10.476353834952562 13.630417204714218 13.01782342518437
Rh 16.336915551219654 12.961659404550973 14.087384099443767
Rh 14.581478042174071 8.77185559198516 14.857305420261213
Rh 13.008296473291296 13.447889004849493 13.274045916746156
Rh 9.662823377485813 9.249249098401817 13.33036551063243
Rh 12.022423913496553 15.658207141848887 11.91913153952004
Rh 11.980550403276913 8.766262635691481 14.2895691444056
Rh 8.748938249175714 11.136464720557505 11.714649574274583
Rh 15.123521981237511 15.016222819605975 13.20615233466864
Rh 11.247043819587091 11.201158930557419 12.282914614394647
Rh 13.00545238157798 16.156228915131088 9.524324971008898
Rh 16.55940869902895 13.858151995696259 11.396150310412686
Rh 11.803189517172457 13.262357250650782 10.779702321195568
Rh 16.20140442615848 10.279053713116955 13.385679952576233
Rh 10.618027114965109 15.44669773888816 9.74128525954329
Rh 9.219438514268539 13.373652467882184 10.49218285953519
Rh 13.59449365147942 7.381963455530689 12.878181917826929
Rh 14.885907177407413 12.17945258635427 12.19648783372585
Rh 13.66195421886463 9.999075318143264 12.815064018685975
Rh 9.51273348440121 8.992020146249184 10.500740086360128
Rh 11.60561826130282 8.67654394277575 11.725655651217696
Rh 14.146607308812905 14.388520546473483 10.930343639844116
Rh 13.111859658837318 11.051839241727968 10.48020668716182
Rh 13.279997642196204 13.799971206434567 8.548527847295777
Rh 10.619512033418017 13.32508194629555 8.280340303629618
Rh 11.720055456468836 15.498287324627668 7.427619930428124
Rh 11.839449792712609 9.137983378191628 9.114230061864944
Rh 15.565697422675601 10.097106727658675 10.889463684499994
Rh 10.451876959003037 11.207639573451791 9.753074689254593
Rh 13.83256528331766 8.317687296523955 10.545165904228567
Rh 15.21127878850376 12.3726748338636 9.593405641260151
Rh 14.538919821383463 12.121508646045104 7.140302032025994
Rh 14.382774973514891 9.941847765391616 8.572342853982502
Rh 12.233654775463568 11.353862190370778 7.92715846452958
Rh 12.287761199325402 13.189921461591315 6.258049425629198
