5
Energy = -22.63941819 eV
Rh 7.6600240843165395 5.211444081955701 6.0707005659824365
Rh 6.154845653988557 5.94690293961549 7.940605684686365
Rh 8.178957679634628 7.651640007875215 5.80207356661646
Rh 5.8704560200507245 6.946147482894047 5.767200988629362
Rh 8.460751437229098 6.638094076583247 7.974054860048477
