54
Energy = -324.85083177 eV
Rh 12.87456748117147 7.569686023405883 8.650238260549516
Rh 11.412716429123298 6.584511060710087 10.61576847736104
Rh 10.047684333627746 6.977597112580281 8.55859645959963
Rh 13.937495393736796 7.22678321364773 11.038359256713125
Rh 10.895181763099437 8.80622255534171 7.012202945490887
Rh 12.32698082763973 6.285421954807357 12.95886694980529
Rh 12.924060347846021 10.119283567412225 7.858567808983349
Rh 14.782274778302389 9.163272105481163 9.420492328319341
Rh 9.746635779110745 6.37839669923534 12.726766624817756
Rh 15.539350784132951 9.127913923455525 12.157641154465923
Rh 16.379757333022724 10.862752133997567 10.454644387385963
Rh 11.181534463365237 9.140574060903779 9.606137498054732
Rh 9.06155173190955 7.937941809920266 10.754140355455373
Rh 13.347471014237879 8.46264337476629 13.623147460629122
Rh 11.151806700760403 8.47800804271105 12.318190026959376
Rh 10.470413745737144 11.15849008703354 7.949382247217281
Rh 8.789376562468007 9.328817092374313 8.62332324519324
Rh 10.75890911498169 8.205066040166237 14.69884980141017
Rh 14.56806320360891 11.767004091522937 8.890552732154502
Rh 12.393345565308506 12.866402912077127 7.761993838044971
Rh 16.48300900301454 11.606802254832644 12.848646071174999
Rh 13.18636467963024 9.539357356423928 11.232587662032453
Rh 12.25771672937795 11.522165861619339 9.994411064050084
Rh 14.237859936418076 11.864660183462576 11.714690358020437
Rh 14.490825843172658 10.612033359080094 14.02288711977236
Rh 9.74408553965238 13.463695516264565 7.395765760156689
Rh 15.937238706397013 13.396256683201738 10.637930434414676
Rh 11.920817948649127 11.000370238513606 12.939720843473255
Rh 8.572308280526732 8.673142477470773 13.162929310395505
Rh 9.705990311453 10.38535516008149 11.48966844605247
Rh 13.504161707598021 13.942942383538412 9.863248660518343
Rh 8.087791966237212 11.826851969070663 8.796189809660085
Rh 13.52479275080696 12.926902728494367 14.06410892227589
Rh 10.006942842302209 12.591867763687492 10.203157002627817
Rh 12.268221136078274 10.281875344721028 15.303681214738797
Rh 7.372342447244837 10.1580023438936 10.651335928754426
Rh 11.165315032797576 14.686176503098915 9.118012677111814
Rh 11.983353255841518 13.330018407175526 11.888637855612066
Rh 9.83713390559076 10.521744812857758 14.572243905886289
Rh 14.277111488279468 14.596132043388081 12.236932764456624
Rh 9.607185697766397 12.562284592249128 12.770212829184072
Rh 11.108124614793772 12.861797080698873 14.792577736010655
Rh 8.493147381508098 14.507430527032353 9.394500939220812
Rh 7.543809543413305 12.691532095443915 11.196888584513028
Rh 7.585925086586415 11.02183275877758 13.231032390299395
Rh 9.878457412082367 14.846941260746403 11.559205700113617
Rh 12.252635594588236 15.871527214849994 11.233019002854075
Rh 10.108956656849951 16.773619605295867 10.05772642586413
Rh 12.062608144132065 15.092573879021176 13.759559559388222
Rh 8.549363185027318 12.59651370317817 15.1619046064597
Rh 6.981131335673212 13.611734641928626 13.479280111148682
Rh 9.363799474131971 14.813312899165801 14.034992260348975
Rh 7.491299443505866 15.27411827475846 11.708142970723394
Rh 10.439397980153924 16.871992185493458 12.832365117616531
