51
Energy = -305.42323368 eV
Rh 15.48017095302032 9.100879383056295 9.43811635937861
Rh 13.850816258811236 7.1239647479042985 10.07270993406873
Rh 14.563855777209852 11.402099424347755 8.823491730651718
Rh 15.966674811760482 10.954248976756322 11.081738975971355
Rh 11.55824534720271 7.130939937702577 9.120958400944566
Rh 15.525559859540033 13.374900062422064 10.132037251141613
Rh 13.191724041667205 6.811550602621811 12.478638960114838
Rh 13.018839561498147 9.301219664104323 8.857624296259424
Rh 14.358934135181544 9.072734707371279 11.746708058863812
Rh 9.405399756605144 7.071554396971744 7.855559106976431
Rh 12.578224720540641 11.073028713915066 7.1303686770614245
Rh 12.952580952485206 11.208810330745917 10.680090609607253
Rh 10.736335723654154 6.390468675357846 11.840490952978058
Rh 15.153925804389557 10.593004353026341 13.672989440281048
Rh 10.908341110676071 9.115802868848029 7.43748563388985
Rh 13.817373511055703 13.715443110180654 8.177792966520109
Rh 13.832656253004506 8.509855638418049 14.334584568531374
Rh 14.497802197316956 12.61221552143684 12.308538667765031
Rh 13.055291371801815 13.904370702616546 10.578044948094648
Rh 11.76098689658215 8.73011898455367 11.178992550200439
Rh 11.293737568973569 8.129734838894452 13.678417341707693
Rh 10.576275459134827 10.412820709885542 9.631558110489394
Rh 12.549271184887516 10.373133432337648 13.179842694405325
Rh 8.47998152423932 9.409962821598599 8.390286257212093
Rh 9.74469146157274 11.470904576896771 7.3872324540232475
Rh 11.608698742922249 12.665026988661994 8.718104301978915
Rh 11.880665129955089 9.7515699925783 15.606067421917917
Rh 9.411057290962049 7.824859086108647 10.239688862817237
Rh 13.399287256246392 12.375575310869102 14.613144787607087
Rh 11.687340598539993 12.690293544626114 12.527995714818251
Rh 13.170261368787754 14.642627736416335 13.202233919321113
Rh 11.39220000086461 15.17397416628273 9.053005122888964
Rh 9.269095876999067 13.861297939354229 8.531033581202607
Rh 8.046209815876399 11.703846819945278 9.382570693182638
Rh 7.9888814608549685 9.761749782358708 11.044486553891641
Rh 8.928672688039615 8.069421090787632 12.716421696077935
Rh 11.854866016354725 14.252514442889533 15.386251990498963
Rh 10.12728253929023 10.57272882516713 12.178368306414237
Rh 11.015965242005139 15.084525151622081 11.560158883690386
Rh 9.926442959198074 12.740648359867755 10.694669161049644
Rh 9.478158219924227 9.802088378889126 14.603340872999848
Rh 10.82651692687689 11.94884511775012 14.82982320153427
Rh 11.273695731522956 16.260024319565936 13.841971041140688
Rh 9.8720074686284 14.106591397925511 13.802451624230454
Rh 8.977230373922945 15.771997810790019 10.170778689727712
Rh 7.019829216335582 13.975453764302266 9.698188727705414
Rh 6.767147879783942 11.914410042049294 11.56556233612004
Rh 7.164037130924454 9.815223926611868 13.392468913629045
Rh 8.957382159846855 16.277744374101452 12.679126455074758
Rh 8.481790395618015 11.969644074040106 13.47727914952572
Rh 8.136847004418527 13.966712826928427 11.935083839214698
