55
Energy = -329.99105208 eV
Rh 17.458169143728796 15.050567861391636 10.992678781034483
Rh 15.358344630886062 14.835987469971366 9.493179664334145
Rh 13.196661859089401 16.143427273844058 10.142913968294092
Rh 15.211756460633662 12.179726441791223 9.51579826568583
Rh 17.749548971720383 12.484699227069653 11.13471943519131
Rh 14.834608186777643 9.559257038695193 9.839590794414223
Rh 13.184645207558582 13.68601668545419 10.488464441510278
Rh 12.963556470009364 11.15438921424514 10.264067665171574
Rh 11.17057745724944 15.0575783351149 11.406713169120431
Rh 16.734044510774165 14.946390476986592 13.41550201289298
Rh 10.888855245193005 12.507385424178796 10.383102087768036
Rh 8.789872207218353 11.805596285070752 11.608008282218195
Rh 15.166791007407209 16.273787144127226 11.706629833457368
Rh 17.596154737135596 11.397846627159918 13.486665523598063
Rh 8.981857605314914 14.168110428803544 10.51100593656857
Rh 15.494711970343637 13.440080953604516 11.650458663744597
Rh 15.935584981521218 10.793699159379512 11.630604624665215
Rh 17.030009422442102 16.28603287487376 15.615653332201358
Rh 12.680980184784028 16.8510269056083 12.535712448427704
Rh 13.671947505278315 11.741187299621942 12.698214614798307
Rh 16.827324285543014 17.55421415972516 13.314510277658346
Rh 11.068537591799688 10.445820692636707 11.898212263498477
Rh 11.428516661537445 12.924205561188327 12.863792123159449
Rh 9.134473768371368 13.91164902162387 13.010664395299433
Rh 15.84368067948698 9.33552481197463 13.599891137539643
Rh 13.55831162494194 9.3186608514458 12.07611433643283
Rh 13.589030767251415 14.41849929191987 13.096338940453023
Rh 18.7970786114182 13.666907584684118 13.063275420183825
Rh 9.706441694858393 11.562211692338515 14.026584918804666
Rh 14.724979399112353 16.46475698167948 14.248277451375287
Rh 13.61648136411456 8.357344247088381 14.446808525331791
Rh 11.048515753451344 15.331328189312195 14.015568068258748
Rh 14.474323688605194 10.607672719823539 15.229327079149167
Rh 11.75375084155565 17.724594591813002 14.709351576896696
Rh 12.934361827286098 12.861785925185593 15.061990052875009
Rh 11.9732025722549 10.297895667501296 14.212542419549802
Rh 17.686393781511104 13.556405279732965 15.372168240412616
Rh 15.586410773431504 12.623599208173362 14.089404907295519
Rh 15.06004560364093 14.356667357036489 15.780406556660427
Rh 14.463309757290364 18.649806102418335 13.002200921929026
Rh 12.883664088888635 15.632320076542467 15.745712662172844
Rh 9.738311020115937 13.760874629576948 15.506954822915374
Rh 13.261042083423488 19.713079791302132 14.88710954588095
Rh 10.538294051772231 16.062504437515866 16.462567961590178
Rh 16.853687310910907 14.605436441889212 17.59436291042369
Rh 10.967988272376045 11.638120977627764 16.230471257999266
Rh 15.89916654812925 12.186572476979894 16.753078920928154
Rh 12.496218837341013 9.528896371373387 16.532152779726783
Rh 13.397533028664244 11.748062135879772 17.33042287845549
Rh 13.145778405364997 18.042853715043 16.79026375529162
Rh 15.048781475261338 16.444314340661702 17.26173377741934
Rh 11.821537912410943 13.823997437515969 17.20237830487405
Rh 15.4317121846886 18.436099335340913 15.538020026915916
Rh 12.680261510844586 15.982354852473401 18.278128640680514
Rh 14.348477118997346 13.948472577700045 18.135831258583
