55
Energy = -333.81146581 eV
Rh 13.27807885173654 13.57136485881975 13.12928443579325
Rh 9.006056836435201 9.634231949333843 12.26826257102828
Rh 13.191185708382378 9.572026617123663 15.44552480191131
Rh 8.935324269120157 13.571298625507254 14.506021214251472
Rh 13.3536434861306 12.245316171342727 10.85403189526357
Rh 13.208362969564293 12.2510470265215 15.42800714737633
Rh 13.239499621002519 16.180111196727704 13.137760883440382
Rh 13.347523477783591 14.912260468583385 10.801605438325087
Rh 15.314680918446184 16.168527836671892 14.686007853027363
Rh 13.28393240724884 10.925462177265763 13.13305129664194
Rh 13.360171017737645 9.577989903087934 10.80917630673986
Rh 10.978561398472078 13.568045847460745 16.135959154074808
Rh 8.941064378737723 10.90914493931607 14.509809851172923
Rh 15.511490206709064 13.583599238051361 10.207873330028148
Rh 8.851772706782018 12.24335611376869 16.672824863657038
Rh 13.256821591742561 8.315830990508639 13.148842358118072
Rh 15.517902956005692 10.914944098259356 10.211602255108756
Rh 15.436910577911616 10.911383692844579 14.738382762897649
Rh 11.095248314754514 12.244358286849232 13.826801588591007
Rh 9.01673453982423 13.587970791713232 9.978365244971098
Rh 15.332259206672337 8.341035954765177 14.69695647494353
Rh 11.083431681922598 14.912512144012517 13.88890093085053
Rh 9.02326785169158 10.879976311277064 9.982170882280242
Rh 13.17909334379434 14.930100896704532 15.43811386948303
Rh 11.0954072409934 9.576281626076804 13.896608058827967
Rh 11.24782906833567 12.238209716736336 9.25248779261984
Rh 15.430847733538583 13.599274987847325 14.734512452242035
Rh 15.515126881821468 12.252286622312766 12.514016049320183
Rh 15.590902036822749 12.246384719467553 7.9859552740713635
Rh 9.153855957702612 12.231812820088537 7.723043372915756
Rh 15.451818738647043 14.854869788219823 12.444828680943608
Rh 11.253434582960523 14.942271542172374 9.268846693014432
Rh 9.215457455518596 14.788290057268028 7.715570049554431
Rh 15.4636245497281 9.64945733613677 12.452248896404473
Rh 9.11869782819396 16.16028949349781 10.016164376141566
Rh 9.227236025509649 9.675848423822627 7.722570721973735
Rh 11.168734908295152 13.555071970972346 11.547269049763823
Rh 11.266118326998829 9.534446222300607 9.276237609643465
Rh 11.340615164288646 13.555938402127916 7.0301212266180695
Rh 11.192872875471014 16.168602981676376 11.589927835671872
Rh 9.137450116977108 8.308184990501253 10.027307612221454
Rh 11.346850582618556 10.91505950452759 7.033828002820105
Rh 11.174805275481164 10.927711001869458 11.550900645198677
Rh 13.480852247821044 13.600960842946757 8.56307512165586
Rh 13.429742809456657 12.239555062779731 6.384754807061739
Rh 11.210715577426047 8.314132695324147 11.600834033081258
Rh 13.487352583542664 10.883479485738459 8.56682540514594
Rh 15.255948141965916 12.257279458275201 17.012577763157346
Rh 8.941675882194732 12.237116348168692 12.19345813430072
Rh 10.984284443378334 10.926473648943958 16.140005699483098
Rh 15.206529070658384 14.8222972264718 16.98759582505319
Rh 8.99445510375359 14.84027101186773 12.26097201837008
Rh 13.051228355468377 13.547432360123288 17.663332128395155
Rh 15.217872467056218 9.691799325094836 16.99442647684349
Rh 13.057126671932616 10.959501213292356 17.666847800676845
