52
Energy = -310.32690595 eV
Rh 12.58944133584713 7.611150349348197 14.200122645854554
Rh 12.786293618771305 14.158842528588197 11.416642096462672
Rh 8.382736342208531 7.255089805925312 9.265602848780677
Rh 7.772981878071969 13.075218842967775 12.168996465786567
Rh 7.860269493351018 6.776330677062346 12.069924738757566
Rh 12.415642808178946 10.086483065406854 15.242082083899954
Rh 11.335209720958106 9.375120604848833 6.898928862964973
Rh 9.088827243731949 8.747946557087328 11.305277209324936
Rh 12.432706098179723 11.743538736724524 6.4501320664168365
Rh 5.845792703826948 10.851771650201615 7.8774667591278815
Rh 7.050517708790134 10.247426691334113 11.917964207650595
Rh 7.538102324357441 11.360827808188796 14.229265305389367
Rh 11.323770483603255 10.14443120911744 11.103206468147624
Rh 9.90300172177464 11.310031602441674 5.947739156157223
Rh 11.732035582171399 11.793533023938073 13.305918583479384
Rh 9.357366559117127 11.21960737269311 12.414849636174756
Rh 6.748726094949329 12.022012533055287 10.017900294191694
Rh 14.170376011438233 11.126639417203506 8.361119678606016
Rh 14.00609277929543 12.607193016041533 13.007020273060098
Rh 9.3691588478094 8.75342937728281 5.332034339139838
Rh 7.418335271597652 10.331988000201967 5.97167926270439
Rh 10.477113978904832 13.07701459350386 7.741090906008481
Rh 11.614294937803624 9.953835730669676 4.513507186484821
Rh 13.286363045399332 9.101385049138129 9.723505601740387
Rh 12.03012787734305 7.719891065842206 11.668384507492044
Rh 7.403999973402098 7.83204944062137 6.969889972879089
Rh 11.79340084265585 14.283280309234145 13.838193777475098
Rh 10.515726238517313 8.20144793978164 15.648957470805168
Rh 9.75740939611243 10.646451194775008 15.327526583285728
Rh 8.96794027534834 9.600357446204 7.844844639782962
Rh 10.097029603657653 6.900953914992773 13.354740727863767
Rh 10.94713604659986 12.617489792204823 10.797801210677692
Rh 10.99386854326512 14.905199717780382 9.570981954374966
Rh 13.729294580019117 9.043682016517112 7.095885674007388
Rh 9.103143485014566 11.02366803417731 9.896119699828503
Rh 13.502373768469985 11.632864359865277 10.764938319777519
Rh 8.359015179131141 8.885840477716881 13.858669303395416
Rh 8.773339461383399 13.603290435607681 9.768135098481837
Rh 10.063858918637878 6.306561216162694 10.859941579479205
Rh 6.9753581793841075 9.361937361675052 9.47086435616607
Rh 12.845329774946443 13.282630272859006 8.797482721718604
Rh 11.585949594569547 11.028337264111059 8.769583211587237
Rh 13.36992154332077 9.77513346729207 12.690578886521319
Rh 10.811359137964574 8.333087419385013 9.328149262009358
Rh 8.11087975025266 12.076553279191696 7.709765327317913
Rh 10.023822639976897 14.505227889468383 11.99636507956386
Rh 9.968405344067715 7.077769136218293 7.23382512735828
Rh 12.509738212069488 7.035335753293706 8.013942248835924
Rh 11.547133338954623 12.456014224170934 15.755692181954013
Rh 11.947807870027171 7.399995513341391 5.514291448886186
Rh 9.563051285342064 13.051431151616967 14.183955481291381
Rh 10.831847660644172 9.316096774137444 13.421942582086835
