5
Energy = -21.08147782 eV
Rh 10.682816338100343 9.408090005370026 9.203992328200663
Rh 8.793342824236742 8.143183692019456 8.707801317549528
Rh 8.434854708039136 6.005628768844692 8.161907410429697
Rh 9.353825907797773 11.235958338157785 9.580548798251261
Rh 7.455474848237345 9.947176911200172 9.088396111351125
