54
Energy = -325.03668021 eV
Rh 15.519253486666479 10.560726235099107 14.774495192230011
Rh 16.466311730612397 9.177466628828494 12.74401499233013
Rh 15.649405242049998 10.06536499394602 10.535739737610383
Rh 16.12113153702703 11.757957041269991 12.469432900362431
Rh 15.858948442308318 14.165789846936928 13.045811597892301
Rh 13.928403887049885 12.49941766581986 15.145159222713497
Rh 14.494229691159978 8.160547779347274 14.063456385357984
Rh 12.249260088704142 14.305984823398207 15.791167305293929
Rh 13.692060550053979 15.206756348764603 13.800746680235706
Rh 14.35501589363815 14.777422338171423 11.111632264096476
Rh 14.700596878235137 12.406772136741996 10.309044456470195
Rh 12.91600666896384 10.123125601211287 15.043432819864512
Rh 14.72695958707503 10.887747382261466 8.236360169660422
Rh 13.961631452141102 10.261354584331055 12.791102442386686
Rh 14.236144153078381 7.995049638605387 11.42034916949918
Rh 11.9954005379499 15.960532763758337 11.850484496463412
Rh 14.309653667271293 8.483917570858935 8.904336134376432
Rh 14.427229310386664 14.085512765857006 8.521835928030018
Rh 13.038675431503435 10.303068959638525 10.404159217035433
Rh 13.754796448055549 12.8095470173623 12.761281403678154
Rh 11.472208948171472 13.881340147395688 13.216728066117708
Rh 9.649091436119921 14.173487656801397 14.944297888297049
Rh 11.300202696878648 12.09157463266372 15.002525096097402
Rh 13.067560966230516 6.269026564071357 12.890355381486724
Rh 11.380412114169108 16.22525507017858 14.28775936628872
Rh 12.62143291142287 15.59998534460338 9.43207893472773
Rh 11.600387092419732 11.37326300043676 12.390194113463863
Rh 11.874952897126866 8.737524618737302 12.323676918241231
Rh 12.098657487777935 13.352971847760832 10.661697859154007
Rh 11.988191254484319 7.755502141653879 14.623405091490683
Rh 11.974296613860606 7.973574236565654 9.78262532745811
Rh 12.220652704886074 9.80593699449626 7.966325590732958
Rh 10.416062226834326 9.83333034962369 14.158109457337
Rh 11.07348150943737 14.126419932615544 7.968582207221296
Rh 10.20600595195993 15.09110426652151 10.178031477434585
Rh 9.491212207112454 15.460625781013176 12.62635243861498
Rh 10.736089197544025 11.190772343334759 9.939291205406036
Rh 12.664000758540604 12.306197529233112 8.343227586889622
Rh 11.120929815309331 6.343382512136937 11.42592071614265
Rh 8.967068910101792 11.917541643140451 13.871496732702504
Rh 9.715342617835217 7.546106069858262 13.183255820691969
Rh 9.580134403920447 12.89225496279986 11.639126735388604
Rh 9.047719528113692 13.048048650609642 9.060359265481667
Rh 9.709044496873315 9.297137616741734 8.48056891807207
Rh 9.758821931297248 8.757136254352515 10.918881152563808
Rh 10.385582698828982 11.559939346031303 7.367680174466844
Rh 8.282120474354096 9.728547507034703 12.73826955185578
Rh 7.789671906481472 14.603504042794075 10.841093966397027
Rh 7.520681177904531 14.081133503304624 13.370346062594797
Rh 8.25929653787232 10.683276737903546 10.315603099761036
Rh 7.856629763457073 11.11838067951054 7.857467323277778
Rh 7.030594478353255 11.903623261098463 12.127696707317504
Rh 6.587976814895635 12.58870129207669 9.724622859265821
Rh 5.533211978793168 13.8594122695757 11.728450404266242
