52
Energy = -312.84438997 eV
Rh 9.613197661663722 10.921707222615852 10.927673204481502
Rh 7.069173151770978 8.188626261779339 11.7269340595109
Rh 13.265942365490844 8.807167779086 12.717892610052848
Rh 12.514438341368734 9.625170981494069 15.078449852384615
Rh 8.468029733914262 6.883311199589479 7.952582523225538
Rh 11.051330427686331 7.865066479653965 14.002219657569086
Rh 14.354245212650621 10.5220866260042 11.034970027036767
Rh 12.010745877762234 13.185577431629099 12.714900995744342
Rh 9.539311744065891 8.442677657659754 11.957499190473662
Rh 14.356669996879345 13.02208680946098 11.70118968217554
Rh 9.027250183447379 8.897579300703823 9.462495317184535
Rh 9.807471080495667 10.053809875635153 14.917568560363343
Rh 8.019114369517206 10.323324307220352 12.998673645058126
Rh 6.32924118833919 13.126060139269011 7.428969656415718
Rh 8.759490576151704 13.489715838095027 6.859587668753432
Rh 9.679409330694929 12.299942994316408 13.405077159375667
Rh 14.069293558208626 12.400197419836722 9.198167994307578
Rh 11.10911016277844 13.836371641916777 6.15070406414743
Rh 5.740661447432142 12.552212097929502 9.922939750857207
Rh 9.68846440881416 6.048250807424756 12.865167146968007
Rh 6.61939199385874 8.269057781269046 9.136016334600157
Rh 11.53768536653658 9.0999719487665 10.48835500308064
Rh 7.684347072998451 12.621801235224197 11.777291487117653
Rh 12.099261611423726 11.669885727793336 10.615358783944476
Rh 9.996011007553959 13.495642508582543 11.07482010029797
Rh 7.267473186292302 5.900607018256988 12.782712851871821
Rh 7.36613314685181 6.131171832527779 10.293949238073095
Rh 6.7573516375831675 8.73533227133646 6.656725298652172
Rh 8.006785020771327 13.522898909961848 9.388124113346347
Rh 10.980317724526927 7.720797642383835 8.172952298121503
Rh 13.454192171768593 9.976892159683938 8.659395693719347
Rh 8.355462022941321 8.070391686278258 14.13388925092771
Rh 11.905326381643142 9.469805030628123 6.43824824723618
Rh 12.274227487265696 5.976466812717441 9.45360424996534
Rh 7.546000667520569 11.22117162699476 6.0824125843823165
Rh 10.689498830201096 13.17038232066735 8.615354319779948
Rh 13.40047972564694 7.6437830308133705 7.740880079198857
Rh 12.419434141704889 14.187636536754455 10.36806143022397
Rh 11.300245367081393 10.379102739643367 12.869484726830462
Rh 9.7675080544446 6.448455956804811 10.200988108845815
Rh 12.91487429550727 14.31120550106171 7.8879430324440465
Rh 12.614245240907467 11.909620058631448 7.081784709665147
Rh 10.176337749629843 11.437897336691217 6.156595747128804
Rh 10.925804405326586 10.531351921312279 8.50313274381181
Rh 13.65879792182616 11.278677909178517 13.452706993304554
Rh 11.84296492419148 6.875269178395715 11.752666357518445
Rh 8.506947921227638 11.303785545641853 8.482570323916143
Rh 6.0851084075865725 10.662787293156166 8.175094329812186
Rh 11.614534450676233 12.029728243577098 15.00233166746835
Rh 7.023411137926841 10.459147964108691 10.55485628058264
Rh 13.75602491734778 7.980058873960297 10.298315711465635
Rh 9.17484553807725 9.211892873855735 6.873335484561226
