5
Energy = -22.33367324 eV
Rh 11.8913139676872 9.589518053969712 11.337435733049865
Rh 8.819362018893923 11.178769786537405 9.455139199931438
Rh 11.071329905760653 10.190062015795403 9.064142168172193
Rh 9.467171509800338 9.336045847601698 10.964789196221435
Rh 10.568989676767115 11.691309149467429 11.151533171212483
