52
Energy = -313.37989358 eV
Rh 9.09252349654569 11.262969496236233 12.317334528236753
Rh 7.014159385890271 11.264071622520866 13.734106547875873
Rh 11.26183816433337 11.261041450201741 10.91741232113802
Rh 9.080338629391166 9.896788796487883 14.553775215099238
Rh 9.08114082847005 12.628844574374229 14.5535808029494
Rh 11.262956243678 12.59979315487885 13.1165960336741
Rh 11.263140374980905 13.865047412726634 15.280773579060073
Rh 11.262934328875525 9.92611137993194 13.115625018560092
Rh 11.263136953912436 8.660344812552728 15.280515042377816
Rh 15.678981103167693 11.263105787182637 11.080231471192588
Rh 13.434875900448835 11.26301566780422 12.318269294462088
Rh 11.263026833425918 11.262746183494857 15.38535065387751
Rh 12.631977739924402 7.714303765445764 13.196791335741194
Rh 13.446153013872197 9.896880325417193 14.553866603029649
Rh 14.94123584943407 13.473807313886025 9.717069252916648
Rh 8.592401603559397 15.584678942056142 11.041532531718017
Rh 9.916586803738685 13.447603219700921 10.945091866692698
Rh 11.263206147552111 15.69958382973443 11.061307205631259
Rh 9.894814263964918 14.813206477828157 13.196840739845236
Rh 12.63141858716933 14.813338040790306 13.196949270775486
Rh 12.597224259173501 14.756710559377572 8.842217382705996
Rh 12.609778373766424 13.448316250472917 10.94501071714496
Rh 13.93385502266472 15.584571404933344 11.04150254234075
Rh 14.820505660786226 13.483772977005465 12.376928183273447
Rh 15.51171522915445 11.26413267839881 13.734025523430693
Rh 7.706031262812437 13.483768077485259 12.37668002653214
Rh 13.445223308423275 12.628790391524069 14.553423986919094
Rh 7.705776595137753 9.042587186156092 12.376347867946574
Rh 9.063054930172337 11.262610876399425 9.640760391157347
Rh 7.585168711417541 13.473687814371532 9.717075597538967
Rh 6.834766761214862 11.262705849579385 8.424084972881838
Rh 9.929109085956316 14.756746436646676 8.842033198714782
Rh 8.892811263824786 9.828004099669673 7.5776535722152705
Rh 11.26314469734314 12.548298016884438 8.53597927435789
Rh 8.89293379829846 12.697857743918602 7.577555258478285
Rh 6.8475273408621815 11.262980088499328 11.079975180524556
Rh 15.691241450350425 11.262797581878537 8.424442381648479
Rh 12.60822892859045 9.079803076535415 10.945256459690986
Rh 13.633401289184967 12.697828390376667 7.577492168427689
Rh 9.918089813718748 9.080437460207609 10.945397089413577
Rh 9.929277534163491 7.770305354684992 8.841644992953574
Rh 13.464130537276182 11.262671396822132 9.640097107108314
Rh 14.820662289811573 9.042745458784324 12.376469690349872
Rh 9.894236732237541 7.714164538692958 13.196789342617212
Rh 14.94146556406416 9.052793873361686 9.717122666490685
Rh 12.597095526398679 7.77035941639775 8.841867232931968
Rh 13.933772867484203 6.941082480038336 11.041272423243148
Rh 8.592564639971094 6.940854126230574 11.04134240460072
Rh 11.263203426090385 6.826552346935998 11.061144818984719
Rh 11.263157688019826 9.978612488859591 8.535287598547146
Rh 7.585015563630138 9.052778737283168 9.71717530569267
Rh 13.633667748383623 9.82807456833573 7.57760909720544
