51
Energy = -304.43235543 eV
Rh 15.536183618136725 11.363880674494139 8.55170469304927
Rh 16.208143801936803 11.890555210284768 11.30974026461597
Rh 15.20598500215183 13.796527401662486 9.839735800993823
Rh 15.332087074422741 9.55182244284473 10.887876650030138
Rh 13.919687406139214 9.398459036250575 8.78710983964619
Rh 13.427240045934191 7.04738092765689 8.805362583255032
Rh 13.595298979268998 13.078242631157726 8.055393981251532
Rh 14.351743641033023 13.40332155456522 12.242802900800196
Rh 13.322541627552473 10.83111393014334 6.890121198884273
Rh 13.780417763286637 11.679459828772737 10.282898388858916
Rh 14.101070234163666 10.915028209426614 12.714305752286663
Rh 14.087953919991376 7.305722408486662 11.218892577369346
Rh 14.694320309208914 8.604447023137649 13.32516918181091
Rh 12.573459074777988 14.055050181105724 10.400472895996991
Rh 11.398826516203318 8.800223223957882 8.587910043598047
Rh 11.207252715331476 14.038797839659221 8.265930081876204
Rh 11.932781394632961 10.120974690470177 13.728137553226244
Rh 12.58394304969506 9.441696987655435 11.096555189944496
Rh 11.666358483328183 11.436598523041981 8.895039318194785
Rh 12.755245889519214 12.499010661992186 14.213140295680915
Rh 11.802668858385614 12.714890981846771 6.158847878526228
Rh 11.553986024112406 7.14458527392278 10.557597259202778
Rh 11.593736653284324 12.082823284423508 11.828423621761155
Rh 10.784278637793225 10.333294582919734 6.561396446275223
Rh 12.302777703290369 7.710376464844712 13.026561149165222
Rh 10.148077686114178 10.07947417722188 11.012788938320686
Rh 12.307126041726544 14.707236729773948 12.887773442817563
Rh 9.226538579874408 10.315340044160546 8.688078397944405
Rh 9.482279142383817 12.483067833810285 7.232640554035469
Rh 10.386870999356672 13.347622212554572 13.85604076957473
Rh 9.84787364880789 7.821641026758076 12.330289075750485
Rh 10.44322756008644 8.381912261740021 14.838771294153355
Rh 10.173556886064699 14.481863607109785 11.47146762231252
Rh 9.267267626980505 8.296745206303 7.159101851958587
Rh 9.181996554539511 7.92246772899392 9.785844793897484
Rh 9.611054489898095 12.708376988774338 9.750349320840769
Rh 10.495827891512324 11.275875908741968 15.417455351206124
Rh 8.859659426848268 12.22680600846732 12.080897665551309
Rh 9.279176276302334 10.167096986862774 13.435157683571447
Rh 7.981154781319536 10.496711000663915 6.539168144778123
Rh 6.791051457999091 11.318914485541908 10.925149588340997
Rh 8.233469525246942 14.539554637134014 13.253572253587228
Rh 7.689239336932561 9.032293336024026 11.55169629655917
Rh 7.3105937559782275 12.12409026715621 8.575341919435521
Rh 7.855261286068341 8.06520379335372 13.976582296739629
Rh 6.988575067460396 9.487437260028559 9.154760994591406
Rh 7.505557699040632 13.88632178970061 10.671333282921102
Rh 8.226699307296547 9.94101696303962 15.742364445658234
Rh 8.175952011303089 12.278819053709668 14.663594458691342
Rh 6.386471019597983 12.826004706514956 12.867527029200886
Rh 6.722150589242267 10.374025205313826 13.529518732134017
