52
Energy = -312.00073214 eV
Rh 11.781005227156063 10.507755437834499 6.064392877096992
Rh 14.080848045215081 10.241249821081071 7.196127054309748
Rh 12.982243043607964 12.730284845586311 6.548358377904433
Rh 12.040216327684822 8.41632295269116 7.655171090524732
Rh 15.698789673540572 10.783611515331422 9.079387677245597
Rh 15.680292723855453 12.962882506150864 10.581781329306699
Rh 10.669792938080358 12.380098084687516 7.423227235125873
Rh 13.828205860583626 12.607493508898155 8.829543895407614
Rh 9.809628718804259 9.787004993893582 7.52547641028042
Rh 15.820697678441412 9.200327705411596 11.07986278460854
Rh 12.098520216166783 10.716933321388417 8.688130328946869
Rh 13.850172801462731 8.877953274733214 9.41267717157702
Rh 16.104697928757147 11.37349879127513 12.54663348230909
Rh 11.833494576134274 7.359611386668782 10.048923079809729
Rh 9.729730099303373 7.5202883204437265 8.542299485681204
Rh 11.827191560818202 14.241912928801687 8.849742910826144
Rh 13.467198600475177 14.206593687036316 10.89127281662413
Rh 14.042013492964848 11.040519299564455 11.048166252160742
Rh 13.688291672983874 7.914540485094465 11.825594518382909
Rh 9.45281622350918 13.384171938495472 9.427346222679535
Rh 15.031317456684667 13.70237170568635 12.987178443092185
Rh 9.518360313838432 8.369399427476635 10.847962273388765
Rh 8.20343472934935 11.722290287677996 7.824735661073372
Rh 9.757348687982962 10.776035970027444 9.895522331179109
Rh 15.53537740830895 9.130478376068751 13.572872080208763
Rh 7.763457037973386 9.447997511745598 9.113276488945871
Rh 11.646137784826273 12.324580231340972 10.676644017550048
Rh 11.861236396238334 9.65104593627439 11.01229618236885
Rh 12.938958277489386 12.346581781890501 12.899995941281762
Rh 7.283558085620573 12.192121975484127 10.1389323181272
Rh 12.53958664068079 15.002853509652674 13.101195691408817
Rh 11.256439725938597 8.10738057355386 12.929469614866656
Rh 13.168676024568251 9.802636987862435 13.463308874588234
Rh 10.784698728461683 14.687308720066115 11.227269267721152
Rh 14.687379295381444 11.579959716832867 14.622396257593255
Rh 8.781846756019325 8.536921181807946 13.278173175742086
Rh 13.294965822654062 13.683989827437504 15.139996068115904
Rh 9.253725774335646 12.467108256318237 11.897045934189551
Rh 7.877694550316772 10.239481678111359 11.635231319894208
Rh 8.173641910766571 14.678468018221844 11.839277034855625
Rh 10.712403509550713 10.725362458275209 13.006649731248176
Rh 10.81562085766002 13.256832279464621 14.078394546630598
Rh 12.093031547586541 11.354362920283325 15.289568020614269
Rh 10.183312669954832 9.541174668649553 15.185060074800434
Rh 9.997799537381983 15.551987358951099 13.504615944522916
Rh 6.679492626263123 12.399071046184961 12.596799293724665
Rh 11.8138201311042 15.749897592280188 15.462109731575781
Rh 8.238750400795897 13.578717717414396 14.159336749913232
Rh 8.314644266291216 10.945396447496623 14.082250537986333
Rh 11.627361760630926 13.403689754236712 17.015684486710317
Rh 9.695971473840025 12.000849145852579 15.950301165385142
Rh 9.654587749289924 14.591199083052048 15.972707135667909
