5
Energy = -21.73354125 eV
Rh 7.7917924182480665 7.548157842121161 9.40299993944283
Rh 10.065078407572688 7.7506646638178 10.069095239115363
Rh 9.58834075036922 8.437774118143192 7.836154391963422
Rh 7.884849655758487 9.910113748246818 9.003662890383403
Rh 7.7050135663181 9.35440349441536 6.7037626807352675
