53
Energy = -318.10125149 eV
Rh 8.050139229151403 10.96148664422358 15.954405668928201
Rh 7.53739635352229 8.136898942374037 13.604002039648668
Rh 6.216916249477068 10.421259045863954 13.075310817072342
Rh 9.569971698075996 8.54949820832466 15.097372724640689
Rh 7.215399733500982 12.617283985353062 14.032461924783869
Rh 10.616279431378745 10.835929325153087 15.757993788478714
Rh 7.961699466468834 9.277678683279861 11.364510883105783
Rh 11.165532788481416 6.53528132980531 10.840157016489039
Rh 8.643927402071938 10.428162466726613 13.655041403039876
Rh 9.883595698581091 7.868188508150164 12.597010841341284
Rh 6.7137576626219735 11.598938604073727 10.916767245931174
Rh 9.341866010050833 13.09436660790811 15.406259563361836
Rh 12.413211041039327 7.259854526612963 12.9289876996432
Rh 6.952370850929732 14.203434384991754 11.97563286790927
Rh 11.593586747802267 9.453116075135778 13.864668447462115
Rh 14.55159360647021 7.557774758440232 11.194220717859517
Rh 8.717668545486097 12.446002484850613 12.008808471910891
Rh 12.127302086754813 7.392830232826699 8.734264264153609
Rh 9.941268401607395 8.57922771613284 9.793085482826399
Rh 8.759409454107294 10.96666400896915 9.56943681959564
Rh 10.762749483915554 12.175852447383521 13.54924128447873
Rh 12.460292596327266 8.840229437510418 10.856050446986767
Rh 10.374147949513638 10.364941936236054 11.677027002175043
Rh 11.898019360309627 13.09851167813358 15.817908090682488
Rh 14.063050326330021 9.20218344239586 13.102672009023873
Rh 13.266255383847772 11.08851559876335 14.820214731346242
Rh 8.312069097841729 14.942375134471177 14.028764860961333
Rh 12.778079909375856 11.234544091379686 12.238574996499572
Rh 11.42272625736997 10.61120894242233 9.268524981860036
Rh 11.07040127033202 12.756559602251775 10.86011837004309
Rh 10.961528438690044 14.66473234936399 13.928533028580564
Rh 9.811098585181396 10.350408750502478 7.362936767483243
Rh 13.234967345846123 13.408890399824472 13.631693813148043
Rh 15.16893008552891 11.610690017837062 13.02870327396164
Rh 12.260232874778007 9.389271234145937 7.290969940451662
Rh 15.691028948452148 9.813941283890163 11.1987338451113
Rh 14.313220950401913 8.805170659058906 8.84410747069397
Rh 10.077201485735005 12.79506731704657 8.197197699150815
Rh 8.253881162521836 13.522240825405104 9.765762954353365
Rh 9.534746739162427 14.804340879976749 11.764430789013895
Rh 13.869821847103283 10.976171562790112 9.989635493936525
Rh 12.220626435972154 14.808905256641507 11.668874003997713
Rh 12.597821078263134 12.851151702922397 8.725789707614815
Rh 11.82681914939661 11.869615177296332 6.515524098172403
Rh 14.249938882443018 13.26542611047998 11.229072155634235
Rh 10.768641440445963 14.940778693305521 9.496182230913442
Rh 16.537056981046792 12.1909718320042 10.865819793299218
Rh 14.140690672348327 11.063778104854077 7.36792901869596
Rh 16.221976178156574 10.615705676914779 8.799989961861833
Rh 11.580618449644268 14.564059681937723 7.078626176405024
Rh 15.216249371527923 13.030827055767965 8.794693856071392
Rh 13.421959239012262 15.035778305747494 9.454608779979429
Rh 13.900842898019892 13.558437672884407 6.657700043299079
