50
Energy = -300.54467383 eV
Rh 15.881841160944216 11.95294987563781 13.540469618833823
Rh 14.54794933082033 11.953151593288514 15.82991970734417
Rh 13.27783334191658 11.95357746824128 13.611836908246616
Rh 13.165937779241892 14.115468986230434 12.123271080351048
Rh 14.309156914683966 16.234875716848226 12.84456668651563
Rh 14.489441466225308 14.16069367971178 14.39402223169155
Rh 15.813216172035718 14.122232037788187 12.025728787954742
Rh 14.149254801585649 15.464457589049868 10.240143297923957
Rh 10.758674258716702 14.12658222148287 10.869826866324484
Rh 9.254934481076148 14.113917105067012 8.83290882168743
Rh 11.798853062692718 15.61988505831683 9.115141029122013
Rh 9.55457076479491 16.292952981606334 10.442476388045371
Rh 11.923796234349402 16.4007732429172 11.599426915403908
Rh 12.177500384439986 15.489437828300366 14.111930428954778
Rh 10.998189797891241 13.263626753991227 13.368111464971818
Rh 9.739388852189924 15.491828695915654 12.900137709745644
Rh 8.120805883180948 14.205191728516777 11.183770111778351
Rh 10.028606113182326 14.571355748178577 15.327333081395496
Rh 9.991739402885669 11.953804843993055 15.429525295621117
Rh 12.283725812896478 10.633197900128005 15.669849388831897
Rh 12.284282726905776 13.273665706485263 15.669293331542715
Rh 8.385881938088291 10.62367047954505 13.714581986357906
Rh 8.38655821642188 13.284315957859583 13.714286485313538
Rh 6.920547143065719 11.954259685819236 12.03916476904816
Rh 9.414072604671599 11.954021720896515 11.697059059984305
Rh 13.165295241947371 9.790861112317282 12.123028105127956
Rh 11.980285294819273 11.954490587190598 11.385498276546842
Rh 14.148730737502843 8.44145284419934 10.240333837883847
Rh 11.797189335477702 8.286541983177452 9.114034015786467
Rh 8.119218502080521 9.703050177360083 11.184040523886745
Rh 9.254068673827394 9.793442225404725 8.831823743284678
Rh 15.591887137477912 13.484461490354327 9.465563774642739
Rh 12.927196627566895 10.595213632642139 9.344236919122462
Rh 14.524703211948749 11.953126376320325 11.228427968860597
Rh 10.635135928971863 11.95372957268562 9.159850538752787
Rh 12.927555821795902 13.311653889008909 9.344642861335455
Rh 9.552996578196737 7.614193395468635 10.44211957422958
Rh 9.73738103535595 8.414700068808552 12.90047695971146
Rh 11.922626783498515 7.505394761323803 11.599699072521014
Rh 8.038709927498417 11.95436764838514 9.57059506622007
Rh 15.812729901361006 9.783341472726537 12.025843188225094
Rh 15.59154504558791 10.421421357468288 9.46528928494656
Rh 14.478141242808723 11.953061553963737 7.808225722128698
Rh 17.05164459481786 11.952578969454196 11.224635221212678
Rh 10.997899796211705 10.64450058346003 13.36793412112321
Rh 10.027258655754931 9.335656503444358 15.328420899496694
Rh 10.757766820354602 9.780488474460435 10.869413763524353
Rh 12.176391677207844 8.416834651836309 14.112647309171775
Rh 14.308244923522007 7.670845066424629 12.844464711685173
Rh 14.489187935864974 9.745246843579025 14.39452301122388
