5
Energy = -20.52428317 eV
Rh 9.131679272419857 7.61801534866966 11.035782211848888
Rh 8.526713529755792 9.289454626227213 6.686979272744509
Rh 8.695617164335646 8.271147510492462 8.94929367496836
Rh 8.56569741583859 6.871793532712213 6.999315483151037
Rh 7.372461026345605 10.235430631060494 8.601860891732919
