55
Energy = -328.21054357 eV
Rh 15.587464783911852 13.729827900955678 9.955436803099207
Rh 16.840888995263366 15.852260872238935 9.166029340861336
Rh 14.51329862465438 16.207010582872233 10.328515554256974
Rh 18.21380722233989 13.85173852544413 10.043750345301394
Rh 10.91157840377502 14.844949578587029 9.35382853215804
Rh 13.040312417530489 13.763059452340283 9.898432916512121
Rh 12.204725553792708 15.852831914675674 11.247725834469298
Rh 14.369737922470298 11.935067202808613 11.320042853321533
Rh 16.53573742954592 17.68078834962744 10.90317937457248
Rh 16.929311598508377 11.729748180610652 10.835268059396087
Rh 16.772970725582848 15.19837029809344 11.672871019893874
Rh 12.719693924640124 17.539883434912518 13.128073064184816
Rh 19.322543733954344 15.259656096674844 12.020223234141842
Rh 16.24457238641467 10.430638818981866 12.973930739774021
Rh 12.37732752491424 10.68042608817496 10.929495954735275
Rh 14.232751794503088 14.474016624183102 12.20651846372497
Rh 15.093583192183049 16.864712159858247 12.922126159564424
Rh 9.934491021076203 14.52034609714061 11.553379949707601
Rh 16.216828839092784 12.92913908640125 13.025998572120837
Rh 17.678434172576985 17.12880003782953 13.071164591695462
Rh 11.294779168226652 10.703764544803748 13.097578575746422
Rh 11.885110820345552 13.020274036432921 12.024932671488003
Rh 18.365831403032075 10.987528584214674 14.00149840898577
Rh 11.184613282246456 12.788794281675957 14.768872698143758
Rh 9.475493188624881 12.507201673798347 12.975727184670745
Rh 18.65595444945428 12.793284081440058 12.345956322140665
Rh 12.295013401086415 14.992048192218673 13.81067382328847
Rh 13.756900163368947 12.666820302863034 13.971764585793558
Rh 10.311183518110616 16.808712664870686 12.722211441340733
Rh 13.87966544198053 10.132590115140312 13.283205915435573
Rh 9.809601038066438 10.610693877726714 15.078367574696601
Rh 12.12607646658941 8.601624429299147 14.09569721088978
Rh 17.283265397181612 12.627322020784005 15.396981691008419
Rh 17.996193366651006 14.62838279144697 14.02425339386825
Rh 16.317030367645284 17.023686105491436 15.256742667201245
Rh 18.87255044083145 16.708236829039873 15.221247936751597
Rh 12.483752636772484 10.591467462441067 15.49575882324329
Rh 9.736602101642852 14.828022706315227 14.203651588540872
Rh 15.287430592004348 14.710121840521246 14.667263770460028
Rh 15.085663212301574 11.271306782083427 15.500278313940992
Rh 13.130251908886676 14.024495128487159 16.12490053506352
Rh 11.12054682149744 16.733720511208478 15.239562874346422
Rh 17.382466970749892 15.008449877864727 16.46422377127302
Rh 13.759005854549487 16.70688521649894 15.315857239433715
Rh 10.818748548206528 11.80798770117722 17.0548565802139
Rh 10.704491859042365 14.52618269737618 16.637697879108696
Rh 15.447138999075536 13.37196191658122 17.012767885552158
Rh 13.409318948527337 11.891804758336418 17.4320393151286
Rh 12.463965369898666 16.269988959368444 17.47447556912271
Rh 13.637276707718497 14.20781301859144 18.714268839379226
Rh 11.311450799544247 13.38514893976345 18.846636838372437
Rh 15.16538672962547 15.973367894861282 17.32789961924062
Rh 10.569890314142635 15.776092113872378 18.97089181464905
Rh 14.03092763140873 16.63528789254159 19.42113765054643
Rh 12.325060295115557 15.324357229334531 20.582826108325847
