51
Energy = -303.90740639 eV
Rh 15.520897643279138 11.250861231704013 9.164825842507671
Rh 14.285987340043711 13.13420137319315 10.20769693292723
Rh 12.30603462603176 14.225892599044867 9.171430547153323
Rh 12.692954197452334 11.43618502090253 8.963410408681602
Rh 10.286263221606436 15.36510167731769 8.096439244694347
Rh 10.637166016810625 12.862982901088074 7.801723571496336
Rh 15.656630934571684 14.867545657879496 11.54467747116318
Rh 10.765233579180487 10.291775630782142 7.447223883330502
Rh 16.449748438763677 12.396322062205735 11.482938783009534
Rh 14.175660116896337 9.187849407256673 9.415645911376226
Rh 16.743842074951846 13.700049509718424 13.704049288638332
Rh 11.58551456766299 9.000409642162658 9.443982398265582
Rh 13.04703133786129 6.9308568785718965 9.552113640389855
Rh 8.472825694064738 14.146650537467378 6.955539334581291
Rh 13.029459502395833 14.865732554628194 11.802282115747747
Rh 15.866943430959486 9.966846097673631 11.36256330250837
Rh 13.468597722694016 10.629930217853701 11.424726034028945
Rh 14.939343701212398 7.570701729969279 11.244898496383028
Rh 11.800192395637545 12.616087522607057 11.167793725446442
Rh 8.871841506292052 11.561803077261503 6.478111686737965
Rh 9.845703130728781 14.098759489329314 10.164323315815302
Rh 14.24119102437689 12.762674992856988 12.740716463219655
Rh 10.13571936385529 11.233252736670467 9.76285308042521
Rh 14.61566899344787 15.188245537387456 13.834557411741416
Rh 15.83582373770526 11.129848775656832 13.71835722406255
Rh 8.085650522403023 12.629861782998676 8.84857883107711
Rh 14.345212045149054 9.092363431084753 13.2695312238639
Rh 8.257233053982482 10.068993352846537 8.419149872522748
Rh 10.631139233492458 6.826465548976173 10.487179744335826
Rh 14.78576708886339 13.013372480995153 15.204385256206661
Rh 9.456146824902081 12.190223076970767 12.156616337113931
Rh 12.124640507289165 11.556201459300683 13.540877337986284
Rh 12.414146971686016 13.968353721568521 14.30376592078583
Rh 10.614514321295259 14.45448227839523 12.627639695584499
Rh 8.360947846505896 15.358669464145306 12.46693586890015
Rh 10.98202370844717 10.01216577216949 11.851540010991172
Rh 13.67530074832837 10.636356415519236 15.240395146380406
Rh 7.541862334331219 13.465458887823125 11.096941864432926
Rh 12.488004264950966 7.8771003261862225 11.883038389499559
Rh 7.608783487669896 10.830247930689257 10.820445044582232
Rh 9.138536569963195 8.81867070232464 10.511045135794625
Rh 11.941153390512529 9.02553838735023 14.160557722935746
Rh 10.059147473553958 7.840334253270234 12.88349574947485
Rh 10.535441478081562 12.445849027612793 15.276864352789143
Rh 12.67840632946542 12.631224825125487 16.54883031888024
Rh 8.750036854785739 13.606586485695047 14.273956913383216
Rh 9.572219905066895 10.279548882149394 14.07661466842075
Rh 6.427390399461032 13.842808991441073 13.315508939434485
Rh 7.351927531805997 11.513476797774983 13.321229115019015
Rh 7.822694367863105 9.093386287658648 12.679988695824067
Rh 11.29660818874707 10.288886121375118 16.267456741412094
