51
Energy = -306.1285577 eV
Rh 7.742673645957434 14.932956030021412 9.332487256978283
Rh 7.259623340386164 12.908417209892326 13.420641656428339
Rh 10.438255959894008 7.371704948851377 13.88223072547501
Rh 9.502281008287497 7.649422076442869 9.865472304195277
Rh 9.83322586514572 15.146357277790889 10.753735959050791
Rh 13.869669045296119 12.609654353734124 10.839937853856373
Rh 14.389850597313597 10.287078961951535 12.130099597732254
Rh 9.384984247112557 10.287376265768785 9.86872990505718
Rh 13.404818140675083 12.347133903737026 8.115720650305079
Rh 11.846500601100999 10.977469553422834 11.047668177967306
Rh 11.73150026178328 11.21899448899003 15.477566463952254
Rh 10.257615398396332 12.679760019920698 6.545793751266087
Rh 8.001660848832577 8.420438795615672 13.6093872695959
Rh 12.588517994767802 11.941334206886493 5.76748497602912
Rh 12.874334941388863 8.515853971336297 11.16905275229265
Rh 11.519762153579604 6.520687895075264 8.96042807481706
Rh 13.98394571956302 10.356087592302389 9.63359574307277
Rh 10.486022720909155 11.607588887961779 13.119903410077097
Rh 9.687513032133948 12.688287808687585 10.885797577940615
Rh 8.500600397199449 12.574311750976806 8.58030699999565
Rh 10.979346571766795 10.24730313163044 6.6723584229842725
Rh 7.4271105779229725 8.310867386462341 8.567193085852207
Rh 12.947283057599059 7.011204604744023 13.181748169353424
Rh 11.627950363921892 9.210144125220422 8.973754056178462
Rh 9.305022263904643 12.282185308249701 15.19517057958341
Rh 13.429932249438462 6.078003888878114 10.575963507598905
Rh 13.588265002955767 5.632721247980945 7.948485591169253
Rh 11.126461912433609 6.562167007113191 11.507744706935968
Rh 11.11070587094806 11.8405511328473 8.74578356472272
Rh 12.36905659743003 7.65514297613892 6.818102153853206
Rh 7.398494126669059 10.673984309122682 14.65639788582414
Rh 7.561710495111575 15.147722854323987 11.997787253415396
Rh 8.487176750491248 10.326648815827687 7.486676789627
Rh 11.98969075203221 14.06157356248676 9.50726763331844
Rh 11.816053550494088 13.688814450488804 11.940663662109062
Rh 13.502179996983356 9.944503415118541 7.192816495234849
Rh 9.929480879624766 14.643350100271869 8.154730638766699
Rh 8.12385483175436 10.903671437075255 12.222575452481873
Rh 10.138556354692913 9.096140820677022 12.060081246048695
Rh 13.989794008719576 7.932254075508633 8.802316867803592
Rh 9.473103588955619 14.055061530312628 13.144406089671739
Rh 9.858899292049566 8.10728459438947 7.414895050543024
Rh 6.906527416879626 10.747894380150646 9.671298520148357
Rh 9.827333640350314 9.749125445341027 14.698312420980066
Rh 7.545225524288069 8.700555239418176 11.126033536478209
Rh 7.1592693307346424 12.978985821142844 10.818130631663662
Rh 11.479013229880724 13.623135152524526 14.577049016198682
Rh 13.090642335347592 11.990638239467723 13.376653438874545
Rh 12.174464319580325 14.31940807897739 6.9226184168190175
Rh 8.65077906774044 6.523143639731484 12.037018279056735
Rh 12.253364382214588 9.485001491650419 13.570029993259283
