55
Energy = -331.09861764 eV
Rh 15.330024812123439 12.345727177908323 11.053814516638333
Rh 12.430985772510724 15.37998341313591 9.557381076314142
Rh 14.748876108708593 10.608854842579984 9.155306973005011
Rh 9.852161717964764 15.0295758919085 9.996755919221554
Rh 8.825097845147475 13.09373776383375 11.346611340535345
Rh 12.758174359600861 18.428997843613697 12.735334857255886
Rh 11.243230308588332 9.886510747452181 15.842368859417999
Rh 13.612666616325667 13.00312538741053 9.27672074692021
Rh 16.399060404570122 9.939039145196423 11.085517173422998
Rh 12.78571435710491 11.438254512434547 7.449762655836077
Rh 9.828648650002387 15.144770935022674 12.669571175330848
Rh 8.13648564587612 10.773724519995834 10.023035961421071
Rh 14.292202785618818 16.40808499732614 13.077701460644606
Rh 8.59283287746383 10.529237255683475 7.574085580073506
Rh 10.355906036270365 12.039815144218359 6.466884944044526
Rh 12.395849590414834 14.98410047966419 12.217638784191502
Rh 15.753036775868159 8.058145209437482 12.787056820905107
Rh 17.895116663270343 9.377811128847215 13.06696184942773
Rh 13.373190564647937 12.663021735067305 12.707317876370555
Rh 14.10182438992739 8.615266776865582 10.818719719755357
Rh 16.795660779709117 11.688695557809357 13.085492850839312
Rh 13.372940932387115 14.471712256741835 14.542364570497082
Rh 7.600504491319342 11.072604582511545 12.456799432804841
Rh 16.160622300640437 9.893257651004658 14.819152480002842
Rh 11.293491208493842 13.707707685936233 8.100482754116891
Rh 9.804045594368569 12.074577254536191 16.158817913816645
Rh 8.468431814303102 13.209327046989136 13.956896300486429
Rh 11.16016751286394 16.962947685387878 11.334925154829312
Rh 12.031029272503076 10.466127341061195 13.326994414870446
Rh 10.280501945997747 10.95873609262551 11.458525971484358
Rh 13.662991493312061 17.24244666750727 10.733804697902794
Rh 9.56270698598562 10.780620587754623 14.034374787568265
Rh 7.315731032773297 11.212001382238991 15.100697239135014
Rh 8.866183828267673 12.933687573327513 8.72871912791345
Rh 10.679527512375657 14.311877358765795 15.127340349656093
Rh 14.56663484000324 14.810425284627247 10.90166220655153
Rh 12.24909275649938 12.26001976933624 15.283358227901555
Rh 10.48276848809592 8.40920145851867 13.713273388529213
Rh 13.204470366290986 8.17777103376828 13.21937159511989
Rh 9.880407058150148 8.854987558393391 9.29357216264738
Rh 10.733016647162716 11.236908110881846 8.933726376033027
Rh 10.939843000840343 9.521885170093208 6.946763511683359
Rh 11.494506626425782 8.660658071665383 11.330246879068552
Rh 11.492672896632083 13.124677277244455 10.638500203529057
Rh 15.605557847221084 14.022948460812708 13.104210987428367
Rh 7.842529268335072 8.896943157656624 13.96532128719775
Rh 14.816873276645758 12.201251482658801 14.79560804292683
Rh 8.847957004253677 9.51646032980851 16.305131138342844
Rh 12.850967786008075 10.908949250236585 10.822008073463879
Rh 8.878753136972982 8.799297110868642 11.653012372028787
Rh 13.64774584443168 9.931228686847502 15.278039438680779
Rh 12.497037234168019 9.215475876241221 8.903482490081
Rh 14.609641346222249 10.344725430797691 12.835983845679316
Rh 10.840922884317573 12.838536019360667 13.120275934851529
Rh 11.705566204018961 16.486126328384053 14.035103001599252
