52
Energy = -310.5347099 eV
Rh 9.544995268165714 9.830338979190755 14.477749221725347
Rh 10.605636960965722 7.560154475013149 8.974208419336291
Rh 11.883394403762427 9.874897909145629 10.134029397810586
Rh 11.024447233505969 12.256316401760204 14.288319344369075
Rh 13.446815080419462 6.2184996974151625 11.905916984372121
Rh 12.14015045738934 9.938756311194924 14.505800965577532
Rh 13.48174512653643 11.31091195503257 8.71999051168503
Rh 7.0675884926209145 7.568944692879708 11.455363805514526
Rh 8.465062605494472 12.937422931658146 8.532313025417773
Rh 8.620336056618084 12.03827191754882 13.324104305139057
Rh 6.3863892613035285 14.639713741958753 8.49963059751442
Rh 14.781189063879452 9.16280980150452 8.908211740594016
Rh 11.082919589970029 7.610897482424843 14.642828255429064
Rh 6.176503444000289 12.38972421015248 9.659301708892663
Rh 7.95459153403435 14.384004537601268 6.3527968024339785
Rh 7.8896774500468645 8.211539749961391 9.073275351680508
Rh 13.679121707677535 11.989214140425537 14.093571609228047
Rh 11.405225700812304 11.58629030731776 7.0916809375475225
Rh 7.773355599401254 9.742337361988133 12.582987950569608
Rh 9.560465254207738 8.95208061263528 10.832046806873747
Rh 6.445672709332103 12.033844111572824 12.093678613472223
Rh 6.325645539223256 12.456836036206184 7.070029036686788
Rh 12.55866240649833 13.92243161982941 13.010739586843707
Rh 8.555508358943475 11.320393804587866 10.677803044368934
Rh 12.686727474035418 5.598840769629544 14.292249471006722
Rh 9.87176228883186 9.879128506699573 8.228077285925693
Rh 15.11547044902609 11.014130316580818 10.71704345633787
Rh 14.80125738824608 8.419832140468213 11.439369924904467
Rh 10.755300851033082 10.69898701637479 12.325590604212724
Rh 10.712423197461845 12.113863493078556 9.419796272865467
Rh 12.385950410679511 9.13409566439648 7.726560584302048
Rh 13.64483104662429 7.890939734951673 13.960213702324694
Rh 12.506399157594553 13.68736228227969 8.352040371420381
Rh 8.072981861947241 13.977819704523691 10.798151524441183
Rh 7.416677027989002 10.54394758111156 8.279182505194804
Rh 8.875563364154234 11.670688327141809 6.446350800961242
Rh 11.616672999292172 5.501316785126791 10.109155433755733
Rh 10.339765660860486 13.890110032735937 7.041866347357744
Rh 14.888064635136482 13.313667684949602 9.461972281801726
Rh 13.050700578922864 7.613269660387438 9.810389884938854
Rh 14.847275499666491 13.241334247081952 12.041274420122045
Rh 13.486740264385714 10.214713506100447 12.388638508904105
Rh 8.821228612868813 15.443896820197931 8.539240562763753
Rh 9.19204989697121 6.356731121886157 10.728913351416498
Rh 10.682858622900973 14.68499027933133 9.948599261649216
Rh 10.313939978873135 13.270970926166347 11.945887171344786
Rh 9.13135631996203 7.662732808932185 13.068481206988048
Rh 6.31567929039005 9.871690891722011 10.454434042642069
Rh 13.070868757169434 14.756685162177725 10.613332845992987
Rh 10.954765564613181 5.9146926695973825 12.498681555775054
Rh 11.76878545245324 8.24295639110327 12.20681716502295
Rh 12.654616367945291 12.289785011104216 11.08712375738755
