50
Energy = -300.59249729 eV
Rh 11.984455798716604 12.219830341065204 7.733466480706365
Rh 12.829155060104787 10.417316689961355 6.203344250525179
Rh 13.344766689780124 13.554589214208109 9.47675093898864
Rh 14.370530525487359 11.48968889166778 8.166735261126014
Rh 15.444203193238367 12.437711431056282 10.363376912548869
Rh 10.281321865372984 10.934199506605733 6.26397639207658
Rh 11.202984171439931 8.468337857097458 6.8680250713164614
Rh 10.675724179441147 10.101259983103459 8.709493392817178
Rh 13.262760101445865 9.121989988033379 8.29538736129964
Rh 11.33034345019749 14.606008063798127 8.353607788241316
Rh 14.157537949176719 7.392517511074874 10.030832899107102
Rh 13.762627216726925 13.782813552568483 11.984432991114941
Rh 14.899475506896314 9.890275305347192 10.1574539902248
Rh 14.245991861312142 11.259332798628993 12.214999022632046
Rh 8.759386282888903 9.167850911180192 7.50047221723151
Rh 7.762286588609129 11.434307335330105 6.885007414338714
Rh 9.514747795907365 12.926887236596691 7.766719716236863
Rh 11.965332915203119 8.667903060410564 10.486022720187078
Rh 12.557088711707598 11.211607195121344 10.124764902281653
Rh 9.525810576048325 6.821582841036749 8.038267997949642
Rh 11.932916231099384 6.863058201331451 8.782976347859645
Rh 9.38330128919132 14.356341582151835 9.966754355221902
Rh 9.388114872102872 11.84705334235225 10.045733668235057
Rh 12.289713785012692 6.6123838051306825 11.860108036695271
Rh 11.695414158054874 15.10438789128064 10.857205551923522
Rh 11.324120024968403 12.790041128515856 11.727985614570903
Rh 7.875287090273319 8.046051444536255 9.60472892174034
Rh 13.914919779348617 8.655151239989474 12.248368553739885
Rh 7.259185328046121 13.079545582685862 9.050507673188674
Rh 10.01641189674272 6.935497358760345 10.60501986817569
Rh 11.6756775298738 10.28662171798985 12.446166393491723
Rh 9.573433129021936 14.519779743798248 12.524101197077279
Rh 7.351308617483018 10.526695105799652 9.157703451651546
Rh 11.919501286727778 14.791069079882334 13.504170260225749
Rh 9.572576788428597 9.438945997193747 10.97502524082414
Rh 7.3193350732994125 14.316758585768518 11.42289009605638
Rh 12.756737403639796 12.406752782797524 13.981246211735607
Rh 7.12778270282031 11.838195565453972 11.368944990021806
Rh 13.761889127886192 10.056334067264098 14.41310210703694
Rh 9.35051008373118 11.417781617054096 12.636157283009839
Rh 12.01098804388437 8.185107793011545 13.937268960914963
Rh 6.211018896647372 9.348988506419017 11.079066253109492
Rh 7.967418244837738 7.860332490139413 12.19637829724291
Rh 10.057893847603683 6.65627412239403 13.143661396200798
Rh 10.293667004061081 12.92879287577164 14.460193974599639
Rh 7.733626725043226 13.02062499335317 13.684970163820232
Rh 11.294270051588889 10.535513785330393 15.044386407426316
Rh 7.269196928037028 10.131686370635776 13.283207730047199
Rh 9.63479397485358 9.058417826334644 13.7311693360638
Rh 8.74529812510757 11.062644162100375 15.220502416260045
