52
Energy = -310.72745442 eV
Rh 15.43992480000103 12.918511008399832 10.679606367755943
Rh 14.887276990980643 10.860472527392044 12.20210201068051
Rh 15.169997247339651 10.707295860061228 9.602325519479045
Rh 15.152974124764215 14.988831256533572 9.09079148260059
Rh 13.57642433220806 13.195304995642005 12.618549459032309
Rh 15.523728709698407 12.714329270491639 8.071945791236775
Rh 14.751953887387858 8.568869347153054 10.832807790809214
Rh 14.324596946334395 7.246840328680855 12.822935649234514
Rh 14.873640440039674 9.16658208841749 14.368750425025802
Rh 14.78245202256237 15.27131316074244 11.571527529813189
Rh 13.672651838085388 11.392102642466067 14.486561180850385
Rh 13.788362917904013 15.423145140739889 13.918679141518261
Rh 13.203640786077832 13.777521832996186 10.078342298795093
Rh 13.613649555718801 5.319510534053753 14.135079268735936
Rh 12.285869732957423 7.777974628212465 10.985772196641955
Rh 12.949274884696422 14.365879447808076 7.6969877126641775
Rh 12.565329775834401 11.22311370308541 10.881512987179564
Rh 13.19033841399877 11.920895958525657 8.346919725075965
Rh 11.63152213036269 9.943183992093255 15.220888584712153
Rh 12.982086058993392 9.423366085123027 9.16781330587899
Rh 11.144413119646723 15.152597876464696 9.459018577487592
Rh 12.714644561314802 7.677337328162124 14.782058668404373
Rh 12.272108578936962 15.540261218334729 11.896607350169367
Rh 12.808491968636666 9.447946501891614 12.860612830151428
Rh 11.03965658898031 13.371690862792084 11.342020073647626
Rh 11.716551307551258 6.2454656811963964 12.906747441057924
Rh 10.552785056155132 9.709015388515368 11.695461722024154
Rh 12.252322047827256 13.587315535986043 14.844206718415128
Rh 11.222942659375171 15.854636566787228 14.104955622748761
Rh 9.673030661959414 15.534458221903112 11.687377469832093
Rh 11.399371367706815 11.71063681992799 13.263993798799449
Rh 10.297402303879124 8.13544577139637 13.807047662590408
Rh 11.272446236607117 10.51330360424946 7.588511623911084
Rh 10.137648734623054 11.422652223996135 9.706541416544566
Rh 10.304550317492088 12.25433067071448 15.681191247067593
Rh 9.339075824934783 10.377919460156836 14.2424737180173
Rh 10.661755979620011 13.113219764497032 7.862313435111674
Rh 10.5007027485682 8.715543217677936 9.340129694763704
Rh 8.143691338099924 9.2114821539938 12.237908427331346
Rh 9.062696993119523 11.856965034738485 12.06211280906898
Rh 8.944730401701879 13.850409517172269 9.892977787728354
Rh 9.8296045075685 13.869094069978997 13.697486844310014
Rh 9.780546478639044 7.2496812180912915 11.403165692611992
Rh 7.649163782888276 13.91442510163357 12.195169672203821
Rh 9.457945839852126 11.607402832999176 6.187377339167746
Rh 7.886546493906416 12.400649324891521 14.34498313627922
Rh 8.08284141944174 12.360552202384776 8.087609144105691
Rh 8.716258129215278 9.872597331094774 7.906569100884826
Rh 7.645042159909671 10.688323236543717 10.137950487354022
Rh 8.003170032274866 8.236630835423169 9.785788732178087
Rh 6.572968424453212 12.943505900785718 10.08186925256009
Rh 6.528551650388066 11.492876172569206 12.306287774687043
