5
Energy = -22.58258229 eV
Rh 10.200901894381639 9.250047942646818 9.605727096235592
Rh 10.761704890985367 12.3469061923218 10.967442074818992
Rh 8.86082040147791 10.890451090791007 10.744536690006948
Rh 12.111421860841043 10.684344693177927 9.877994976571415
Rh 10.886648899261889 9.964538968153237 12.008568899734568
