50
Energy = -298.99629216 eV
Rh 9.863001005114192 10.020963337319225 4.854008089492232
Rh 12.594141470801539 7.121351877573304 6.759361241105998
Rh 7.980262586203071 8.847214260502675 6.088989547860005
Rh 8.210207202183687 11.531306958286637 6.162187340623104
Rh 10.233641161568828 7.570130902983756 5.731696665741866
Rh 10.885322956252532 12.00003365980219 6.165291521030837
Rh 12.032056386664868 9.561778420492464 6.148892519233761
Rh 6.2505055145142 10.388053348790816 7.4171328228203395
Rh 6.058499679633727 7.767467555262557 7.338832917093877
Rh 10.654090993629303 5.402688857900282 7.1781274542918885
Rh 8.33356201349551 6.48405015607766 7.478509733136575
Rh 9.884424540661984 10.074114109981858 7.443660113297994
Rh 6.569778125391112 12.919818821644572 7.546687585786028
Rh 9.208991581351102 13.541044706598178 7.531187075073344
Rh 13.425861244299869 7.347622617198444 9.163067437464997
Rh 11.823829306063766 13.913232503211061 7.423995752793848
Rh 14.194985292037467 9.074702897317039 7.340969203463981
Rh 13.107342615682175 11.618064550897937 7.453795732952712
Rh 8.022524577489873 8.750853180445075 8.718133298043798
Rh 8.11446719439082 11.513616517940305 8.936191209104113
Rh 10.58642931978061 7.755573913429043 8.21651854901103
Rh 10.979295646853055 12.090737179801106 8.918784222780918
Rh 12.285331988685531 9.695771499572375 8.879662602849686
Rh 5.602051863746222 11.564850370111445 9.673160492900433
Rh 6.644460639795463 6.747707525666027 9.763936924049963
Rh 13.172137013409161 11.570622990990639 10.30824501494176
Rh 9.944367454843903 9.972819118757771 9.992765311598557
Rh 5.431863997561508 9.030744157530327 9.481755717602132
Rh 11.425010589366384 7.946524192469883 10.639770912381405
Rh 9.116107744368538 6.597388266216131 9.999956644942845
Rh 13.112954943862222 6.381297638071163 11.543668889627881
Rh 11.461686672750917 5.594755434030146 9.600254221229411
Rh 7.099366186081626 12.671875619755752 11.300723305852244
Rh 7.441078212622295 9.840802366033413 10.944825435620098
Rh 11.236980056903354 12.865466227373123 11.371217509294384
Rh 11.58614219330546 10.397182858314578 11.962676675023019
Rh 9.173602117289384 13.593878051821251 10.017466072219984
Rh 13.631062401008872 9.026598491619042 11.22213118892162
Rh 5.649599343873984 8.061602595461258 11.791293808565824
Rh 9.247619330336867 11.473824113412782 11.99464912653407
Rh 9.345092832880983 8.496324986256253 11.971837400388214
Rh 5.627869172233889 10.73869471423289 12.322473953866087
Rh 10.42059917975158 6.050407224018653 12.165030103318756
Rh 7.747494499353694 6.60245628179114 12.178798374086403
Rh 7.545054586526598 11.588780731682228 13.741283654981158
Rh 9.03457487224823 13.892103842803909 12.513289811696806
Rh 11.734260336451527 8.153180992430343 13.218990545353554
Rh 7.333104792810253 9.024250641832458 13.46104690867399
Rh 9.853183248888875 9.986762393996978 13.963027754501388
Rh 9.352002041930511 7.406785067241483 14.227920333725676
