52
Energy = -37.39688204 eV
Rh 6.305220965145554 10.671658385141674 8.425874977669194
Rh 9.044556647616405 11.335011585308346 9.20717701811946
Rh 11.62545530796354 13.540874856143311 8.320167198851674
Rh 10.869111281250966 6.167808297453026 8.976770509526123
Rh 5.916601252093528 9.910201603346616 12.882947250814983
Rh 6.5200314062454 8.444247534580533 6.133113770951125
Rh 10.48497904533233 8.766150955045592 10.166223499963435
Rh 14.653051625355143 12.210641286863458 11.220087831199752
Rh 10.957359423171944 7.857664245024683 4.812105052409304
Rh 7.508919115376841 11.872863369492546 13.414652199413041
Rh 13.435007259458796 8.106650716604356 12.203294094789422
Rh 10.010300938983697 12.808636120477063 13.0726900591201
Rh 5.431660779568301 9.189550698426778 10.499152783553805
Rh 8.233315546188363 13.206349448605323 11.164796630778644
Rh 6.150801025954143 11.609837390319855 11.020491254978294
Rh 8.581305721258277 8.47222092722955 4.804651324003936
Rh 6.1329893236072435 6.747719896413021 10.135550176092474
Rh 9.659873269626168 7.740440483124253 12.72415202391969
Rh 11.863352204746052 7.009098178513529 14.00477385972648
Rh 11.3813081083952 9.921029232269706 12.33234179165934
Rh 7.179227178897704 7.806351323724948 12.137917763825133
Rh 7.234347620645845 6.49133755228178 7.893029227507182
Rh 8.238774405321958 10.405674998461782 6.592286325282308
Rh 9.484521617895961 11.203896984040805 14.949099070714492
Rh 13.92401902994458 12.012097826188812 8.72970584685324
Rh 8.106934634197295 8.85830765153049 9.037906592692782
Rh 8.792952344881527 6.584134646429471 10.428231475056474
Rh 10.534383162306996 9.692065409199856 7.818872659920135
Rh 9.547101794147448 7.23361852325555 7.035794606989768
Rh 12.815939742915743 9.418708135947695 5.507423023558515
Rh 14.055715179863695 9.9091905394852 10.450107994011034
Rh 13.292873532646551 8.942572530946112 14.769249431642518
Rh 12.458540369478932 12.59926280923379 12.360198786822357
Rh 8.93328134656684 10.378473578202213 11.577061165303617
Rh 5.2648216960630965 8.168571721904364 8.208348357908124
Rh 12.346469772446328 11.655176042698484 6.645721419434448
Rh 11.951271148453575 11.276861189027477 14.519413114447357
Rh 10.656262315660408 8.956571887967147 15.00673698525172
Rh 11.52918046031764 11.217316014282835 10.032726740538322
Rh 13.49598258120224 9.625546087364436 7.973556736480557
Rh 9.959063624308813 12.565280105665458 6.7442048596690105
Rh 12.952978435930744 7.705972240871874 9.653361975449231
Rh 12.190603823105421 7.510393785580489 7.1899239524448735
Rh 7.475880778268445 12.770910782225311 7.088592696829952
Rh 9.049298324540963 14.068156424756088 8.781431967616106
Rh 10.416242926440185 10.422793940058234 5.166319768259676
Rh 6.537100206656593 13.324251606134704 9.275370078325468
Rh 11.476176520205465 6.487719801433266 11.462081407170853
Rh 13.194175085052157 14.013862718298464 10.237347616825202
Rh 8.089879235899781 9.318539533804818 14.040505884149876
Rh 10.669260311704958 13.85197681358426 10.762079390928024
Rh 14.069062309825245 10.623273348161794 13.091901533683993
