50
Energy = -299.36441457 eV
Rh 14.194613243667801 8.37990333332348 8.678521378420474
Rh 9.937463339377578 7.845225522969997 8.497098486581688
Rh 12.012941298521683 8.059834454188435 9.941021961533155
Rh 7.78758733579664 7.6396879542556055 7.164950060225789
Rh 14.133248191819934 8.145213623027692 11.415531253532016
Rh 11.986929678265879 9.402925991949255 7.567426769071291
Rh 9.65786498979727 8.245429889543571 11.049789454526186
Rh 9.814749428335823 9.025287744489464 6.274254975380952
Rh 15.55652354329775 9.942314899078394 10.191190420547988
Rh 11.77046608021111 8.301135597992237 12.53042234994295
Rh 13.906804385591316 10.841844218016975 8.50968145147004
Rh 7.536120192884836 8.142345605302744 9.64927041751288
Rh 12.478150053980226 12.546958338170715 7.007006424139068
Rh 13.932338222589626 8.458507570883768 14.008931235670358
Rh 12.786898201014239 10.310633501872468 10.92078014209561
Rh 10.533343036087519 10.24064217202948 9.453513789292897
Rh 7.306122347127917 8.68185474006829 12.128420878013682
Rh 8.18659028177444 9.96631469904561 7.999087260173853
Rh 8.132810007047231 10.493830634902043 10.56675421759628
Rh 15.026921153852879 10.382761944130834 12.609400918625958
Rh 9.422601594099733 8.75091688760957 13.629899895498278
Rh 10.404991174702483 10.54659588626523 12.07684165491916
Rh 12.1916732904681 12.447197079646623 9.462010751739252
Rh 13.624303683602957 8.889834302171732 16.545372189063883
Rh 10.23575898881253 11.303261024294594 7.2218759605313805
Rh 7.934161969499402 12.339652710683701 8.777032303968799
Rh 14.702542850348575 10.672093126434314 15.129110252162498
Rh 12.553374259786255 10.641638317653328 13.609837737087396
Rh 14.479731419808907 13.36271248282512 8.687846551732907
Rh 11.52927128977185 8.775187343888074 15.076123564733951
Rh 14.522130646896079 12.272582382125156 10.953109550098983
Rh 7.962917884012223 10.963949953896227 13.153851292615022
Rh 12.046612516824693 12.663377674650636 12.003329192139747
Rh 7.492875584459579 12.936133855604773 11.367526309368118
Rh 10.23538283212174 13.630537567196683 8.10987612656387
Rh 9.829797316918672 12.544949969536695 10.490598813938828
Rh 10.17012898336816 11.010317708220414 14.755826826977659
Rh 12.45003596163503 14.86438284252826 8.403608626368447
Rh 9.722985871237348 12.840714019499321 13.09299875655323
Rh 14.20576967077967 12.639524453212234 13.55184905817283
Rh 12.3164520560371 11.032056347924211 16.1689536960029
Rh 13.38615442871649 14.599555031547947 10.888614305908394
Rh 8.409183152477665 14.705006620168382 9.667085987084588
Rh 13.960864220647641 14.997944378855884 13.300990398234969
Rh 7.46105474676867 13.514185053131058 13.83245703181337
Rh 10.834615859418037 14.91110671747394 10.36455937486107
Rh 11.835780695411723 13.08043208027389 14.678406864853764
Rh 9.000785503291524 15.073748765557415 12.177142801664845
Rh 11.52732917045246 15.019486135631547 12.848583424248009
Rh 9.722408465997047 14.768427945665831 14.661787956154095
