52
Energy = -310.70768457 eV
Rh 18.030958893902028 10.244360681028056 14.772377961509337
Rh 16.955913354617238 12.06584266237322 13.444269001314172
Rh 16.98994212532215 9.594238170180065 12.566321158755224
Rh 16.351110528989754 11.85672140218583 15.919647115541586
Rh 15.876927129153941 13.699399929704793 11.853702945830756
Rh 15.597457271155902 11.030312401713523 11.04486516069983
Rh 15.717353821345974 9.412990123526516 15.379303843792968
Rh 15.26672255980411 12.981013380320348 9.490319618170222
Rh 15.114276089721043 8.200970412600233 13.173773149825559
Rh 14.776103816355288 13.25807562331235 14.244510336255896
Rh 14.71963709083845 15.471019882095657 10.280243991674082
Rh 14.850972124017728 14.792495314454055 7.719435835745967
Rh 13.541868836350167 9.529970366449593 11.563941190154281
Rh 14.734987495563432 10.798785957443393 13.523075248782433
Rh 14.561305569426468 13.60148444077407 16.735925769688503
Rh 13.123290281709497 8.915925371359092 14.701516706032622
Rh 13.374747623883021 11.065249100802683 9.551071040605196
Rh 13.572758269229654 12.520230476998782 11.905982224472634
Rh 13.81298379310058 15.091220997660605 12.650690943865591
Rh 12.16364923346008 12.776524739383978 16.63552893287726
Rh 13.697120655084285 12.535269623682131 7.491839863144148
Rh 13.05081494250715 16.38092963416603 8.550056216486464
Rh 13.896047451045163 11.117243213536396 15.93083432799963
Rh 12.904768469951575 13.844740590337143 9.704893311714825
Rh 13.489021361032023 15.330477233621032 15.172955704425828
Rh 13.134637489158528 7.12314649733093 12.321516228085278
Rh 11.450460371759869 14.077547525503268 11.84450167001721
Rh 12.17573644516263 14.496110671665427 7.027515110303068
Rh 12.152697530476907 13.372100603985709 14.201495938009463
Rh 11.06100980602061 14.989773747462108 15.931166285606535
Rh 12.08014264094855 10.954766682044193 13.481317041306411
Rh 11.467632992129216 10.384112457037766 16.067861382987427
Rh 11.60065639328806 16.178911542525935 13.44342940068189
Rh 11.289608667267725 12.423138810269743 8.371054022183605
Rh 11.446860635566491 9.197158853562032 10.155665316587582
Rh 12.27366782006138 16.3626261140753 10.960104254880376
Rh 11.276264332740675 11.58719478540771 11.003967211340251
Rh 9.589212866791646 12.198624357513328 12.814723359995773
Rh 9.97483954783122 12.415048097481028 15.39356766352798
Rh 11.284731636143567 8.636354361995698 12.731329464343695
Rh 9.6554747749498 15.78428296784399 11.303371139764044
Rh 9.466301884305382 10.950422435278623 9.26340285505195
Rh 10.839251283176761 15.197667836448668 9.06690510249311
Rh 9.668240688764675 14.585903314190002 13.8774749483957
Rh 9.733439851507892 10.013696150444769 14.230674556979979
Rh 7.898700396588866 14.122313433632076 12.133042930102757
Rh 9.38223287758737 9.828054302114138 11.597075271055628
Rh 9.519119789720127 13.41010685374921 10.19937342165807
Rh 7.483010488901242 10.680643204505872 13.311061887150588
Rh 7.691949881539788 12.996865066893058 14.465764554750677
Rh 7.708718698961925 11.757592136454367 10.97961438251719
Rh 5.9657811320497025 12.594597580524976 12.620655589887583
