52
Energy = -311.82393977 eV
Rh 8.769028116876322 8.119770280334645 6.177723244556979
Rh 11.827636335216392 12.433216269589458 6.440484455437937
Rh 13.898796258765335 12.227650118153363 7.8668429731670635
Rh 11.366206649168273 8.127334435090063 6.16707984417662
Rh 7.808910960473405 11.071623051929231 6.903344298284544
Rh 12.80576542087385 10.046252123207012 6.7905819026936385
Rh 9.554728994292281 12.825311614659007 7.399173398924962
Rh 9.344206005926189 5.559296292168977 6.794957508996748
Rh 7.3936340218988965 13.281147347562394 8.817174984170334
Rh 6.289643829605049 8.853534206890233 6.892394672948564
Rh 10.323331256820376 10.302993101990799 7.069585814687953
Rh 11.369653744526389 11.99187079399158 9.003090884949659
Rh 11.586838228747759 5.230874942302647 8.328930732741044
Rh 15.577481167078679 11.088759218058657 9.467100139243335
Rh 6.139025758534113 10.73503347613948 8.754577534498722
Rh 12.339017336643177 14.251944963129677 8.754169174609062
Rh 13.225190399377887 10.182364905720068 9.204912825141589
Rh 8.732266340044294 11.342527985168639 9.49019185377179
Rh 15.002132239849779 8.554617903677268 9.858990597005459
Rh 9.791664642320455 14.395659086371234 9.405660529471769
Rh 9.119758362855753 5.359349732180433 9.407870844019396
Rh 7.381853541892548 6.780538385083034 8.054169759179752
Rh 5.5315220525756486 8.099406105511846 9.267449283913066
Rh 10.279949692874924 7.3234129729551745 8.231779000792308
Rh 8.353855849563534 9.059401017096182 8.43488774428392
Rh 12.78784356804181 7.719363244141947 8.577372628127494
Rh 7.121427325043646 9.379359351520321 10.702956151747909
Rh 4.799800321244925 10.279735706243915 10.944504947671236
Rh 11.343613560136651 6.4070309879084855 10.573438673774538
Rh 9.131792848158497 7.772655892477824 10.538416873145756
Rh 5.377347881231503 7.947186944835607 11.927540078224666
Rh 7.031732091110743 6.4051357476633575 10.640836339751093
Rh 11.896342302899656 14.31569450844356 11.29921999663186
Rh 10.069856124739529 12.712843265957742 11.190080717947573
Rh 12.6821880939531 8.429037098578522 11.109797093289869
Rh 10.75701328886534 9.490355775343174 9.506775117506034
Rh 6.693137851291462 11.990050246011242 11.01401819476654
Rh 9.241097724435887 5.761950297525564 12.060406021320537
Rh 13.584313141830226 12.664393747643164 10.386946133166232
Rh 14.354158286726861 10.462142119155427 11.612267366428819
Rh 11.854528967685434 10.915472917421166 11.420437499326345
Rh 9.416740580949863 10.081570381701193 11.78244907163745
Rh 6.539373910073715 10.22600612490194 12.988918912732768
Rh 7.991967826773708 14.066303898525629 11.311783938170478
Rh 7.852652316203388 7.898725798180804 12.766605494852898
Rh 10.539396803594293 13.657554802899972 13.452012391595845
Rh 12.650941637912732 9.531355920652233 13.434194289765621
Rh 8.348155089770573 12.087767302492367 13.073089445800099
Rh 10.6315692851053 8.004057748169053 12.712778196223608
Rh 12.89678833069138 12.527334752026777 12.954887482838494
Rh 10.764139313321083 11.185160110672097 13.717022825945616
Rh 8.765955744342614 9.773836402879702 14.25409153887926
