6
Energy = -28.22183261 eV
Rh 9.298639173217623 8.764875473037467 9.069490950389273
Rh 8.03569812 6.577615644374344 9.069578332344255
Rh 6.772757066782376 8.764875473037467 9.069490950389273
Rh 6.772757066782376 7.306520766962532 7.0019052896107254
Rh 9.298639173217623 7.306520766962532 7.0019052896107254
Rh 8.03569812 9.493780595625886 7.001817907655744
