6
Energy = -27.07402691 eV
Rh 6.925247631102144 7.948859127598812 7.008988633518937
Rh 8.940210199827401 9.229373946238494 7.621259902594968
Rh 10.930882479128623 8.425136980178307 8.56623680700928
Rh 9.762694834086792 7.26974746494046 10.183849259850026
Rh 6.695837133765176 10.028567559725998 8.283697429710147
Rh 7.714999329199816 8.035151303138328 9.33420106614486
