6
Energy = -25.41792933 eV
Rh 7.662355776761051 6.087910914253635 8.862056989837196
Rh 9.374898626811888 6.4137036813844635 10.338962713143548
Rh 9.530765126327626 9.396286915014183 7.022691604681979
Rh 9.258491692072091 9.918989929543965 9.305369036305363
Rh 8.023222279511465 11.14771484720105 7.646718034633424
Rh 7.6094407345415975 8.462899046883543 8.26019786714504
