6
Energy = -27.50408444 eV
Rh 5.9907973947565525 9.127159549993804 7.888025027972774
Rh 9.790536999073794 7.542608049104912 6.586270753810487
Rh 7.419549555481324 7.16503242094663 7.275465305158548
Rh 8.476102274906534 9.284134007369016 7.807704483904271
Rh 9.394227191113568 7.129218874747405 8.991205685155967
Rh 7.21436826740981 8.037428780579685 9.736910426739536
