6
Energy = -26.74313141 eV
Rh 10.376273599098356 7.488092108835619 9.711396164859037
Rh 10.593358541593991 8.524888586271699 7.616409657119205
Rh 8.311506415943011 7.112667917468168 8.589045132059136
Rh 8.682051673842867 9.496776911649023 8.615459191271002
Rh 6.357259625766782 8.427816481485657 9.090490985044212
Rh 6.706552967703903 9.95165620787046 7.336527799627378
