6
Energy = -27.85692213 eV
Rh 11.690841284880923 10.958218397800499 11.70633107970613
Rh 9.784327166721342 12.471442293643946 11.24216951618248
Rh 9.36386218758664 9.99273315562458 11.180859237267102
Rh 10.775532190462826 11.197885550753412 9.311119857346567
Rh 11.48937721698954 8.897537536387254 10.221808713214507
Rh 9.454952218656606 9.109650004785715 8.828304086990805
