6
Energy = -25.94633621 eV
Rh 10.651041416070786 8.120737485989247 7.7721652730278015
Rh 10.3172150947954 10.031230510766921 9.163505973237621
Rh 10.0191836185939 7.808663233825942 10.101191923869319
Rh 8.322209244575284 8.690128828578194 8.62226206609215
Rh 6.413407122415038 7.894252815945008 7.125775579760957
Rh 6.018040794529831 9.197949642003165 8.959138207908945
