7
Energy = -32.79204215 eV
Rh 10.41249057195216 9.64489933797701 9.208095015297117
Rh 7.554345837338015 8.002018796999305 6.236191573745355
Rh 10.668752194561003 7.34561546765148 9.242644276576309
Rh 8.311703087995859 9.453720676126757 8.180813567195898
Rh 5.8511608855271025 8.846367469205568 7.601334993260168
Rh 8.613044279028806 7.048724067627558 8.195899873824885
Rh 6.789764808263807 7.841429464117667 9.513861779553627
