7
Energy = -32.29572837 eV
Rh 10.131112811733015 9.862356032671757 7.251046146348874
Rh 7.734681149766594 9.457411304521667 8.163533517155528
Rh 9.294988709730553 7.597700551202464 7.486141878809352
Rh 7.768329005179433 7.267435738167686 9.47356036850546
Rh 7.610846128320786 5.931589773486037 7.541804430783344
Rh 7.9735134062109 9.355845713650016 10.710789305229456
Rh 9.545942198769662 10.587074296011169 9.43253776287878
