7
Energy = -32.21925258 eV
Rh 10.170054068457226 8.200795171256194 9.107028086948326
Rh 10.83986388649149 10.389800045629636 8.500809978217617
Rh 9.632759805338752 6.16284789663593 8.172579106001434
Rh 7.487939491125145 10.69011361780959 10.498846962494483
Rh 8.658287954726717 11.117657902797252 8.542890143047462
Rh 7.940985738992284 8.795822212647389 9.097842545702553
Rh 7.37764107725408 6.756746604624069 8.193716132218697
