7
Energy = -32.26809993 eV
Rh 9.920533282539333 8.910095283684445 8.378749496866774
Rh 10.051263781348641 6.430551047336083 8.092218617502363
Rh 8.170058703861084 9.83783826078742 9.8894419665812
Rh 8.812933677404995 7.479490822258464 10.012110904291895
Rh 8.01184032405643 7.526817971501591 7.531460397688464
Rh 6.454175797610717 8.508603959770056 5.994577423291332
Rh 6.596306383707087 9.430413948484484 8.187331022103649
