7
Energy = -32.1750644 eV
Rh 6.513254809515766 9.794419398488214 10.106450607698223
Rh 8.79577950441656 9.127342541109796 9.861369785413293
Rh 10.587570741106564 9.24692425220583 8.244272598136822
Rh 10.074064836632393 7.132268556157842 9.457017206663949
Rh 7.041357403857375 8.656210903722782 8.157904525326474
Rh 9.128083879245974 7.610777537089147 7.280172533175313
Rh 7.060130501210666 7.624918718087834 6.079334835079656
