8
Energy = -36.40772078 eV
Rh 11.730883178453125 9.34090535684364 10.930948096443938
Rh 9.828328283313603 7.841668183324172 10.766211673862522
Rh 10.124068225653719 9.945769439321202 9.328140736443613
Rh 10.259786347717988 11.82143922850181 7.915184434617283
Rh 8.275171410749403 6.178953036322709 9.948789752035038
Rh 8.070787001586682 8.282205003426775 8.916351750990236
Rh 8.302005081233887 10.45468879465265 7.567162396364997
Rh 6.327855311271064 9.06281866300533 7.539561889079607
