8
Energy = -38.01837274 eV
Rh 10.752834856523839 8.545257951275776 7.239322598537024
Rh 7.211044790101772 10.886110525665742 9.0879535303603
Rh 7.593995664306133 8.448534806605903 8.770061372800987
Rh 9.487462223382137 10.198887363722063 8.494663511505621
Rh 6.708248422379985 6.562517457543658 7.630310602963062
Rh 8.48305397758593 9.698600531148678 10.782996506196838
Rh 9.063546209090253 6.87728062820103 7.518363431420197
Rh 9.984248786483343 7.922017610911593 9.592339620199919
