8
Energy = -38.69573812 eV
Rh 7.212999111225086 7.753127923258964 10.604353881289061
Rh 9.361971735065412 9.017425605693997 7.2493117811274805
Rh 8.82798972238049 11.099437102332976 8.507917040251863
Rh 8.359456662783188 6.94541635563523 8.550057591179135
Rh 7.302932549808891 7.815039210755214 6.441566323334348
Rh 7.102090313173008 9.230279881775111 8.532377492421283
Rh 9.306879405621775 8.995248687256128 9.858645883569853
Rh 10.827912499941911 7.446257233292384 8.558002006826857
