8
Energy = -40.73595364 eV
Rh 6.506078237667127 6.505926768357395 6.506072112667089
Rh 8.889017511049385 6.506053113950732 6.505868972534914
Rh 6.506233554347449 8.888861070652464 6.50623042934759
Rh 8.889163856642606 8.888989387332922 6.506081112667081
Rh 6.505866097534852 6.506049113950602 8.889012386049297
Rh 8.888813994041953 6.50622363095816 8.888815869041848
Rh 6.506075237667166 8.888986387332961 8.889161731642698
Rh 8.889011511049354 8.889170527464984 8.889017386049487
