8
Energy = -36.76532647 eV
Rh 10.182949701517975 13.921514069777185 9.157534238781226
Rh 9.160117969186008 10.468216355183737 11.149555735187297
Rh 10.693419855948909 11.899138177583048 9.857260118973661
Rh 11.811968160646044 10.273321995457147 11.450815341360602
Rh 12.889328816327925 10.754690965007857 9.295931536745016
Rh 10.823002055250193 9.411285547788061 9.410586474425052
Rh 8.028691638923272 8.61472306136519 12.132152560978726
Rh 10.31960325190361 8.236228469869884 11.542432433643686
