8
Energy = -37.57206161 eV
Rh 9.294572125746233 10.844024053051392 9.393476094745331
Rh 11.645434678212624 11.676564886028645 9.495090358485067
Rh 12.977609524737558 10.230670497712403 8.09325135818679
Rh 11.215564359892904 9.17537285837522 9.215588777809177
Rh 10.846848019586174 10.374007003564365 11.472319808023434
Rh 9.190360150907951 8.59970249434591 10.540748790912348
Rh 8.309131641855021 10.662088744798409 11.69949472698639
Rh 9.848433436998844 11.610571109134286 13.287421943965143
