8
Energy = -39.45377101 eV
Rh 11.067388257720761 9.351852140107567 7.789134418148735
Rh 8.60598224494606 9.030183152399347 10.738909649826667
Rh 11.14814463089283 9.370238490690031 10.257171947837655
Rh 9.786791840713171 7.569590513053488 9.083382764300792
Rh 8.501097349336169 9.005660835995712 7.497960605051045
Rh 9.360798281688245 10.743960994254863 9.073915106407556
Rh 6.910712506348428 10.067598634600223 9.169021837789705
Rh 7.243986029060003 7.572320038502067 9.178151818392555
