8
Energy = -38.24963368 eV
Rh 9.870043546780849 7.491908849564677 6.688047177000274
Rh 10.600931769625983 8.948589338434777 8.438306392894633
Rh 7.590507860756733 6.838596103929059 6.557228533187039
Rh 8.547553777032194 7.317258900959709 9.024265438113865
Rh 9.041725531618026 9.7546781147282 10.03972886935421
Rh 6.021003500404544 7.642070628192254 8.174571220925538
Rh 8.072239789790972 9.278458762898348 7.578215402655641
Rh 6.741440183467777 9.107499421535755 9.902271647927813
