8
Energy = -38.47290321 eV
Rh 9.924474291180681 7.559072711632893 7.831799277448195
Rh 11.108019774403651 9.71144688804768 7.327601096498889
Rh 6.29595654289876 7.043555282901182 9.976505279381973
Rh 9.129651010273651 9.80714408198869 8.791439375149128
Rh 7.4138227100570395 8.035731720723778 7.998612337481039
Rh 8.765698156649753 7.554189436302871 10.13122902689355
Rh 7.059843472686089 9.374429600572224 10.14719602321713
Rh 8.928585732807699 9.285084533018408 6.303587919855884
