8
Energy = -39.5039451 eV
Rh 10.57148905965571 10.452082333196744 8.901176958173618
Rh 10.115933648763713 8.119319435675553 8.000561959805228
Rh 9.803058241735235 8.47158181369944 10.42236161385686
Rh 8.290116646996312 6.8016866510036715 9.307328568884863
Rh 7.883995046764953 7.526673839969394 6.904350137810921
Rh 8.476803372295155 9.914237893111599 7.576914991223405
Rh 6.680997833948043 8.560964896903272 8.891404430255452
Rh 8.215453473119915 10.200103436376134 10.015086151377803
