8
Energy = -38.6316066 eV
Rh 9.384790210617481 8.15957086095026 7.880905444061342
Rh 9.305781811817438 6.921157138045796 10.111865879001204
Rh 11.478085016778751 8.068269366196533 9.314104749493215
Rh 7.3240253638972215 8.426605387161093 9.403264874010462
Rh 10.807087931285134 10.262160746169235 8.12778884447409
Rh 5.872107733885728 10.21136735774664 8.686135602845447
Rh 9.548474463086718 9.460955557004786 10.205866781135795
Rh 8.228984425724967 10.439250543819515 8.219404782072301
