8
Energy = -37.87361852 eV
Rh 13.055797626549628 11.387144386588977 8.248717226063759
Rh 11.310383819660888 10.613179407086074 9.390747340625843
Rh 10.37216909974297 10.477471259420383 11.70324243850077
Rh 11.087509872458902 8.346460138299614 10.346186102464378
Rh 9.57817874767435 9.113030525865666 8.490954065959732
Rh 7.939248792163203 10.826662461876905 12.192096996387022
Rh 8.644502389330986 8.927589128018248 10.810262226710728
Rh 8.90487019820889 11.252615763419263 9.810796038255857
