8
Energy = -37.5675149 eV
Rh 7.5997017554346185 11.698951749048259 10.23298064836217
Rh 8.813226289909698 10.011858797370898 8.840571274052902
Rh 9.999150981509809 12.104674614368214 9.84868820010757
Rh 9.332406349105302 10.275676078757463 11.313609438812794
Rh 11.202619147668353 9.769023589367714 9.669570440853485
Rh 11.55395262072436 11.302709534813763 11.677484331537606
Rh 13.014952951212384 9.301707840023598 11.27806237060923
Rh 13.776583154845067 11.198303443574671 12.491139598006708
