9
Energy = -44.69235961 eV
Rh 8.734098717533033 9.81472474518683 10.667565119846314
Rh 8.955842056064554 11.485202156749274 8.716304546908482
Rh 10.302296770739012 10.513864620250713 6.917015254083613
Rh 10.389989414077096 11.705808027626999 11.015426571296716
Rh 10.963161878816328 10.073721593564217 9.29575009518336
Rh 8.912664765554144 8.956145987868508 8.266279231422224
Rh 10.37420939256993 9.91304230541113 12.622122945592618
Rh 10.93144625385256 8.318789080266113 10.93300276223499
Rh 8.964872494598556 7.306088414681206 9.991420560767214
