9
Energy = -43.04509434 eV
Rh 9.921598903817685 11.578722729990245 14.054160318363698
Rh 12.42822037133661 11.88849442429833 9.061243380143788
Rh 12.385596900894283 11.341705928816523 13.719367286350245
Rh 8.781791180377919 11.278869379995884 11.861060602522539
Rh 10.534234706951036 10.963370713473557 10.1475028121523
Rh 13.53316795416055 11.363327799055828 7.218134735022232
Rh 10.972864083874766 12.697116892022795 11.988510859330058
Rh 12.760644111875164 11.027654002766067 11.28393306535059
Rh 10.784799228086245 9.75329814439066 12.459803409393444
