9
Energy = -43.3130356 eV
Rh 10.4503475441621 8.281632454585527 12.042808115380812
Rh 9.67925558147627 7.184842312652927 10.091414437701106
Rh 10.015053709184944 10.40128860155786 11.071691687326174
Rh 10.092676955093882 6.445783277126152 7.883097920599755
Rh 9.28683592441741 9.262808738741926 9.216269533018044
Rh 8.340231451728883 12.010718929241913 10.592961101622743
Rh 9.665886740926743 8.624218971524133 7.04955610195224
Rh 7.637642657738896 10.767739962487115 8.703836418210832
Rh 7.982603134909398 10.179409454366864 6.433195666197976
