9
Energy = -41.64113185 eV
Rh 8.227569066843227 8.697116855930032 10.030211957102273
Rh 7.2222245527260185 10.87125335829412 10.020521480370121
Rh 8.575497970278763 12.985116764718354 10.010757881952163
Rh 9.644828051552643 10.788657905429588 10.02133974444638
Rh 10.791601504565154 8.426942230917442 10.01691252809042
Rh 13.178482676029097 8.465841157360279 10.017764980518855
Rh 12.163626731881317 10.612422782737303 10.013988027588658
Rh 11.073962364614834 12.745769464386926 10.025180884465161
Rh 9.288094844997408 6.572767480225678 10.009210357791664
