9
Energy = -45.0634006 eV
Rh 11.745043908658284 9.044862096359648 9.40549657643661
Rh 11.186463350057856 7.7190918330779095 7.533809350786018
Rh 9.845884984211741 9.916859980364414 7.877212062106439
Rh 9.4795460292325 8.956632881611142 10.186130781598289
Rh 8.914344195181798 7.597189690422046 8.265581564492292
Rh 7.841014666281184 10.744482016127249 9.373550932133034
Rh 7.282932143383702 9.387139300425526 7.470917827113946
Rh 7.105895483922595 8.957377408863445 10.836438950609065
Rh 6.562590358588448 7.626966075750662 8.974154007071501
