9
Energy = -45.89350863 eV
Rh 7.598205001252458 7.299582679431992 7.660859005670054
Rh 9.935544293690645 7.047730116353682 7.940571737823424
Rh 7.400138380976298 8.088692730133305 9.911473364638272
Rh 9.797988535485644 7.840424778574128 10.201636905641934
Rh 7.9479448677388955 9.52670998135271 6.841097368953401
Rh 7.764379881414659 10.431595990464482 9.047369121650725
Rh 8.571230121791908 9.795968384536165 11.359763304599127
Rh 10.280512162598933 9.266932995143298 7.132588147825958
Rh 10.15600722327837 10.154312844010256 9.356591511424783
