9
Energy = -44.73251551 eV
Rh 10.303499836212993 10.517317940607429 10.870919552487798
Rh 9.61987652023616 10.975733557079286 8.384182862621582
Rh 10.017143366281543 9.163688219678201 6.6685570909658205
Rh 11.141170773187824 9.053985596993334 8.953597814745645
Rh 9.912120415176856 8.081209438903944 10.963290381282308
Rh 9.059928302379388 7.7177159592768785 8.507773459769908
Rh 8.536716402186972 9.603512027685515 12.39606782060388
Rh 8.05330816958868 9.619347538435111 10.012748831035559
Rh 7.686773602308699 9.598027108899853 7.573399574046162
