9
Energy = -45.2351033 eV
Rh 8.244375256141323 10.496980332938543 11.747045525345552
Rh 8.731256053403648 10.344009711612053 9.25303831573877
Rh 8.066261940083058 8.290826885248363 10.60701183693478
Rh 10.559116154559872 11.974453901078542 8.562175428308691
Rh 10.414245769044202 8.60586021033234 9.670026759560967
Rh 12.267671277136996 10.212025757545403 8.992015924243914
Rh 9.953617655549943 8.734706714234207 12.170547901110213
Rh 10.587762664673606 10.783802536112645 10.808081387987713
Rh 10.395327412477124 9.776968133967538 7.409691103839288
