9
Energy = -44.11543828 eV
Rh 12.784746510396285 12.779323192905967 8.685137369075836
Rh 11.315792433323333 10.971107716469035 8.600263152750545
Rh 9.79115280315942 9.135012020722526 8.897666805867043
Rh 9.397631428108399 9.807727663881202 12.392795842947091
Rh 11.391572738033009 9.668940364040541 10.810266827751843
Rh 11.685096724189608 12.158513071053473 10.770329216211653
Rh 9.400296460271521 11.23974842620679 10.283264161364514
Rh 7.825763977946817 9.22120869002904 10.5006537858684
Rh 9.727971969935464 7.721136932425767 11.004395275635813
