9
Energy = -44.78883394 eV
Rh 7.108643851700958 10.508674179008963 9.745538417855126
Rh 7.993914366584784 8.173125411203735 10.276258656499166
Rh 9.155334966844316 8.444422080980448 7.268616011288816
Rh 8.15857093463151 6.404077370548443 8.44260344182776
Rh 9.520289004715016 9.935911341273112 9.330090833668185
Rh 6.741341744973579 8.614988985125944 8.13713900607859
Rh 10.232293057084425 7.38745638864925 9.336323518209761
Rh 8.023295212647527 10.698351469310003 7.407678501988331
Rh 10.280019852421322 6.2913742996622295 7.046599136711853
