9
Energy = -42.78486395 eV
Rh 14.122339805847536 9.104075577558936 12.687846992763877
Rh 11.843248495942479 9.449942662522815 12.214147167505994
Rh 9.630829621840293 10.017544763107141 11.475342353829262
Rh 11.532913076047464 10.369209908502201 9.779140364664874
Rh 13.56385089714441 10.88920149609646 11.173758807297371
Rh 9.983707211417242 12.257510855083789 9.647191517991326
Rh 11.319022452990133 11.951349449910214 11.667181472841907
Rh 7.880544293647566 11.107199432911976 10.365539020618625
Rh 7.8395192502309134 12.943334675423483 8.922639554081165
