9
Energy = -44.45608013 eV
Rh 9.1007135 10.387492821259293 9.641994538832943
Rh 7.71674237334939 9.1007135 7.859063081309465
Rh 10.48468462665061 9.1007135 7.859063081309465
Rh 9.1007135 11.115826854574705 7.260629068736612
Rh 9.1007135 9.1007135 11.788825991321644
Rh 11.212133734577993 9.1007135 10.297111027280517
Rh 9.1007135 7.813934178740708 9.641994538832943
Rh 6.989293265422002 9.1007135 10.297111027280517
Rh 9.1007135 7.085600145425296 7.260629068736612
