9
Energy = -45.03812757 eV
Rh 9.82538013265867 9.144034475090496 9.212911162070979
Rh 9.26420096459237 8.882770746914417 6.777830925167037
Rh 10.62375749116357 7.0965815855423555 8.061488683054943
Rh 8.607793571389506 6.976381001566554 9.643992341118272
Rh 7.773767599379107 10.278096895985422 9.506889244451562
Rh 8.4747054772416 6.397587416416513 7.072700574321323
Rh 7.123331472943964 8.23769229059723 8.003779561490655
Rh 7.4845405760045765 10.534020378992079 7.062908695422018
Rh 6.709876908014977 8.262433927299636 10.478575024770823
