9
Energy = -44.66026447 eV
Rh 8.81634808207572 8.079147351090585 10.273312363401695
Rh 10.299458172261344 9.298320632271526 8.537893435434574
Rh 11.351250905686863 7.741525774414209 10.044253455070818
Rh 8.333954921648404 10.54160252491998 9.456793739943512
Rh 6.29969917668316 11.089591753722395 8.220557758650255
Rh 9.933973257664087 6.006940610773532 9.250655209677337
Rh 6.8681124557827635 8.749415079491527 8.619174865167896
Rh 8.8746887784299 7.552627477270166 7.739389446637334
Rh 8.315175124767043 10.033836613950156 6.950173638192497
