17
Energy = -32.91790867 eV
Ag 9.652853448486388 9.979915979083621 6.852449609256638
Ag 8.545011251485985 7.543089601944829 8.401712718758061
Ag 11.273748873501608 7.663633456122875 8.06167158320365
Ag 12.392548963114539 10.16187070056905 7.811951167762133
Ag 8.11122270781602 11.976642783519969 8.47605883228756
Ag 9.940700761909765 9.935778950178676 9.574971991927995
Ag 10.795383395040375 12.365219206053503 8.140850558863471
Ag 6.966205243085887 9.65359153071543 7.625499329445538
Ag 9.645932070177633 12.472929697124526 10.823847218234166
Ag 6.38267318693206 8.434033695112198 10.0327035856689
Ag 12.612560265006032 8.77575920540693 10.240682368698849
Ag 7.800124222579735 6.132926923503 10.687528112275608
Ag 12.247273704763945 11.52000861503834 10.433000089731655
Ag 7.362593017009232 10.848596844611821 10.912358907067638
Ag 10.329105945265605 7.298803971765172 10.707705034752527
Ag 10.765154018882304 9.792986341718992 12.181822607625431
Ag 8.270565578590725 8.537869151178517 12.12884293808765
