45
Energy = -97.47737080 eV
Ag 14.017517029358846 9.349516199250273 13.093481538462086
Ag 13.231157522339238 6.828216528688752 11.811035405106564
Ag 16.294128648104657 10.696889796162507 11.958915516615194
Ag 15.543467594314253 8.14271452755827 11.047449814662086
Ag 15.37594804911586 11.202030820141681 14.664755922824162
Ag 13.575306070462165 7.659635243924512 8.946318560758314
Ag 11.410966073197882 8.289353585990865 13.547730259614292
Ag 10.573979406727885 7.012157862621542 11.164471340176785
Ag 12.560074375645776 10.495647150217017 15.28462389239166
Ag 13.398563333145916 13.092977695358291 14.216893933357538
Ag 12.389510618690329 9.315777032874816 10.714366451457707
Ag 15.92756823102332 13.344771255636601 12.997686009731044
Ag 15.01142150845054 10.259900993555888 9.389606651127783
Ag 10.695261769718288 8.072930726555745 8.543683679124975
Ag 14.15510344495853 15.568535238671172 13.187898438221705
Ag 16.166061828602448 12.935162654825302 10.172040788865058
Ag 9.634336200642469 10.192327077701817 14.704775232730814
Ag 12.576546942585363 10.135616682502942 7.941134080512001
Ag 8.604877007942243 8.315297355638593 12.81646517852221
Ag 16.38499726123668 15.533301808545444 11.411682685203951
Ag 11.651612448288422 11.034874721016276 12.78806531822395
Ag 9.487274283073495 9.66462033502099 10.47305217858287
Ag 8.018915676372341 7.2938424404542195 10.16231010850894
Ag 10.71386942839774 12.766278374717873 14.835745820753612
Ag 13.933447219243222 14.708033695950146 10.535960175787123
Ag 9.794417881273212 10.676878271170754 7.701998512664901
Ag 13.748341770454815 12.652195793366662 8.614663998123577
Ag 11.156929233879751 11.874798399458923 10.00546224659817
Ag 9.128040862762715 11.865005765706625 12.242174269437363
Ag 11.649245529453015 15.384266167704302 14.405618819000802
Ag 13.802774263103792 11.88597435114833 11.368522507381394
Ag 6.988091829652222 10.471969376539837 13.647922622155175
Ag 11.626873250797034 12.57107383600679 6.861577698277962
Ag 11.613515177000034 13.904631813863984 12.03021917622982
Ag 6.692832985498722 9.666669498995722 11.087337037563781
Ag 9.372704075864997 14.89719323018481 16.013190479808337
Ag 7.375347683516411 11.66994998704763 6.809223646958142
Ag 7.4586843158281075 9.3172264410698 8.362508063362867
Ag 11.539480195451928 14.479248448448814 9.123116144951414
Ag 9.090463282364361 14.60124342610244 13.264422566162985
Ag 9.121736143850677 14.169269193773339 10.554731951705886
Ag 7.770281865948848 11.871734212522188 9.626861180809934
Ag 7.918935490559598 12.688553172173496 14.959170536886642
Ag 9.197494187999213 13.534630631365824 7.818375260002225
Ag 6.726470325760688 12.977433962883104 12.20515536398192
