10
Energy = -17.70882822 eV
Ag 6.768157312838862 10.709251426169223 7.928556789265201
Ag 8.264120084581435 8.325961886956293 7.832106001013114
Ag 7.136293667056321 6.712420258059556 9.902095384001212
Ag 9.21502196892826 10.66650095440428 9.080493006620411
Ag 7.030550326598949 9.37568885022795 10.336063692202254
Ag 10.99101755670437 8.90863560475365 7.805618561672815
Ag 9.347045608521995 10.163728435503451 11.82219869734745
Ag 9.613742429303725 7.940370083019925 10.166155725171299
Ag 11.660866851353695 9.991317167241963 10.249981771571747
Ag 13.25147037524264 10.512855049618256 8.1650801628953
