22
Energy = -44.23657681 eV
Ag 8.013280382936236 6.422126742288173 9.614100313972422
Ag 7.543492538602861 8.163141131620785 11.68094358201292
Ag 6.662239077431558 8.98368607330127 9.148920828993253
Ag 10.15743060455334 7.5735765117649985 11.074335254374688
Ag 9.32902123794708 8.61437138694589 8.507251759715762
Ag 12.854537872563839 6.8604885935469495 11.127802433296704
Ag 9.258176827456317 9.80719877405129 13.04431877792718
Ag 7.50631663428 10.933641721806346 11.147706401897773
Ag 8.107288441724519 11.174859914278851 8.350001135596251
Ag 12.08167794744135 8.652746698679909 9.132900426352078
Ag 11.926833001206916 9.049014009872657 12.616215183001362
Ag 10.2778115924826 10.523169133557897 10.412196835753367
Ag 14.108735104613556 9.403641371219553 10.89236332928343
Ag 11.180967470211321 11.292220756297803 14.328707219517273
Ag 10.909364930551439 10.809706054437097 7.625347742038364
Ag 9.690189980022799 12.544157667020677 12.347818855115435
Ag 8.407684837525267 13.398617863592154 10.040496986271569
Ag 13.171722819006424 11.300844710309095 9.192217181485203
Ag 12.416940669767351 13.173474999076516 7.299977015256979
Ag 12.46869166824449 11.670436501827096 11.870316764597497
Ag 11.217348893423035 13.211572512695385 9.86967823650088
Ag 9.611416414059118 13.354342011663999 7.539830451508171
