8
Energy = -13.58996668 eV
Ag 8.939786567962523 7.428981792831714 8.325364862560571
Ag 10.665021935876364 9.745679400208193 8.645622809280335
Ag 9.328355436507863 8.482232531846996 10.902708904289312
Ag 8.455587852829098 10.980401659232543 11.406989683729877
Ag 11.30670400670621 7.145800953499388 9.600854040468857
Ag 8.95200415674288 9.736584292616268 6.555259025582352
Ag 7.817720390211356 9.943018477500502 9.034862330784453
Ag 6.555417589134727 8.160955930720977 7.362813061002029
