40
Energy = -83.69909996 eV
Ag 17.516571050933102 9.026385249243708 12.175587595140158
Ag 13.127383426802162 12.121578014200837 7.428746586728376
Ag 15.96476397546245 10.616281270905334 10.6042709211396
Ag 6.405808327987818 12.928553473559166 14.683416846261741
Ag 10.121206132555862 9.218423829967747 13.476796323954018
Ag 13.33532335711939 9.06864037788173 10.885505757197192
Ag 9.710205320199348 15.946848845728661 13.63785181078913
Ag 14.273557445023105 14.750032525541448 15.017783159744422
Ag 16.78011539439477 15.958191951292696 14.893180201628766
Ag 11.002630555845416 16.537652079245362 11.00552707716224
Ag 15.234350718639948 15.649561555989239 12.519023202523682
Ag 10.308837059972966 7.730623578000147 8.082458647843625
Ag 9.106000441249325 10.19035863951899 9.014116219035417
Ag 7.808171512166052 14.163839980850256 12.563199014721679
Ag 8.527873467916029 11.58825248262013 13.432739904537321
Ag 15.513573242881295 10.811956781929508 13.307405139770557
Ag 12.511156690463421 16.006826323820608 13.17004786577136
Ag 8.066339276482292 9.58973608202032 11.562870837230241
Ag 8.488091846025588 12.290220457715279 10.671436985300184
Ag 15.881312599340992 7.9534878263545945 10.115342702092892
Ag 14.594253401810994 9.814674877437847 8.370822409890408
Ag 11.834935905616556 9.971928678009323 8.631555706995004
Ag 8.995386141959216 13.650816460963714 15.241075840655451
Ag 14.960614053785934 8.08067224080826 12.86803166433499
Ag 10.580376496754058 8.427751999289582 10.780338057021961
Ag 10.570587819986244 13.912970891898787 11.85679378301606
Ag 10.911318934451954 12.584095168116665 9.238878966548475
Ag 8.101681055422999 7.55192421667055 9.733768947428889
Ag 11.072682071898216 11.102353358363617 11.645346699416866
Ag 11.610486507005174 14.252057590823316 15.127570375266288
Ag 16.428876585942113 13.300810458173551 14.155530147266763
Ag 13.141846445667 14.666427720621153 10.72667344319281
Ag 13.468329535563672 11.887531722318723 10.153484923296416
Ag 12.878884391758804 9.8372828186154 13.59653141120458
Ag 7.078980351488565 15.690819875649495 14.706764090809354
Ag 15.603834124136014 13.183090107009345 11.48832191923924
Ag 11.019569288887148 11.616820415412507 14.687890159361235
Ag 13.85676171518854 11.97390119851328 15.327380066820169
Ag 14.459756227056566 17.48502037694702 14.51487166137811
Ag 13.113738649241778 12.827770043055617 12.867234473367633
