48
Energy = -104.11390666 eV
Ag 18.81641174578592 10.532555064787132 14.59814791767347
Ag 17.490290214873127 11.051181004156696 12.301069507934814
Ag 16.752279714286626 12.39159393312018 14.779065188568882
Ag 15.739215409250637 13.236910153338439 12.118609722534343
Ag 16.25235031803662 9.430444675040498 14.319515742781546
Ag 14.62007848798174 14.265954292780687 14.478812119540711
Ag 13.693131492029973 15.256589752370688 11.854109861597989
Ag 16.185069229383814 11.398704922515316 9.860352034229694
Ag 12.499808873909856 16.17675234602127 14.212223975398691
Ag 14.290523707969296 11.39021343938555 13.892991069250948
Ag 15.568601131290759 9.197853175410808 11.525053998115704
Ag 14.611729501434546 13.860315572811544 9.6013009887174
Ag 14.441271449409856 12.388465641680122 16.546676525911096
Ag 11.71010026967448 17.270565438576575 11.670864657998504
Ag 13.82014183379491 11.543635755998224 8.21026853513129
Ag 12.213454995541438 13.315544688250249 13.297701202740448
Ag 12.610617856480035 15.994819526402967 9.289310892173472
Ag 12.26714834440853 14.206385384752355 16.20767093545497
Ag 13.671536902530654 8.553971646939674 13.462404076224788
Ag 14.929240139861152 9.04708608243483 8.816586738637355
Ag 13.648324320569214 11.593921659300497 11.16296317872618
Ag 10.103338402016416 15.358210885885205 12.937975776167585
Ag 10.097170731803109 15.99391686368127 15.718848724814528
Ag 13.067534145639113 14.022573801788521 7.263338927938633
Ag 9.813436297225827 15.813511127560544 10.192324008423235
Ag 11.723320777335497 13.582411728855297 10.359191945232345
Ag 13.956566912385888 9.565909105922955 16.0528853252479
Ag 7.70418489536194 15.188110376499555 14.424379496393135
Ag 9.78185875501158 13.328742946560352 14.995032618665025
Ag 12.90307352617392 8.690476580188221 10.728394646823471
Ag 11.037046852751592 10.851149625577643 10.223481479241196
Ag 11.057770613692844 12.099973649582516 7.7527418165783395
Ag 11.869176306310548 11.49506852089393 15.652857088841222
Ag 12.119479449822293 9.379322799437888 8.098224446449407
Ag 9.691454962918954 12.531389127727584 12.15317826126721
Ag 11.712453362591562 10.580074661576242 12.921742199638969
Ag 10.490888779028413 14.952317031111532 7.654604357462974
Ag 8.999260933521194 13.259511151762728 9.382421717748237
Ag 11.312518015492447 8.752195248972344 15.146715588464023
Ag 7.68888749307978 14.539184988110199 11.648741262939536
Ag 10.897869378630947 7.925248324367709 12.483387270839046
Ag 7.292403136075773 12.531290767622156 13.632957714033944
Ag 8.646826718165318 10.503126143415749 8.936335455283
Ag 10.147665335577452 8.203463687779195 9.791292366879006
Ag 8.737616160663215 9.712455346070586 11.793331079376582
Ag 9.266006281352501 10.665360094449646 14.428181906602761
Ag 7.117278236894369 11.841675401938055 10.882358916864579
Ag 8.665643653812795 8.001376917321323 14.087751140547883
