48
Energy = -104.33557134 eV
Ag 8.111850848664192 12.840049125640531 9.206425234693388
Ag 10.670314138531774 11.938138709415359 7.970636918623777
Ag 6.26022462456843 13.525356561499438 11.209391389160471
Ag 10.875704533854947 9.301505552897007 7.029304667791145
Ag 8.785105768766737 10.030622927376415 8.968880409515503
Ag 7.442129618282764 10.931702536683185 11.361247119193212
Ag 6.994325749905234 15.438341874946262 13.15343963782052
Ag 8.887791318914232 14.545516779552935 11.370622149968872
Ag 13.203509463749867 13.195347009034078 7.872646010637264
Ag 10.771199622265534 14.307384249252916 9.386331938225881
Ag 10.183429533581686 7.49303778344397 9.14254543889757
Ag 9.635566565387908 8.914177200346165 11.466266100601025
Ag 13.543881061356128 10.471290508080358 7.642434349084671
Ag 9.735106651255709 16.462011684700684 13.284792892435526
Ag 12.75599366887588 12.617393194362124 10.528079173268411
Ag 11.901105646152448 15.18449466955766 11.927340256529373
Ag 10.034342928799001 11.868848828163049 10.965087267715834
Ag 7.53786535589024 12.684165026256611 13.55883912709263
Ag 13.313078971110688 15.441919801780239 9.459228681339257
Ag 12.911619578115287 7.786159525513018 8.3903225888673
Ag 12.27730652970045 17.548970800643524 13.566753890329247
Ag 11.650360995419247 9.955004185795957 9.655706917145826
Ag 14.130652861757879 17.052766361018836 11.506964455948102
Ag 8.842547687765695 14.665837007908198 15.152913453036017
Ag 15.398144773018744 11.916476735263648 9.269537888319961
Ag 14.418067385291732 9.294505088900072 10.158751479525094
Ag 10.417859460736551 13.077487075065548 13.471776832980447
Ag 12.239765261145767 7.748412944004336 11.24500106205122
Ag 14.316590543698123 15.606644248206099 13.87602803681824
Ag 9.255095638619117 10.452721465606478 13.666116894756723
Ag 11.710085395657629 15.102736203455592 14.912687661150319
Ag 14.940904770114777 11.339918799968764 11.982612630650548
Ag 9.138237180310032 12.013105464802216 15.900691057810036
Ag 14.99884648371615 14.275349622771769 11.358090938205626
Ag 12.112618763028172 10.59263763886172 12.421505831506938
Ag 13.203456912244492 13.038212989574696 13.366538243819281
Ag 17.366262400810392 12.629043281273189 11.437212624185653
Ag 11.263975971532108 8.330110544170568 13.80972143607414
Ag 14.186290414343317 8.784893983598035 13.121078014814284
Ag 17.047480714855837 9.96735904096519 10.72923603554114
Ag 14.001907186557727 13.633558453049732 15.913929398831437
Ag 11.925357893785293 11.617652961872212 15.493640490842548
Ag 10.279610647974096 9.452844515706873 16.16524265316185
Ag 16.050957288263163 13.291858116319569 13.844396162182793
Ag 17.088052490570846 10.478378451118164 13.535760772349077
Ag 15.903865199135721 8.649728404487199 15.307200341426425
Ag 13.082977688858076 8.953868705542702 15.826146914811508
Ag 14.641301667929847 11.056473460381454 14.907179499938449
