22
Energy = -43.69645556 eV
Ag 10.513693340806391 10.559979081533493 14.389798055388795
Ag 10.8245846782665 13.11600270765431 13.284147729109131
Ag 12.520300911733331 11.068572132473168 12.499820768692452
Ag 11.034732584377311 15.556339840343306 12.065031614039365
Ag 12.860996150805894 13.69591971857157 11.30985719690288
Ag 13.36320563702711 9.07829261135726 10.602862306098444
Ag 14.750027099487928 11.562963812147203 10.996311267336644
Ag 10.975297242774392 8.80120747549467 12.05400531590401
Ag 8.601564945887043 8.684942077767726 13.440680962065
Ag 8.944198408401705 11.244341761504016 12.27341331130466
Ag 10.152973299262294 13.157422688255917 10.564194770771532
Ag 11.798631793224189 6.760567279219391 10.247993943438347
Ag 14.443733512829489 13.39401144199018 8.994172402442857
Ag 12.380438551802236 11.570083382325656 9.540457417180964
Ag 11.036932863373055 9.216899570017006 9.023606118102933
Ag 10.095439893667402 11.789317250989841 8.105487124753163
Ag 8.30250999958143 9.02333764036918 10.673617421102964
Ag 7.85361299710631 11.674467382411253 9.812419811894417
Ag 9.362718776292747 6.5660085676732765 11.677217184522563
Ag 9.324194541034759 7.034942677888967 8.942927281209414
Ag 8.471557188898846 9.510654067169485 7.911572576375821
Ag 7.533517078993795 11.97478921973246 7.104197820020261
