16
Energy = -30.68054226 eV
Ag 14.428910495009205 11.527858143793875 13.501774830992067
Ag 11.824755439140265 11.581410248165367 12.671042661559763
Ag 10.12128555505603 13.692808483698698 11.94690082902102
Ag 13.106880347744628 9.115434055622705 13.098650319058569
Ag 10.352613486296285 8.95767066762371 12.975193199659657
Ag 7.3788233267632295 13.103316147002841 11.549478255495087
Ag 13.961131669425562 10.899199819070345 10.853015085561736
Ag 9.32063354997507 11.101471231833719 11.495765721353228
Ag 9.080135036832107 13.078923136537465 9.322311867226386
Ag 8.907556296630835 8.655535710881036 10.217968833945015
Ag 12.85202695791147 10.151080368294611 8.416674163623725
Ag 7.284227088141369 10.91224009560738 9.716095222624322
Ag 11.694878819650866 12.284549506356674 9.928898297121469
Ag 9.925850757496093 10.602388063984646 8.47587274732486
Ag 11.650391459995857 9.263039299376985 10.642936831493705
Ag 10.912302039562213 8.01376628376877 8.248923197921972
