9
Energy = -21.06352593 eV
Al 8.065291829153129 8.633329118264378 10.015416206656752
Al 7.059303759511992 11.011759706666764 10.030279729709767
Al 8.50599960982419 13.127764859801346 10.003852160660493
Al 9.663873474567888 10.747480647011193 10.020924787395428
Al 10.786679348210654 8.439245308824686 10.026008313845589
Al 13.529097972335048 8.331674251258208 10.01091784436067
Al 12.314257034124546 10.699517216871 10.014384295080081
Al 11.064002867281808 12.959136915693758 10.0306206697354
Al 9.177382019948448 6.2159799756091 10.013483935861196
