10
Energy = -3.57838545 eV
Zn 11.908983281081843 10.663509431328865 10.96465726722812
Zn 10.725446757659917 12.428908831578749 9.320083350284198
Zn 10.96811085035094 9.847367458422458 8.444349173787751
Zn 9.650651560527043 12.036852127472297 11.676746462694297
Zn 9.414834440287231 9.284082438028019 11.943851195698398
Zn 6.898998572608829 9.989791271893292 11.22049495956968
Zn 8.447895501129068 11.126991938769898 9.351558626065593
Zn 8.784901079503763 8.416479973785776 9.489034071847618
Zn 13.713308457784306 9.91962488817817 9.013379071099699
Zn 11.279609499067199 8.079131640542451 10.368585821724512
