13
Energy = -4.31304117 eV
Zn 7.202541677467276 7.610506248463628 6.3295194176545335
Zn 7.443526374748614 7.625543149850341 8.953737855911585
Zn 7.632866214546219 7.65460165949462 11.510068978933663
Zn 9.846746161349738 7.603076705084775 6.141185393408951
Zn 10.050013109985471 7.530650461925202 8.756308207611111
Zn 10.182517350604023 7.5688308939522475 11.524655532127538
Zn 7.204421314836418 10.309747869513803 6.327759269015373
Zn 7.4447794553354125 10.296686684478312 8.952485483656133
Zn 7.633798713474695 10.270778614979681 11.508542433723354
Zn 9.848080457472436 10.313172328798974 6.1386225804163415
Zn 10.051468975793858 10.388503854314239 8.754136214806449
Zn 10.183472423943984 10.35367874945705 11.52283105330608
Zn 11.761481314609576 8.959936301771048 10.065861079429009
