13
Energy = -5.25714484 eV
Zn 8.551388836599662 11.122901459796442 9.52433988337541
Zn 10.84429542263655 11.332752466680384 11.098399704559604
Zn 9.762429835615162 11.441581658349104 7.046568281374753
Zn 11.70354844487498 8.954624940320913 9.96145060296012
Zn 11.748164806706438 11.215915824372358 8.678826795429474
Zn 9.156465 9.156465 11.087056073793551
Zn 9.76154116340034 7.190028540203562 9.52433988337541
Zn 7.94326712736627 9.524696736754315 7.663909195403872
Zn 10.369662872633729 8.788233263245681 7.663909195403872
Zn 6.564765193293559 7.097014175627639 8.678826795429474
Zn 6.609381555125026 9.358305059679095 9.96145060296012
Zn 8.550500164384843 6.871348341650905 7.046568281374753
Zn 7.468634577363455 6.98017753331962 11.098399704559604
