13
Energy = -5.45002459 eV
Zn 11.951991232977205 9.091131008642774 8.801584568835475
Zn 10.54416858114449 6.810815250375971 8.279470756956522
Zn 10.836147067964985 7.61984719753252 10.789748782388175
Zn 10.551549029367095 10.237369613763292 10.774483846626842
Zn 9.397492859176332 8.878288931353483 7.400176861946454
Zn 10.124788448549134 11.112765695807921 8.312541415147232
Zn 8.075501744638414 10.087436256926953 9.516283415069173
Zn 8.369155660754664 7.386970112855383 9.527289856399433
Zn 6.952314557421878 10.449480064646536 7.102828361610598
Zn 5.6566290804706165 8.4012425446704 6.23159579702715
Zn 8.563808708025142 8.74492813162209 11.696755611709008
Zn 5.555196947636803 8.531165007218716 8.849919748315644
Zn 7.514312933958014 6.841204179839588 7.080872059230289
