18
Energy = -9.07118444 eV
Zn 10.526506064102726 9.494749724291614 5.989943795802343
Zn 9.686618163705793 11.586786884760985 7.21319430396588
Zn 7.507261531743193 6.9930386430018086 6.707994134696022
Zn 8.133894699540843 9.386665889585247 7.537132098393808
Zn 9.947410764476178 7.425940249331411 7.556797030300597
Zn 12.018812340255025 10.592615441193848 7.824290600640642
Zn 8.183150738311816 5.504709012413871 8.687629517364552
Zn 6.655316923738703 7.912896693134203 9.102191420551664
Zn 7.907573938113932 11.549795430283087 9.069499115235029
Zn 12.800906054825342 10.521550668478593 10.365563462863776
Zn 5.795480645739556 11.015412580345602 10.39059112786509
Zn 9.16676492003447 8.888483878126445 9.97947088135761
Zn 8.100877625977047 6.680588296189792 10.997107265102342
Zn 11.596391151164513 8.461238166590332 9.286801516871225
Zn 10.35403534770089 11.207564835989825 10.010697264307446
Zn 10.381218837319608 6.198588261511811 9.88006959484614
Zn 6.979374376509137 8.999136948798336 11.47506572650205
Zn 8.069662236909442 11.391494756141116 11.73721750350124
