19
Energy = -9.24020173 eV
Zn 6.2509573350931795 9.480391235566362 10.839807949146664
Zn 10.786049774963354 9.018620569624208 10.890291222146212
Zn 10.698346684995114 9.018136004136975 13.520364251777822
Zn 12.11587894056478 11.530095618533577 13.369929852890534
Zn 13.838553725655547 10.755386857613429 8.912538436221359
Zn 6.863810438091645 12.02482731181958 10.401965922029502
Zn 8.562375825510566 9.705012674366724 12.133255566602724
Zn 13.044336885006505 8.298865175390544 9.716887764838974
Zn 13.027914475149597 9.365251954255479 12.250351335853782
Zn 9.580173181194002 11.326651305131609 13.9494399723696
Zn 11.295392378780019 9.935319231606083 8.558273969617499
Zn 10.844772563216184 11.75477859811627 11.03220675481422
Zn 11.987455540500987 12.648527764736274 8.752522388875335
Zn 8.822445893038093 12.913925482525238 12.020496143215999
Zn 9.235937319368897 13.264443589845683 9.440569359373884
Zn 15.238063457258248 9.385896882882369 10.718569653078559
Zn 9.699653990310727 11.660786651725557 7.513617088222051
Zn 13.33640928013753 12.003211699738328 11.122355550738218
Zn 8.810826003697205 10.23365206755825 9.569903636713784
