17
Energy = -7.90964111 eV
Zn 12.205681706073047 8.431032716621393 11.168152281219548
Zn 8.966060957227652 10.800159512409325 12.494858940369058
Zn 12.19724666874645 10.53390866705798 8.354481296142156
Zn 11.264046118443993 12.813418436533176 9.20752136739964
Zn 9.182746973541088 12.768345844956595 10.883715607920875
Zn 10.600211582924725 10.5059659709204 10.43261312594144
Zn 7.694441203567871 10.641938933092481 10.177058086298432
Zn 12.93669139550158 8.112614459938868 8.591125986468699
Zn 8.846797343740604 13.663588163880673 8.474424474166417
Zn 7.369252936651355 8.815489867901215 12.51756098444942
Zn 12.401337151380758 5.702115939153531 11.347896712060587
Zn 10.072696618650339 11.565556022083411 7.151545023604998
Zn 10.530299391557762 7.387239207418196 9.453231527897254
Zn 9.888395477856823 8.243336360088026 12.307618630615048
Zn 9.119206472879483 9.402415538078438 8.346034601139085
Zn 7.523985321488926 11.573607181073397 7.798277842100384
Zn 8.093182975470276 7.87325960658023 10.249599852479431
