13
Energy = -5.58635927 eV
Zn 6.833041922652719 10.455958663660954 8.017995362320066
Zn 8.823091318137118 10.420597167392518 11.807569460552099
Zn 8.35045790199216 6.507920518604056 10.128303534666728
Zn 8.650904219932992 7.125734860258583 5.816213370539218
Zn 7.224030837612446 6.0608774901940015 7.786701556864683
Zn 6.3789189779719635 8.264187626191546 6.611287888204145
Zn 11.11892952009314 10.700848577925315 10.678259427093801
Zn 9.934843337014376 7.436386939179169 8.295203210386386
Zn 11.422490693118753 9.572144864789285 8.363135720920308
Zn 9.003196293814456 11.279855539160645 9.240700495894652
Zn 7.588730611602705 8.898110197499449 9.850168883568585
Zn 10.14312393555906 8.268984709036474 10.854450808759038
Zn 9.108756100993123 9.588908516603029 7.130525950726007
