17
Energy = -8.41878971 eV
Zn 9.978709298129623 13.46758668592789 12.00645828094223
Zn 11.739906801906896 12.720462981310915 10.259357304827889
Zn 8.296092926566786 12.734697617712062 10.330124738018094
Zn 11.241544249647642 10.099270439200811 10.301921592327353
Zn 8.442192723096413 8.317084265644437 12.949993542375942
Zn 9.896382875526966 12.4490592978137 8.272356858374614
Zn 11.264299341109107 11.363902145424408 12.605131827989608
Zn 12.254863807525664 11.233843386985123 8.238367932763458
Zn 11.818445792054206 7.652551827740274 10.1091886189049
Zn 9.418464416296562 10.216584806608164 6.645818171209189
Zn 11.767777370389409 9.124253123932915 6.8606055340529135
Zn 8.75890632981867 10.622927599422558 11.796835263214676
Zn 11.025950081782762 8.810757272690125 12.600108981021362
Zn 8.63912984259923 10.38273344482281 9.196131274285026
Zn 9.872522904162622 8.124279401357903 8.383511370694956
Zn 8.160480731202302 8.210299654785635 10.386409878813188
Zn 9.899415068604997 6.66623888179362 11.521858701893821
