15
Energy = -7.19108331 eV
Zn 12.177283617282681 12.384117217920869 8.324288441427713
Zn 10.020977231384418 11.028659019508336 8.93861672446917
Zn 10.451210128594278 8.489918700837258 9.962535661118121
Zn 13.638121088789985 11.298577143116292 10.199441654578127
Zn 12.759052516175812 8.946504109064044 11.077606490459422
Zn 8.5366671391316 12.156802903283909 10.71663375367861
Zn 7.763286305128752 8.023197022669224 9.976303949435314
Zn 11.273502110223024 12.649275699802951 10.803617405574727
Zn 10.122707448008043 10.424432205093943 11.905510487318029
Zn 7.372138839216987 10.07078048391535 11.785089894299626
Zn 12.541874798854261 11.06432060330604 12.55724134257574
Zn 8.976869963072238 8.071007408544505 12.256959385167473
Zn 12.320200373147149 9.723128172409943 8.480313010258547
Zn 8.809506870695618 8.997587360578445 7.847882062257913
Zn 7.1645688540782855 10.59965944994874 9.095926804946917
