16
Energy = -7.47084164 eV
Zn 7.512506938473754 9.550279391331195 5.890445892879896
Zn 9.561324034528736 7.959534097004736 6.06560107096077
Zn 8.5995364756534 5.921157343049314 7.352765164519062
Zn 9.968748713382306 9.82495724866007 7.808294270482431
Zn 7.260077504796484 10.574545430329099 8.223223252377313
Zn 8.738137950658787 12.63426765163687 8.58478649211621
Zn 6.84464463529874 7.8610340892833 7.845715738229003
Zn 10.526237192162595 7.249627257523396 8.465651762087049
Zn 11.030275079581928 11.650724567046419 9.315360825053613
Zn 7.883957574791446 6.287727820212585 9.76781167734993
Zn 11.273542474226161 9.086706941366858 10.060768657473728
Zn 8.309313515321255 8.8100806549079 9.785804162758375
Zn 8.207376565864795 11.211442760667548 10.782635092493381
Zn 9.969184339602222 6.726906572621759 11.403388727428142
Zn 10.674998542765024 10.931421074535194 11.769817731325512
Zn 8.996026957079883 9.075475594011127 12.233817976653725
