19
Energy = -10.31664127 eV
Zn 10.997529215154376 9.24404369063027 14.047027897453919
Zn 9.963400600004846 13.137164229636877 10.631309
Zn 10.70684297455513 10.532447458642453 10.631309
Zn 10.285399795857016 11.783184488845965 12.966505612091154
Zn 12.82149747070375 8.975978849902843 10.631309
Zn 12.321597311179179 13.11648610685818 11.892186385165111
Zn 12.574402953122934 10.616505820901425 8.632803925817113
Zn 12.574402953122934 10.616505820901425 12.629814074182887
Zn 13.958975004972938 11.481037262189593 10.631309
Zn 12.321597311179179 13.11648610685818 9.370431614834889
Zn 10.374266262873011 8.015034810293201 9.344725731849376
Zn 10.285399795857016 11.783184488845965 8.296112387908847
Zn 8.351314398432734 9.33508530456654 10.631309
Zn 8.634182296907362 9.669981410122517 8.11404861526684
Zn 10.374266262873011 8.015034810293201 11.917892268150625
Zn 7.909042412590576 11.821342647860508 9.339998398158826
Zn 7.909042412590576 11.821342647860508 11.922619601841173
Zn 8.634182296907362 9.669981410122517 13.14856938473316
Zn 10.997529215154376 9.24404369063027 7.215590102546082
