19
Energy = -9.83745641 eV
Zn 8.476553579984792 11.83450174655436 7.150050468693941
Zn 7.877419150991527 7.534137582887977 8.701188504116596
Zn 11.051795572676593 11.240474099432408 7.1220217392658025
Zn 7.6243747783269065 8.606272853883715 11.01994552868288
Zn 12.056204760439158 7.55817244351524 10.39230959696032
Zn 10.413816747657215 7.288850394047898 8.373109191301507
Zn 10.01886320853624 9.931608923326078 9.942524473032936
Zn 12.074078919448013 9.269443382671568 8.336465628117205
Zn 10.142179541043301 13.048495838816104 8.730944314802313
Zn 7.614022993557073 10.759198634525008 9.316576538805315
Zn 11.449128191778215 11.351396866308358 12.036997812419141
Zn 9.278642392594735 12.380359284366003 10.957870839774683
Zn 9.15487922854913 9.380473972769124 7.433724656530966
Zn 7.398169593595604 10.892953059688228 11.946520764934798
Zn 12.191485145669729 11.626356781499931 9.561175661692252
Zn 10.203370404083177 8.994380592715826 12.392917684039071
Zn 9.374373659766004 11.242703836094641 13.477900173638282
Zn 13.097263444335136 9.67271607918767 11.24946478348403
Zn 9.585469616056814 7.039360730675564 10.839459843379176
