14
Energy = -4.80229212 eV
Zn 9.087622392127445 12.213903386536872 11.381123099545494
Zn 11.261358284276492 10.792531865291469 11.521638130669372
Zn 13.235367989050822 11.939035614748015 10.11574
Zn 6.996112010949185 8.292444385251994 10.11574
Zn 6.925242443996355 10.919777759628202 10.11574
Zn 8.97012171572351 9.438948134708532 8.70984186933063
Zn 11.143857607872556 8.017576613463127 8.850356900454514
Zn 13.306237556003644 9.311702240371798 10.11574
Zn 9.087622392127445 12.213903386536872 8.850356900454514
Zn 11.261358284276492 10.792531865291469 8.70984186933063
Zn 8.97012171572351 9.438948134708532 11.521638130669372
Zn 11.143857607872556 8.017576613463127 11.381123099545494
Zn 6.953028891068633 13.549748425850309 10.11574
Zn 13.278451108931371 6.6817315741496905 10.11574
