11
Energy = -3.89973503 eV
Zn 8.637428501717194 11.541556373230042 9.39223391480929
Zn 6.436339001429221 9.86069654856225 9.103767154743693
Zn 11.063014998039232 10.00578289095137 9.624601815122185
Zn 7.425569962411963 7.147146578806077 9.122273117634451
Zn 10.20188198258667 7.280650982189697 9.427457823082044
Zn 8.765462715063778 9.144381029043753 7.804466256483195
Zn 8.410064647963717 9.044424168217105 10.835051566820976
Zn 9.876755322093189 11.128614348909169 11.848733263233251
Zn 10.883447020544883 8.40850209230381 11.856321882259248
Zn 10.398352067356496 11.293913260705358 7.282280365415553
Zn 11.395466721231198 8.551571237070208 7.290601740874508
