17
Energy = -8.27707794 eV
Zn 9.383477639848364 7.793961297406838 5.8262017471582865
Zn 8.384984610450902 10.046508430761088 6.668319556335896
Zn 7.094511815445248 7.219747246031347 7.021026080452047
Zn 10.925643143384265 9.753274373367626 7.301162927384179
Zn 9.321047931560289 5.804457970006596 7.69758359183905
Zn 11.546718169589987 7.145919185895834 7.089632328557483
Zn 9.464153550573002 12.001256751271242 8.178227512378802
Zn 5.652485047754977 8.188427443726965 9.013463445824977
Zn 7.00707636174946 10.801731870646945 8.876033477611625
Zn 11.153007096674276 10.865474167591472 9.75336674814736
Zn 8.513473225100638 8.6639190738227 8.739808426116664
Zn 10.953181827493072 8.0349125404411 9.390939183312385
Zn 8.76194350770719 11.577601301759652 10.686695479425019
Zn 8.847240182943098 6.437000569457497 10.165210046247093
Zn 6.817093858146185 9.434802320741595 11.128229226729447
Zn 6.458715762100478 6.818160599876248 11.031665637428402
Zn 9.425804278963602 9.123402866680303 11.142992594537024
