13
Energy = -5.27177102 eV
Zn 12.71720681004301 11.436616761905801 11.464151314159668
Zn 7.837595189956993 9.118185238094197 11.464151314159668
Zn 10.277401 10.277401 12.14573390199017
Zn 7.742765438770438 11.834027988445705 11.382984792739718
Zn 10.31505236350934 12.471242115703975 10.913087090422179
Zn 10.23974963649065 8.083559884296022 10.913087090422179
Zn 12.812036561229563 8.720774011554298 11.382984792739718
Zn 11.208206689420997 11.179842205911768 8.97463549303431
Zn 9.346595310579003 9.37495979408823 8.97463549303431
Zn 6.865964743550231 10.470092768285912 9.470191498915584
Zn 8.758580531724094 11.953735822163718 8.52518933175256
Zn 11.7962214682759 8.601066177836282 8.52518933175256
Zn 13.688837256449773 10.084709231714088 9.470191498915584
