16
Energy = -7.46017764 eV
Zn 13.179987193005541 9.072273281945971 10.942996287809628
Zn 10.73489034223167 10.41704626570084 7.647135760700387
Zn 9.886837778435215 10.297580533727158 10.392335131278385
Zn 9.99779612457851 12.511937711919186 9.024961877348266
Zn 10.293120516107095 13.472389707362616 11.384262961401319
Zn 7.216856351229712 10.51856388011415 10.856512300176261
Zn 12.230321664287224 11.363915086078523 9.73253860304245
Zn 11.43506289890427 12.084771920128723 13.182143946269566
Zn 8.971443031997904 11.304906250683116 12.72297007976656
Zn 10.890844365206924 7.822817481726137 10.544828322396029
Zn 8.334918501963294 8.453071143499804 9.677154438767811
Zn 12.597975060347071 8.806240843239667 8.449735843589194
Zn 10.192582559261607 7.8550684012688405 7.963301944484801
Zn 7.815452968725298 13.004272229981119 10.549349504039046
Zn 11.058082706259622 9.559430522357104 12.539071245066822
Zn 13.68437910234375 11.500791958187127 11.979233284808812
