17
Energy = -8.2692873 eV
Zn 7.948331150958354 13.272015514452002 8.36218192984171
Zn 8.782181896482841 12.706311066769565 10.701721418199574
Zn 13.3426441810722 9.75781084678303 10.54094427256306
Zn 10.233674570503721 12.079992322043529 8.435748416221104
Zn 7.117077208430685 10.608189661512485 10.725609766235126
Zn 12.522903651449983 10.731222891584805 8.337094482153717
Zn 10.94535193778054 11.0527204281769 10.680794431405834
Zn 8.747641968274321 11.086525960494575 12.643087080713528
Zn 11.676775925626739 9.591178302093969 12.691891427105103
Zn 12.478423815495695 8.209893511085493 8.468734731492335
Zn 9.288010241358116 8.907154911522467 10.975931258221706
Zn 10.013359538050457 9.435867761407007 8.47879358738026
Zn 7.733909219823238 10.76355300402668 8.170646222018949
Zn 11.677237153738309 7.7357296692315956 10.984415402419785
Zn 7.039714255934262 8.540691099466125 9.144719509391356
Zn 10.2444303730469 6.901276450176361 9.082558835158775
Zn 7.802458215213864 6.128825529919042 8.963789663180842
