19
Energy = -10.10567315 eV
Zn 7.074964347525087 9.952688863393513 11.688558163491317
Zn 9.231777164402658 8.466127325269104 11.829328801973638
Zn 7.047040132911574 8.319889834536818 9.780021551420342
Zn 7.945097356844153 6.6675347594941385 7.878600818377687
Zn 7.55559939493953 11.12439483094052 9.06451805462887
Zn 9.607227391652971 6.941979615409781 9.738094571396326
Zn 9.71529496253791 11.038598148801192 11.8014354552755
Zn 7.6360441793083265 12.483372232069945 11.234182439011793
Zn 11.726794009411199 9.640891417212174 12.592976152901405
Zn 11.59229536700788 7.371500952139167 11.458340298925417
Zn 9.687815374798292 12.873777573967546 9.78467210066933
Zn 8.140054093022464 9.183629537658225 7.493642660069121
Zn 11.82440293905847 11.348408326106783 10.383383919130402
Zn 13.2556137951906 9.203071529105218 10.516674072572266
Zn 9.855882514849233 9.664944408667266 9.467234389779675
Zn 11.462987330844808 12.781114988996876 7.974643327377683
Zn 9.53132494261589 11.353992914566383 7.154702453865885
Zn 11.733320529221778 7.945159893978378 8.822613451433767
Zn 12.085497063723617 10.278912545324474 7.978769386956582
