19
Energy = -9.83535878 eV
Zn 7.134632909488387 12.388951771628937 10.976687290390647
Zn 11.833510516858528 12.120735806756052 10.686471031817014
Zn 10.043978175983376 10.128290214110672 9.981712454780551
Zn 9.517367509819955 11.603727484325791 7.734473793313122
Zn 7.441890308190399 10.440950002168881 9.368641276319757
Zn 11.39403480672814 13.21932141613851 8.359018462452596
Zn 12.589779998693094 9.32345113619097 10.410463541625719
Zn 11.978933311523733 10.635562600066727 12.691272551320194
Zn 7.89583910282535 7.859893850027422 9.513208244314425
Zn 8.853756868882266 9.216494235445335 7.441087225973906
Zn 9.429328525672046 11.638587294480516 12.129500767682037
Zn 9.697925464391782 6.850510458812077 7.95798203979639
Zn 11.510007232950054 8.097199339083918 12.494663403329852
Zn 10.509355659064727 7.479963612975106 10.289627332005894
Zn 11.461084223053362 8.69328869337466 7.953840989072173
Zn 9.788661134706603 9.667236770785992 13.709474047277892
Zn 9.378217553738153 13.085203898684355 9.932561128644608
Zn 8.449278274286423 8.86868087199375 11.747986315908888
Zn 12.472164560864261 10.937843795915645 8.304703657764238
