17
Energy = -8.42056912 eV
Zn 11.661977324345466 8.754877758657408 10.01226146685886
Zn 11.47660641820063 11.438482275936341 9.591692074685055
Zn 10.197105355093903 9.774558998557172 8.040326021030804
Zn 13.359840929792757 9.986418258132122 11.468369433283678
Zn 9.340544859577175 11.951031159755265 6.928873150711322
Zn 12.28214335012721 12.24568598149737 12.00734177314703
Zn 11.038632385517948 7.275738008485722 8.003185261495897
Zn 9.486924248670642 13.179758770819163 9.280171412833768
Zn 8.515571282704167 7.757289782939347 8.208360176632402
Zn 9.288983668823494 10.208686558810776 10.746666030377416
Zn 9.737677988081616 12.513908684018716 11.782248465890548
Zn 9.979847436323656 6.506972720264309 10.205850878074129
Zn 7.196041757175515 12.310938896726526 8.49165018331089
Zn 11.213571945384626 10.233435697155302 13.257905029698565
Zn 7.323215650855694 9.846239478628775 9.093779816595521
Zn 10.089941825691602 8.16658647282031 12.1821338465035
Zn 7.894610672981586 7.963764828414232 10.767300835737256
