14
Energy = -4.32787086 eV
Zn 9.432321020786313 11.728288013542288 12.944494407389545
Zn 8.630527496961038 11.992851558923489 10.31051195046668
Zn 10.82408 13.340022356080087 11.285471913720198
Zn 10.82408 8.30813764391992 10.362688086279796
Zn 10.82408 9.082457153255962 12.932478659834288
Zn 13.01763250303896 9.65530844107651 11.33764804953332
Zn 12.215838979213677 9.919871986457713 8.703665592610456
Zn 10.82408 12.56570284674404 8.71568134016571
Zn 12.215838979213677 11.728288013542288 12.944494407389545
Zn 13.01763250303896 11.992851558923489 10.31051195046668
Zn 8.630527496961038 9.65530844107651 11.33764804953332
Zn 9.432321020786313 9.919871986457713 8.703665592610456
Zn 10.82408 10.798332714815738 14.814823723933538
Zn 10.82408 10.84982728518427 6.833336276066469
