19
Energy = -9.34804247 eV
Zn 12.504941051971434 8.918348253158934 8.6147850165185
Zn 9.830548033571542 13.587750447219584 8.597877664084102
Zn 8.116238177592244 12.071798586011425 9.921650346780595
Zn 12.39731710307465 13.407811917809301 9.150199282966792
Zn 13.40060099869566 11.040104309030669 9.862130250642462
Zn 13.547317499763544 8.798505907345938 11.048621069344259
Zn 9.489500098294771 13.086156713584902 11.94157298791732
Zn 11.006870904577754 12.265036996674594 13.901027254103855
Zn 9.159463946189689 8.924544562363263 12.242660969586543
Zn 12.045105773594003 12.405094234403958 11.609479759868343
Zn 11.02980919825035 8.079496152939504 10.654078828273631
Zn 11.714348590918242 9.911345114636532 12.604675949187618
Zn 10.87238831551914 14.916398949491398 10.607669073767577
Zn 9.875120919562935 8.858263064968144 8.356215447989145
Zn 11.176135504608055 11.20199266255482 8.206409456637468
Zn 7.680097188254141 11.108339550271358 12.268450090522297
Zn 10.165179655386302 10.677339665240765 10.519289846062973
Zn 12.374794249785731 5.790606193947713 11.004142538228937
Zn 9.29254751837658 10.456888896723605 14.252389773071048
