19
Energy = -9.08777668 eV
Zn 8.799582380869204 11.695306936042975 12.645890581456865
Zn 9.897976154696716 8.198115685316006 12.405181970393329
Zn 7.2636019477268166 9.89098997814016 10.788756099203074
Zn 9.947775089300924 12.351324177119778 7.482737089674682
Zn 10.813823293427982 13.09473836945405 11.732608545849843
Zn 7.84789343408427 9.437902009669184 13.246729195066745
Zn 8.357239515144785 10.441691267476303 8.466891776411966
Zn 11.688850773143987 13.192546871045579 9.092467711993635
Zn 13.035410409417487 11.102243230177342 10.385230910478246
Zn 6.360119642297854 12.02209002989037 9.392661678020248
Zn 14.368033510724953 7.366449414087455 11.264787674062816
Zn 10.479761417454696 10.558338527714593 11.024900608856246
Zn 11.336455733633164 7.021483759029233 10.52965923453752
Zn 8.82466016102358 12.708643701652187 10.071902811240912
Zn 13.132139745122425 8.691219815838899 9.299979849178776
Zn 12.416278306770911 8.93495222654877 12.058364517984577
Zn 13.245486952006202 13.545681515059774 11.132274685823957
Zn 9.357773807888732 8.461086297168363 9.702018129312751
Zn 11.245174452459638 10.3139627513959 8.436518950688328
