18
Energy = -8.17642719 eV
Zn 11.013768432917269 9.210839785678973 11.278021742136259
Zn 13.451115798423757 11.27857340208329 14.05079341539778
Zn 11.766849198514757 11.765027088314863 11.15223659370023
Zn 12.229629196638339 8.606096794455315 8.047549397875772
Zn 11.415017449839432 12.819614370654595 13.668827453390005
Zn 11.431344102761518 11.087036353301297 7.92368154225508
Zn 9.82579727158679 9.00555945567287 8.861554731454918
Zn 8.974467579457677 13.576376294912082 13.218269243584269
Zn 9.818124664381246 10.885506195103709 12.93254591842266
Zn 11.006880301217137 6.790122767709288 9.66489757103207
Zn 10.882429159226275 14.180363563261626 11.513146313302945
Zn 8.340517444720312 13.487551248992895 10.597733058471876
Zn 13.23098800566738 7.919482259717527 10.325271013148342
Zn 13.481855654884377 10.562832560069113 9.458697864165204
Zn 10.42416202777175 13.087259250263253 9.229811761890707
Zn 13.56869183726355 9.824114118863003 11.999733409038637
Zn 7.414540333364688 11.742459747175369 12.252649365419842
Zn 9.087710142009401 10.93477652308107 10.338630369468273
