18
Energy = -9.02079493 eV
Zn 8.93258644331382 9.926120809383288 6.402697746786024
Zn 11.389936373261552 9.715470385181447 6.898327501767414
Zn 6.35985851998643 10.026202400070774 6.565671859155035
Zn 10.194124775017135 11.26945779897658 8.701682967342176
Zn 9.940390717411237 7.346247665252111 7.05335184471196
Zn 7.628223781354429 11.63475030874404 8.076587403627082
Zn 12.265930138194419 7.5866132826155726 8.124088027749384
Zn 7.381271426147538 7.767819802290244 7.247562193821107
Zn 12.405664381978363 9.950262580014954 9.234107287485198
Zn 9.093361743409204 8.882990690615175 9.08143020571689
Zn 6.310561474573193 9.462881226060771 9.101477681646953
Zn 10.61707144746584 6.829602428471087 9.870790274768998
Zn 7.434094238928308 6.916370392319162 9.774403519871315
Zn 10.7974732187114 9.459687447691593 11.104918785173334
Zn 8.22850749425975 11.030093042942093 10.552588037814155
Zn 9.072013564656105 7.360040613768063 11.803342256279072
Zn 6.896241061344997 8.827033783134793 11.511406034447079
Zn 8.888030467824105 9.843696610305608 12.730907639674921
