16
Energy = -7.21603837 eV
Zn 10.931167149517266 12.196809188039566 10.531436295727056
Zn 8.297170850482734 12.196809188039566 10.531436295727056
Zn 9.614169 10.890138741192986 12.41216171166321
Zn 7.543848509767572 9.614169 11.06749849470916
Zn 9.614169 11.68448949023243 8.160839505290841
Zn 11.68448949023243 9.614169 11.06749849470916
Zn 12.196809188039566 10.931167149517266 8.696901704272946
Zn 7.031528811960435 10.931167149517266 8.696901704272946
Zn 9.614169 8.338199258807014 12.41216171166321
Zn 9.614169 7.543848509767572 8.160839505290841
Zn 12.196809188039566 8.297170850482734 8.696901704272946
Zn 10.890138741192986 9.614169 6.816176288336793
Zn 10.931167149517266 7.031528811960435 10.531436295727056
Zn 8.338199258807014 9.614169 6.816176288336793
Zn 8.297170850482734 7.031528811960435 10.531436295727056
Zn 7.031528811960435 8.297170850482734 8.696901704272946
