15
Energy = -6.3384101 eV
Zn 11.605116916144347 10.892010014189214 13.859817130235433
Zn 10.780547650290533 9.322069684110705 11.801819085178902
Zn 11.08613969541153 6.632749353754193 11.982091271635836
Zn 11.11938998059229 10.531167169231052 9.475557755992176
Zn 11.481800795502016 7.708342570560949 9.667236775035528
Zn 10.512431061187362 12.06580938382812 11.689650329978651
Zn 8.950069216949244 7.506773061645825 10.822132075783372
Zn 11.278619713177171 9.032916031043028 7.40936463763488
Zn 9.28658412153978 7.380794983494565 8.139398886232554
Zn 8.696683150925018 10.352646978656814 10.547704241276099
Zn 10.098228578569001 12.323090642810223 7.471017045690374
Zn 9.587020523345021 13.539452801909473 9.840556021626464
Zn 8.828702840062176 10.022748619468969 7.628202475447232
Zn 7.220631419350109 8.697314810086255 9.268892806618473
Zn 7.634070019860044 12.156283809562844 8.570426182068468
