17
Energy = -8.95151885 eV
Zn 7.734750729924911 7.053572322949017 9.575188663547257
Zn 11.385082864995729 7.047487543784288 9.556679282793626
Zn 12.518963763599913 10.517280908163274 9.548394182619065
Zn 9.568475966979426 12.667596429671368 9.561512346500878
Zn 10.915760947646836 11.405955731303349 11.32838568802253
Zn 8.235936150806664 11.410498158078102 11.346150521441443
Zn 9.549230843870548 9.563859091680126 6.543891277189381
Zn 11.733474023601783 8.858074111745815 11.328185997826337
Zn 9.569766246876135 7.287304387877259 11.341437313413136
Zn 7.409164950677153 8.865574550205691 11.351207317808477
Zn 10.898004447735344 11.403894619922033 7.779572460403284
Zn 7.3927606628552 8.86310270140819 7.800923984776116
Zn 6.613143492438543 10.525899275880514 9.578768440194215
Zn 11.716690389234971 8.8569377870284 7.779389442660657
Zn 9.550958780310001 7.286347394897747 7.790215241662739
Zn 9.579178666544609 9.56748906242919 12.584254439818306
Zn 8.21811907190209 11.40858792297563 7.795305399322817
