12
Energy = -2.71192903 eV
Zn 11.990340664701902 14.367290364625214 10.694676
Zn 9.3990113352981 14.367290364625214 10.694676
Zn 10.694676 12.119694786442068 10.694676
Zn 7.950086689222088 12.279962713623492 10.694676
Zn 9.458748391021144 9.981132375508052 10.694676
Zn 6.866339753696741 9.980469501431372 10.694676
Zn 8.164195092709104 7.732295346508023 10.694676
Zn 10.694676 7.534116554203665 10.694676
Zn 13.225156907290895 7.732295346508023 10.694676
Zn 14.523012246303253 9.980469501431372 10.694676
Zn 11.930603608978855 9.981132375508052 10.694676
Zn 13.43926531077791 12.279962713623492 10.694676
