15
Energy = -7.24724822 eV
Zn 10.040742624093468 9.96441184715971 8.522495026776705
Zn 7.683417775642125 9.108161591120506 7.758024866914011
Zn 8.787684203486785 8.042308619567732 10.04794481888585
Zn 11.390940549285943 8.106320659482499 10.040059089364089
Zn 7.693448620051971 9.111288259443972 12.340711216454272
Zn 12.256054129008502 11.683665081565705 8.67055520317232
Zn 7.7557216242930185 11.580265048987636 11.414826342981975
Zn 10.050232600124158 9.962994439853844 11.566936289544744
Zn 13.552730203616203 9.710689038243553 10.032705295175663
Zn 7.750775076476467 11.580162652336208 8.681425812598938
Zn 12.432473078660879 9.224514132942593 7.7465670774691215
Zn 12.263721622728175 11.685225268441613 11.40805655989183
Zn 12.445756138511072 9.224958184702388 12.327613785141875
Zn 6.554774431934088 9.548337815394145 10.05164964447965
Zn 9.996802322087563 12.121972360757892 10.045703971148942
