11
Energy = -4.5193009 eV
Zn 8.62505123781871 7.805539570675311 6.334510093882811
Zn 11.578350458834269 7.071961705987316 6.784546326251943
Zn 10.317354449040888 9.391392713372 7.691286549777961
Zn 7.311461482087265 9.729553294079587 7.453474421332621
Zn 6.884352662027305 7.164934722603814 8.24842169465316
Zn 7.32643608108279 9.073564316910305 10.112276312284594
Zn 8.920997734131886 10.951971265039875 9.209003027126338
Zn 5.840831352927957 11.08405593374464 9.393097798062959
Zn 9.666666098064178 6.910707369315398 8.558012601205382
Zn 8.255536881020513 6.759899265471261 10.67628506460121
Zn 10.096472803813135 8.879931083649112 10.3625973516695
