18
Energy = -8.5432808 eV
Zn 12.074714941367551 9.899695899612045 5.71721986199027
Zn 9.609719869545552 11.639854827617663 7.728578151427458
Zn 7.690313988178304 10.242707231184134 8.823842377561926
Zn 10.165666743005783 9.126066543229614 8.438194886055397
Zn 8.180451508304886 12.623721096135888 9.77322906705235
Zn 12.277149780953723 10.713137503715698 8.353597417507695
Zn 11.094090327469928 12.656850033419662 9.674606265324307
Zn 10.245086300958835 10.524121842916166 10.769035637260204
Zn 7.90935661636586 9.394357162698505 11.267142587529767
Zn 13.113549697196957 8.631978225274455 9.834863870914246
Zn 9.281760794288068 12.69397456154355 12.138829685325597
Zn 10.745620612340511 8.079951560352656 10.790043488060965
Zn 9.845212819102391 8.798653711907102 13.127028806132522
Zn 13.832277688774246 10.898602229309478 10.659000395231017
Zn 8.164590388928755 10.778101092259341 13.50583190163284
Zn 10.683108157721112 11.145311073430253 14.082422886168107
Zn 12.427032749652026 9.420523420099602 12.55360975343668
Zn 11.949290352174382 12.04565762811955 12.064206226918168
