17
Energy = -8.3498717 eV
Zn 8.875922144970081 9.53443699991362 7.097618637241381
Zn 11.15300689904016 8.642154810006453 8.045776577398044
Zn 8.099112464605051 11.980442478110975 7.794583963828688
Zn 10.733607629918948 11.366890528362449 7.991562585790565
Zn 8.641072789138347 7.141378868427001 8.163853621579818
Zn 6.683325810946219 9.782598385256064 8.451252269962895
Zn 12.595698752811664 9.027268164459558 10.214415581088128
Zn 9.68838029407409 9.754466800331079 9.767389794041692
Zn 12.230592992685612 11.78107788620203 10.100119053147395
Zn 9.681457333778269 12.886669579784153 9.895444194606199
Zn 7.5827862698306365 8.76099109955638 10.757396019459923
Zn 11.236920748052 6.752738046619114 9.852175468278306
Zn 7.4730394944631255 11.423638308607599 10.335119556474144
Zn 8.818684366548734 6.545376242020039 10.672242458779342
Zn 11.99604607556266 10.453874405420326 12.312031344532592
Zn 10.314280923066697 8.386972018201524 11.963622689366376
Zn 9.544018966408286 11.12697933462195 11.933350140325546
