14
Energy = -5.78094123 eV
Zn 9.902848123024594 12.556778117232065 10.515145817354613
Zn 11.224923429910987 9.182011056445026 8.112512671668032
Zn 10.584807878093484 10.03343358360845 10.683268725815372
Zn 9.439287514631552 11.114854430917395 8.343921165393061
Zn 7.418434519490764 12.241337725511638 9.753407094890452
Zn 12.615607595644308 8.404452228473144 10.235910072478825
Zn 9.09870964206742 8.768444299770854 12.69718830071534
Zn 9.662795617972526 9.802055975029436 6.057257824950261
Zn 11.225683747062194 6.662697691695284 8.836429550219764
Zn 9.185090572059584 7.5237473325473605 10.343583848129539
Zn 7.697096480175539 9.687004845255904 10.600451036110755
Zn 6.074723947588908 10.282381456294162 8.604633176965232
Zn 8.025992358741357 8.623445138451023 7.987320978478635
Zn 8.763091603462833 6.131649589179926 8.158869224282114
