18
Energy = -8.78276397 eV
Zn 9.527592593904227 10.688998180798677 6.99716077152526
Zn 10.01919424138425 7.1907774781678615 8.574251965114877
Zn 6.297720015779834 7.545441817857285 10.974261180375645
Zn 7.539319864816803 6.239891087548954 8.949078423181394
Zn 8.864192345340514 6.136070306312097 6.524273024306321
Zn 8.56241457955714 9.676725547990713 11.944874348705842
Zn 6.503351017577667 10.052164991291718 10.402595296287094
Zn 11.751454363395432 8.995002208910064 7.9097558589503
Zn 10.68078195495561 9.081602666746132 10.384514913773323
Zn 10.166921599842835 8.344766718009694 5.8926140373602065
Zn 5.807526835312866 8.545428313355378 8.332429352389891
Zn 7.623898810399531 9.024781336487397 6.09276738751845
Zn 12.192774380870645 11.683064815682881 11.378044061228708
Zn 6.370449892076058 6.711058115139287 6.499047901193285
Zn 8.858180645864296 7.321492698168159 10.910488153160756
Zn 11.220662433181019 11.273426314060186 8.922509704604048
Zn 8.247975804598395 9.120542881111197 8.576890775045984
Zn 8.715580550904187 11.318756452123774 9.684434775039655
