15
Energy = -6.76866468 eV
Zn 10.712603502758295 11.476074603309437 8.726679459121465
Zn 9.056378093237772 11.996434937608567 10.901334189211177
Zn 8.595714165817284 12.879889477706342 8.13796961476621
Zn 11.623599981667224 11.625911729018828 11.22055312998626
Zn 13.003420742491183 10.088708909798402 8.371484283808826
Zn 13.694910414779661 10.144453722284293 10.90699892286416
Zn 8.659830477782721 10.234367622649486 7.51712599484068
Zn 7.036276889614781 11.236280855542073 9.36640527707904
Zn 10.511076078744626 8.807134909450946 8.610460677988408
Zn 8.015035811404557 8.611489720365501 9.496901465351906
Zn 12.532580773528586 7.9699371469956315 10.072548099198938
Zn 7.330139236829072 9.984946105604113 11.620542574978058
Zn 9.993238782888843 9.628040987957649 11.121311601983527
Zn 10.322817693607778 6.974101780654434 11.03815415415699
Zn 7.804077989705327 7.202631915466743 11.846178686054543
