18
Energy = -9.34639227 eV
Zn 9.638037060234915 12.142318933657464 8.157984941401628
Zn 11.74978872754836 12.505842264742899 9.602651646264055
Zn 9.620980946563067 9.86728849105793 6.555033644211301
Zn 9.70734555333113 9.96161928195301 12.770885419458702
Zn 9.675442035097356 6.782314514363428 9.717011895865735
Zn 9.673980798416393 9.606758677357787 9.666802051876495
Zn 9.69198005261033 12.181450492088837 11.102667102638078
Zn 7.588150583501578 12.512410264679183 9.653003989871634
Zn 11.67992586677726 10.331451684740223 8.118097836362598
Zn 8.419802517009051 7.735986822164594 12.028227674664976
Zn 7.657020959055894 10.36304776661931 11.188987443885084
Zn 8.386190962713432 7.673756814762821 7.418823987142521
Zn 7.597515993401541 10.326238866383045 8.170220708887774
Zn 11.92633730357518 8.136812760318026 9.662607417982615
Zn 10.962982337254244 7.744248462467829 11.99875333436884
Zn 11.736882042822923 10.36034599192392 11.155869557825454
Zn 10.923138551868231 7.682208727792936 7.362477113807626
Zn 7.418080708219103 8.139482182927576 9.723477233484731
