10
Energy = -4.09960665 eV
Zn 8.214414552240417 7.582829920833635 7.228106059831334
Zn 6.529432029147661 6.3273446344766295 8.781632885338343
Zn 10.094998612942476 9.079900058520153 6.434573957792781
Zn 7.899535737366931 11.023879439328 10.045273247413332
Zn 7.778931273345525 10.300352800166587 7.2519631412968995
Zn 7.043165692539539 8.756658514064558 9.396596820400312
Zn 11.106616923349838 7.950267992496333 8.821372606283937
Zn 10.046254716339813 10.377299343630025 8.702656603062794
Zn 8.940173914847323 6.862973062989081 9.684533024555092
Zn 9.635501860798394 9.02751954641315 10.942316966943075
