19
Energy = -10.36310154 eV
Zn 10.737552528699014 10.136168923412207 7.113488575841874
Zn 9.161604708285287 12.143183124695806 7.235993429489452
Zn 9.734599871221445 7.81523480160384 7.6070413540582775
Zn 12.218979308380476 8.14468290968504 8.28153448839406
Zn 12.47455225384319 10.55492243786666 8.969963820865138
Zn 10.854123272562457 12.542630241186977 9.141691553880563
Zn 8.20776809841365 12.087622183625193 9.68584865048948
Zn 8.05588091162718 9.836664950619518 7.840082840641979
Zn 9.925183059143437 9.94299181884697 9.862468292503369
Zn 6.844661889560795 9.959536274160035 10.11387265037259
Zn 8.241915359670529 7.751807074096551 9.712621445823228
Zn 10.719592591769832 6.875443839712816 9.927809762184278
Zn 12.429924132799629 11.689050958122492 11.213200408813035
Zn 7.213815041513008 8.230799231535546 12.071084456265854
Zn 9.997300428431636 12.541968116172631 11.581805937889579
Zn 12.208469654730264 8.853405105910202 10.978474051818392
Zn 8.437167540293087 10.562161335889584 12.105899650766311
Zn 9.779214678086227 8.194418577599622 11.944574564828475
Zn 10.958808233307277 10.33842165759645 12.813657627412917
