17
Energy = -8.52958938 eV
Zn 11.989161015207355 11.515436223059863 9.946581056356525
Zn 10.281579145081357 12.910250194923062 8.505154998366347
Zn 8.160726497721589 11.403235858478268 7.823660299757527
Zn 8.043206580723107 13.117591463393472 9.797481407506721
Zn 10.5889156378512 10.259581779273883 8.029499621684206
Zn 10.953631488680953 9.946512139790796 12.272871754857471
Zn 13.421413761581979 9.85293267533775 11.359408563511188
Zn 9.841675493825118 12.170091918195507 11.360748846129047
Zn 9.448981924044809 9.832043711074505 10.308749922560084
Zn 7.086439922919712 10.831498379863081 10.56028028641461
Zn 12.795536662623892 9.134604933621784 8.954824538477009
Zn 10.52744517228889 7.72180016682411 8.769072974021157
Zn 11.869106888759351 7.743712745353546 11.069946480837686
Zn 8.001491329910385 8.857134438418642 7.961793621785511
Zn 9.335414439073046 7.539363636733121 11.508163607673298
Zn 6.932591587914929 8.234816876236211 10.530215707554373
Zn 8.24739051590428 6.560827691222522 9.117732699973333
