13
Energy = -5.57148694 eV
Zn 12.233648118483236 7.7132877436998974 10.474365391177326
Zn 11.887833428911081 8.306242690726567 7.976420794510792
Zn 10.803248534594783 9.57113942974201 11.458143207371752
Zn 10.28387275594818 10.266452935311436 6.674453765325744
Zn 10.296022982894437 6.365351637529898 9.426823695430594
Zn 10.253366856667547 10.633639294226443 9.160552671234399
Zn 8.644454595423953 11.103522742027673 11.168364054306485
Zn 8.531104288375428 8.541701868809627 10.695749991268451
Zn 7.78531138091731 11.225760596971007 7.437473353331162
Zn 8.895960783486842 8.528936067969687 7.839244629786175
Zn 7.570044980496936 6.835514504320699 9.124531346429798
Zn 6.649757222994619 11.664666890140822 9.695180877051536
Zn 6.184823086446042 9.26079508020814 8.864956208473167
