10
Energy = -2.94809731 eV
Zn 6.035938358463884 8.621575796343475 8.270486123606144
Zn 8.561849666064901 7.103607015066012 9.082588581722435
Zn 7.69466976322644 9.966993735798514 10.200675383085843
Zn 12.250591861373817 7.128489727492705 10.164714210224005
Zn 10.156818194957046 8.652026262933648 10.940553831068156
Zn 12.652369517490282 9.892506163135083 10.359045364075284
Zn 10.069594517419446 11.564957545212748 9.553041525937918
Zn 8.459621656704966 10.000021427655215 7.676911361793528
Zn 10.945120643351501 8.756311226723584 8.417647671023046
Zn 6.227521019859642 11.3833798730403 8.383933127567841
