16
Energy = -6.89662211 eV
Zn 9.589438931089113 9.594227113617281 9.679221842529882
Zn 8.565892393820087 10.924993589444783 12.03318284493875
Zn 8.994674071193087 8.022903267126269 12.024726550922235
Zn 11.273324245063877 9.836900371570591 12.007430609891157
Zn 9.226205075369176 12.488135175902666 10.03561119469751
Zn 7.034346377946181 10.933883729411559 9.853816070814856
Zn 7.276334976733396 7.833316433938323 10.046049603382652
Zn 9.718246613912482 6.715023937993427 9.829696241580919
Zn 12.29220232642102 8.458245656252672 10.01697469869463
Zn 12.040328147654657 11.119902878682868 9.80697241520834
Zn 10.229713014892809 11.101868124085982 7.510583976698615
Zn 7.951861496071101 9.401908878467735 7.519868830570899
Zn 10.575132862132612 8.306942498340527 7.500331273541136
Zn 11.20808008395258 13.244484971040578 8.5605679515788
Zn 11.942433239378508 6.388822781148741 8.523514305779997
Zn 5.6104337443694465 9.157088192900586 8.580099189094897
