11
Energy = -4.4531842 eV
Zn 11.2577554904532 6.8724007913603815 8.801512416997552
Zn 8.686479632186963 6.977596564243252 8.745260155052202
Zn 6.760926118119228 6.843026316782287 6.691981336246371
Zn 10.39496107939897 8.655166893878247 10.472737311691997
Zn 10.458903186817377 8.972876072680902 7.571578506749802
Zn 6.380017939758011 7.92031661420418 9.438655876518473
Zn 7.885775723205068 9.463181605157859 10.919553845556418
Zn 10.052916974476036 10.910374674097051 11.820535872355897
Zn 7.5552020042846735 9.356970754217446 7.625387113217909
Zn 9.331688507893292 11.022686370600216 9.269914048307722
Zn 9.250354020221101 11.051110452649434 6.679691360667387
