12
Energy = -5.22052 eV
Zn 8.805169760606884 7.2394125154140685 9.380278788236945
Zn 11.586491525332608 9.672796080343543 8.086062912378424
Zn 10.23876795538068 7.5100297899419735 11.630513368543461
Zn 11.550582677647258 9.665626329799311 10.740900164880646
Zn 7.996767206902988 12.918366057833667 9.402992883604618
Zn 10.15162093703381 11.451516103438415 9.394246651812797
Zn 8.925737700494722 9.567952600089987 7.978503693737132
Zn 5.897419350879507 11.383368359987887 9.394262902333889
Zn 11.550291068124563 7.307812900846175 9.4100022769095
Zn 8.905707801177032 9.579477812974428 10.798544936496004
Zn 6.83069777637645 8.942334287983272 9.380881600278517
Zn 10.316472240043765 7.517033161347417 7.158535820787942
