12
Energy = -4.62232348 eV
Zn 11.585405492435878 10.193169775459218 9.799395
Zn 11.231426212967818 7.598716281084753 9.799395
Zn 9.821538747525551 9.143942363291213 11.554674330894366
Zn 8.618929173908048 11.360828264146011 11.129875439981186
Zn 8.618929173908048 11.360828264146011 8.468914560018813
Zn 7.590457423571695 9.395218920488245 9.799395
Zn 8.751265913340614 6.6980436382182456 8.51958513407514
Zn 9.821538747525551 9.143942363291213 8.04411566910564
Zn 8.751265913340614 6.6980436382182456 11.079204865924863
Zn 11.088268048366631 11.56804450144426 7.640417564059646
Zn 10.625447048781057 12.863917544730171 9.799395
Zn 11.088268048366631 11.56804450144426 11.95837243594037
