15
Energy = -6.9246138 eV
Zn 12.302816263959938 8.192314067377817 9.862637520845345
Zn 10.670037544889547 6.240208719435932 9.707031304917724
Zn 10.227735620020356 8.489159414172812 8.104604293400216
Zn 10.675548401448612 8.692458266754057 11.69533317411262
Zn 11.147201459209368 10.625149501439028 9.306994904307313
Zn 8.3696602646574 6.635608593130215 8.522128053495866
Zn 10.38039667937687 10.749117243338757 6.75832520116874
Zn 8.462684979619489 6.593005303826006 11.126974201882994
Zn 7.716963078685728 8.901489685434697 9.665354351225151
Zn 7.880285791350078 11.457710560142829 6.529146601739624
Zn 7.855070348424256 8.972102675015265 7.02877246418572
Zn 8.24499943713376 8.812194028721393 12.337880626781187
Zn 9.333251763174943 12.367221199311642 8.668055977349301
Zn 8.806146551519207 10.98583827669972 10.775485224140638
Zn 6.879225071271671 11.262647798078014 8.92162185665085
