16
Energy = -7.72895192 eV
Zn 7.41876501053867 6.9818175149125015 6.946615133875116
Zn 9.065238269338801 9.860875306376506 6.506198151863355
Zn 11.62294112716081 9.648138733136499 6.651887588257005
Zn 7.763865280929338 11.950672390369608 7.3013204750903835
Zn 10.387336501275064 11.640359910442625 7.995930262408385
Zn 8.483367846677385 5.566004900827448 8.863443487042307
Zn 7.397032382541219 9.19931562070344 8.48305049744816
Zn 9.732286931202694 7.785486782812505 8.071641991864924
Zn 6.205802834936097 6.9352517106688385 9.260796843649988
Zn 11.466342196413654 9.479630321867422 9.208482996917947
Zn 10.779341416070686 11.489876030969375 10.670415933572977
Zn 8.381085005798102 11.353439804168367 9.744038432503366
Zn 10.414829776640195 6.523778131468195 10.343288302304428
Zn 9.207116069178712 8.937444343287668 10.538316855592553
Zn 6.553217498366024 8.838660852684654 11.01407905469182
Zn 7.985429518741008 6.673245311112227 11.264491658725882
