14
Energy = -5.93621759 eV
Zn 9.745429447194928 11.086996414384288 9.807269
Zn 10.898901415161298 11.829413519609439 12.04843192352254
Zn 10.898901415161298 11.829413519609437 7.56610607647746
Zn 7.183319148579782 11.058773182734255 9.807269
Zn 10.896959521975342 13.506945778208877 9.807269
Zn 8.156668158170667 9.084111828946295 8.450664008215986
Zn 8.156668158170667 9.084111828946295 11.163873991784024
Zn 9.38083064367335 7.113224970521596 12.32047949449826
Zn 10.009941820947525 7.491722081025834 9.807269
Zn 9.38083064367335 7.113224970521596 7.29405850550174
Zn 9.84981896100592 9.640021485772433 6.413776209737824
Zn 9.84981896100592 9.640021485772433 13.200761790262167
Zn 11.446838824659068 9.411892466973333 8.543376716887591
Zn 11.446838824659068 9.411892466973333 11.071161283112401
