10
Energy = -4.11864661 eV
Zn 10.395923531434834 9.61237118000603 8.127771868149319
Zn 10.47016266742793 11.438261552841434 9.943459944372403
Zn 10.038440179919053 7.556387584991129 6.732336017553263
Zn 10.362623386831933 7.222353068187804 9.486920819566398
Zn 9.132206657217493 9.370142199345306 10.62445640882923
Zn 8.13822268344885 10.935300904137875 8.688362689432454
Zn 7.692125505885937 9.257761030123289 6.750377316721748
Zn 7.901907723446864 7.192956326253728 10.847252720157085
Zn 7.988422758896014 7.095646801765066 8.250715861468102
Zn 6.447917353093789 9.031381434948763 9.190508860517477
