15
Energy = -5.90383525 eV
Zn 13.617523275801542 10.57182933891371 11.514072979604377
Zn 12.003859907085012 8.464353362241326 11.28752070334736
Zn 12.192210118774828 10.714695067698731 9.351920793897312
Zn 12.405796476370172 6.393055806492404 9.544071790832398
Zn 10.173265501419905 10.757833857505439 7.763485110678173
Zn 10.849045748002197 10.90039326687119 11.571499735191098
Zn 11.259423560996096 8.360454773909082 8.254451171620428
Zn 9.929423462726612 7.11177760196969 10.402153200247987
Zn 8.709560170536685 9.339694752959097 11.327514696546665
Zn 8.544336403775947 8.94982719567624 8.7383766689516
Zn 8.4202757237511 11.964956874158759 11.331118131271309
Zn 8.173385561880265 12.166663097309657 8.729642460823191
Zn 7.282147285583311 10.41426519120047 6.990177657515591
Zn 7.1488870042488 7.277012234344493 10.192255672570163
Zn 6.596885412765161 13.859984277093416 10.279349530323266
