14
Energy = -5.01445362 eV
Zn 13.257298645822647 12.303343136230389 10.43234022102583
Zn 10.884426 9.473891577062687 11.994538750686692
Zn 13.293459299555526 10.884426 12.675095110225602
Zn 8.511553354177355 9.465508863769609 10.43234022102583
Zn 10.884426 12.294960422937313 11.994538750686692
Zn 8.475392700444472 10.884426 12.675095110225602
Zn 10.884426 10.884426 9.251642650278972
Zn 8.511553354177355 12.303343136230389 10.43234022102583
Zn 10.884426 13.361617242143735 9.662103470819096
Zn 10.884426 8.407234757856257 9.662103470819096
Zn 13.257298645822647 9.465508863769609 10.43234022102583
Zn 15.079071067293919 10.884426 9.27306088954712
Zn 6.6897809327060775 10.884426 9.27306088954712
Zn 10.884426 10.884426 14.191363911137486
