12
Energy = -4.97288313 eV
Zn 7.8799743681592505 8.5553264107288 5.433940425063377
Zn 7.532263696981567 6.362787347425742 6.835764715238628
Zn 10.00572514211844 7.066773520229453 6.278531099979499
Zn 10.897374986808169 8.833071659831978 7.904304168547227
Zn 6.2554445646075925 8.603298802565757 7.6633017438070015
Zn 8.539220386186155 9.81781425532214 7.642687572445802
Zn 9.381348263418506 5.637469788570543 8.542986331298918
Zn 6.950695408426428 6.820248537312464 9.41709412664067
Zn 9.906592245180656 10.529973541596682 9.7757805729716
Zn 9.196951464021584 8.01529659547224 9.656107238023399
Zn 6.195226143636702 9.36490501611712 10.226657134291832
Zn 7.8621918724688395 10.99604306684098 11.225853413705659
