12
Energy = -4.16155886 eV
Zn 10.010807603872344 13.357242810163795 9.979991
Zn 10.940072856100086 10.93643591850489 11.618640015557295
Zn 9.04059796024853 12.572496735565146 12.379241494603928
Zn 10.91938403975147 7.387485264434859 7.58074050539607
Zn 9.04059796024853 12.572496735565146 7.58074050539607
Zn 9.01990914389991 9.023546081495107 8.341341984442705
Zn 9.949174396127656 6.602739189836201 9.979991
Zn 10.91938403975147 7.387485264434859 12.379241494603928
Zn 8.517615574655528 11.124477920846333 9.979991
Zn 9.01990914389991 9.023546081495107 11.618640015557295
Zn 10.940072856100086 10.93643591850489 8.341341984442705
Zn 11.442366425344472 8.835504079153662 9.979991
