13
Energy = -4.51159067 eV
Zn 12.19714138450709 8.051452952385228 8.534534962910078
Zn 13.023292447016358 10.321611136909013 9.103048886480243
Zn 10.040471955703172 10.227788331279916 9.125672767687156
Zn 9.734537551024523 7.636443493467842 7.964389666801948
Zn 9.504687515799043 12.973360958072167 9.092075067823055
Zn 12.011845325391079 12.534322987206902 9.613568364771256
Zn 8.009422457682875 8.362099965726959 9.715508006635503
Zn 10.427531172177511 7.683394610622502 10.467994859631661
Zn 11.695037503447363 9.847470116537185 11.580106374283773
Zn 10.215330044659252 12.166420654547549 11.454255811354773
Zn 9.136252070781255 9.599915458006757 12.163175434068568
Zn 6.442528725818688 9.610735271162723 11.219030223478141
Zn 7.867206185630792 11.55051699673109 10.48342618815183
