14
Energy = -5.72702402 eV
Zn 11.526292979151075 11.043449358340238 9.9466135
Zn 8.45026067513786 8.831267319097062 11.303592752687326
Zn 9.725269123480668 10.959904100000474 11.975719801323832
Zn 7.390354570349609 11.00546946856339 9.9466135
Zn 12.479932475344611 6.8083406817648635 9.9466135
Zn 9.853595780521758 6.712197778711067 9.9466135
Zn 11.17810203187896 8.847257160839495 8.545803883153361
Zn 11.375923834031127 13.322014905721371 8.545524121253411
Zn 9.22176729955115 12.787567382416714 9.9466135
Zn 8.45026067513786 8.831267319097062 8.589634247312677
Zn 9.725269123480668 10.959904100000474 7.917507198676172
Zn 11.17810203187896 8.847257160839495 11.347423116846638
Zn 11.375923834031127 13.322014905721371 11.347702878746588
Zn 7.3215345100631595 6.974677414848591 9.9466135
