15
Energy = -6.13346032 eV
Zn 10.689227601162633 11.384632736583274 11.807906183404423
Zn 9.134593567352907 11.509220939428543 13.868718521039678
Zn 13.929071683347424 10.778064057331816 8.380616493176863
Zn 10.529602423834566 7.70896999041599 11.966737679106764
Zn 12.15637881464129 8.838300184377896 7.844059756931226
Zn 9.356424281468714 8.544139412056014 9.793940850429767
Zn 14.200138611105714 8.463218537300836 9.630636056505233
Zn 7.980475686671453 11.665908521238652 11.370270595673755
Zn 9.677326859847724 9.388325003584903 7.327265103943205
Zn 8.489550150319365 9.330100713206438 12.365009623752147
Zn 12.266705805711435 12.037150627258466 9.924334151279494
Zn 5.89114003754052 12.872232146211433 10.158410235322535
Zn 7.405060834645824 10.372218566670258 9.138520801036021
Zn 11.893995399137319 9.34244590986828 10.655843660265642
Zn 9.916237822220756 11.308238089454703 9.200978066267512
