19
Energy = -10.38017779 eV
Zn 6.2424969721807075 8.417304797479353 9.434944726123724
Zn 11.289649067192848 9.115251668945293 9.76685030709162
Zn 9.759517448476382 8.21707358013564 5.9531030323025185
Zn 8.213588967354609 6.310955125000957 9.385216352944058
Zn 10.096293494292256 10.085607623312537 11.9958064132296
Zn 10.555131059256423 10.248078815599406 7.408157469968893
Zn 11.76149956895238 7.857017324666066 7.464509982301173
Zn 7.99860298930874 10.06590498774783 6.290457761033925
Zn 8.70206515010602 12.20525519007745 7.498923170360686
Zn 9.373592548028261 11.274180733630237 9.817321913136388
Zn 8.859829266989275 8.798429492618652 8.802233075244468
Zn 9.576050196578693 7.6569169539803195 11.396753759516692
Zn 6.902241680629853 10.941724623446767 8.884800196727692
Zn 7.052430220609981 7.311942982585432 11.62439050639606
Zn 7.626421956677431 9.822424155762732 11.227908157297284
Zn 9.736074541049867 6.004089889999184 7.204744190145796
Zn 7.489547156099039 7.4239334799472 7.0212693068347525
Zn 5.686550466948575 9.442270300575272 7.13865563707135
Zn 10.827957414714684 6.551178439935694 9.433494207719198
