12
Energy = -4.01659269 eV
Zn 8.596738363402954 11.424457060160353 11.177101016298643
Zn 11.518080636597048 11.424457060160353 11.177101016298643
Zn 10.0574095 11.594209905380659 8.961789936680468
Zn 12.246603412062921 10.0574095 9.117227462484728
Zn 11.518080636597048 8.690361939839644 11.177101016298643
Zn 8.596738363402954 8.690361939839644 11.177101016298643
Zn 10.0574095 8.52060909461935 8.961789936680468
Zn 10.0574095 11.309427427138601 13.294276277418781
Zn 8.753358627652833 10.0574095 6.616961346780781
Zn 7.86821558793708 10.0574095 9.117227462484728
Zn 11.361460372347167 10.0574095 6.616961346780781
Zn 10.0574095 8.805391572861403 13.294276277418781
