17
Energy = -8.53221958 eV
Zn 10.088128849487752 8.565771042314612 6.585471249136176
Zn 8.280430524548136 10.206541476355785 5.769264955298375
Zn 10.03562319284246 11.56788122546212 7.018987229058762
Zn 11.197744854483917 7.366562699489042 8.605496434656917
Zn 7.185178199548788 8.367226962163333 7.257711884009509
Zn 11.94026238085711 9.871866815810359 7.986182239161199
Zn 5.754690601643762 9.461410526090111 9.551972767880828
Zn 7.561904393351761 11.084112814677674 8.173991633620753
Zn 6.833029596403561 7.105688669258857 9.55830448993451
Zn 9.03751745515089 8.651366664512775 8.957213730045186
Zn 11.703128361478825 7.524672804868862 11.112981620797258
Zn 7.790109920287017 10.574659804857875 10.700874350299951
Zn 10.027087881250335 11.024529925908189 9.556555704143612
Zn 9.21702999310795 6.742914867743414 10.63389453304461
Zn 12.141284677437726 9.989327601118395 10.642497915842762
Zn 7.151092480136286 8.31986617106465 11.8238879955244
Zn 9.744377486422724 9.26422077674298 11.753332115984358
