14
Energy = -6.26402465 eV
Zn 9.41642312766989 8.810993273995795 12.016078054065169
Zn 11.974868222551194 7.928070993071431 11.280065026033029
Zn 7.887442863841051 8.741018471724452 9.942946874166639
Zn 10.886413879264076 10.32364029794663 10.547640241454365
Zn 8.246983286368286 11.06736766099994 11.19006471635871
Zn 10.061250822460309 12.942759904290343 10.701119091281011
Zn 9.765640750096376 6.562003054117678 10.686331545520186
Zn 9.365370372993013 9.454301325000532 7.999919062110454
Zn 11.855042495544097 9.766403607862213 8.231911671999123
Zn 6.985824468076116 10.620174243840365 8.0545954240788
Zn 10.422585196272202 12.00312731975418 8.254762011138157
Zn 8.016531997338186 12.726924253510182 9.124712734299102
Zn 11.376944319511393 7.253241003472007 8.716914076701675
Zn 8.745963649301615 6.807259816058653 8.260224357971742
