16
Energy = -7.5913963 eV
Zn 7.498713638771652 9.828449579181523 6.615767579729487
Zn 9.987251020556448 8.071395753461651 6.601031555859305
Zn 7.499155499870158 11.89454485211543 8.182109016743844
Zn 9.806205894522066 10.504631345789244 7.969328746269297
Zn 12.057068146726834 8.77438538814012 7.982541547998548
Zn 5.876212616970331 9.840195812478104 8.700823185532876
Zn 8.182030718842716 8.22715505117938 8.605162619458111
Zn 10.542235815367894 6.630201480566254 8.644627904144144
Zn 11.841883295183708 10.563591525400621 9.834594456954541
Zn 9.341015963924308 12.373639518236294 9.93449361414659
Zn 11.678225694847077 8.136249265233603 10.605000478132025
Zn 9.358702048808766 9.875417208254126 10.726912747139288
Zn 11.13559252071964 5.506441434258383 11.002015686382123
Zn 9.192788099387764 7.285853116162355 10.815699657017491
Zn 6.9974769564900425 11.432461621379991 10.749810770386048
Zn 6.838085402965102 8.888030382117119 10.862723768060471
