14
Energy = -6.11621619 eV
Zn 10.622336806246167 10.344846577978371 6.236466182774913
Zn 10.011554069469012 11.237332344769625 8.56582301608637
Zn 8.136193331199141 9.664691685690366 5.979810967135725
Zn 7.352116173003356 10.609736766837797 8.264510969493234
Zn 9.877676928502273 7.900756333126355 6.841657247968518
Zn 8.469030017083444 10.592438447282 10.58690162132543
Zn 6.303071195566554 8.257662757447434 7.1856326099050065
Zn 11.530944647062562 10.836796373495137 10.851220285174245
Zn 7.624036639355815 8.551117020481888 12.055921245898432
Zn 10.011591827290271 9.540382994841766 12.519718417715447
Zn 7.895905227864296 8.234691310752252 9.301822678700091
Zn 9.868773328311061 6.5871452986619765 9.077359615111872
Zn 10.832040230295311 8.874096558827858 9.280095820285885
Zn 9.790597076712055 7.081552329268749 11.653183669107186
