18
Energy = -9.10233241 eV
Zn 13.565490266634129 9.54358528779154 10.532864
Zn 10.495617991139733 10.53158630945999 10.532864
Zn 10.70887282659918 12.145615522049932 12.805717940955448
Zn 13.140442576565121 11.714849568182315 9.153965282784464
Zn 11.521973466465077 13.198018985501944 10.532864
Zn 12.022050032629368 9.4638334216115 12.652606060886965
Zn 11.431931739722712 8.012630512356413 10.532864
Zn 13.140442576565121 11.714849568182315 11.911762717215536
Zn 9.806596493964738 9.820751574870876 13.80946511890228
Zn 9.1516892097887 8.322528302144455 9.20013952808055
Zn 10.70887282659918 12.145615522049932 8.260010059044554
Zn 9.1516892097887 8.322528302144455 11.86558847191945
Zn 12.022050032629368 9.4638334216115 8.413121939113035
Zn 9.806596493964738 9.820751574870876 7.25626288109772
Zn 7.615390879913097 9.97328801961186 10.532864
Zn 8.886714714136998 12.69696131595027 10.532864
Zn 8.207565359428012 11.350162479747516 8.442897162819074
Zn 8.207565359428012 11.350162479747516 12.622830837180926
