10
Energy = -3.13721075 eV
Zn 7.950700868492615 7.592863303014414 10.979693570622098
Zn 10.420618914382526 8.982894996574318 10.677145962507383
Zn 10.067630457726382 11.680387887371104 10.95335673803288
Zn 7.875748165872383 10.389814555917932 10.069193227770516
Zn 13.07992985618714 10.171929209831637 10.401733327981564
Zn 6.362661347824335 8.603823467819836 8.827320132496794
Zn 8.919297958457772 7.958565175494608 8.371288641721746
Zn 10.338117151773423 10.526622325059039 8.471555239960795
Zn 7.748556208302505 10.411247280206716 7.227371542274957
Zn 11.64266514733154 8.087777875061416 8.427267692982143
