18
Energy = -8.41217741 eV
Zn 10.253881912728882 8.786643875396468 12.316314682614628
Zn 9.790157107452501 11.44271150151703 7.798249960798985
Zn 12.22911696809888 12.49234490254245 12.059405366016707
Zn 12.603252769328334 9.810462454413129 11.776268807106556
Zn 9.860105202946569 13.07607964618316 12.968452866450923
Zn 9.63788832878872 7.210512524375796 9.145890696905798
Zn 11.003056222485412 10.867383407186551 13.739173874264843
Zn 8.657169297250116 10.849176329157372 12.240122044426014
Zn 7.760833594355697 9.732200338759707 8.164021816995357
Zn 9.794433806093341 10.146447736778821 10.067695522370807
Zn 11.921718609885211 8.294949571512639 9.66457555030804
Zn 10.852341149933425 8.915336864037453 7.424426419857607
Zn 10.01286531585362 12.674173612174693 10.379565650360899
Zn 8.342609096011826 7.463690120971022 6.347510101052896
Zn 7.7848400538313465 8.607348689443782 10.611049974191792
Zn 9.027377518505752 9.86612144773567 5.822358518224156
Zn 7.077226140477624 7.160776143982476 8.535459462822734
Zn 12.138680678034442 11.351194605893905 9.687012457292925
