12
Energy = -3.94094532 eV
Zn 10.327563256911992 9.886825433203514 8.504713743825612
Zn 11.18075394484413 9.275307503972929 10.927065681741498
Zn 9.287639776288737 9.226191429626882 12.893414632174617
Zn 9.821457609225728 10.852830360107845 6.11430002233471
Zn 12.042494426677996 11.566619835492661 9.910114907454835
Zn 9.931599766885007 11.532746633947239 11.784989833890327
Zn 9.580373542437162 13.997711782164403 12.819003952322538
Zn 10.682544229898497 13.782606189973503 10.40054028813905
Zn 10.38369082172632 12.5866770178698 8.10841514252588
Zn 10.784635601678922 7.340084853315041 8.933614791954486
Zn 9.332635497938076 7.194349153260136 11.155181602564253
Zn 11.217283525487414 7.330721865560337 13.021317284083832
