10
Energy = -3.37880565 eV
Zn 9.555669659515607 11.086642200540753 5.975599050436484
Zn 9.04911844746353 8.499797849517089 6.680059508834399
Zn 8.181465651868008 10.701584201448416 8.283132214724677
Zn 8.185301742755662 6.163936130751115 7.584724381889111
Zn 10.76866532113781 9.920479449105285 8.172434144961732
Zn 10.108424115783269 7.255200851143488 9.092427217905866
Zn 7.3068806696359925 7.89433273468427 9.357051666715153
Zn 9.314365487454122 9.438700286974191 10.643039439537427
Zn 6.790000039558605 10.244197450420318 10.45699935586478
Zn 8.507340039500974 6.562360020088661 11.52176419380382
