16
Energy = -7.78559316 eV
Zn 12.46249568330265 8.595241834057282 11.512677667282926
Zn 12.727107143640724 11.093438910852692 12.444111338774762
Zn 10.311267728986468 8.033908700877 10.131345662542488
Zn 7.474047269303183 10.68407612127967 8.762530576197237
Zn 7.53401945454028 8.271403328111234 10.143188027130035
Zn 10.344307468965672 10.351032743696047 8.695920638204335
Zn 11.86949231819385 12.242293341765295 10.178537046606554
Zn 10.3508724899651 10.327205819811788 11.621581681215142
Zn 12.713282606876824 11.150953421629723 7.8759071256913895
Zn 7.486259927728751 10.6587578561574 11.56554953129241
Zn 8.558084725092817 8.550787225692265 7.805981575870531
Zn 9.240343777561527 12.208261550467306 10.176675304157047
Zn 12.455402477280472 8.628658546287724 8.766165217483827
Zn 8.573250264761972 8.5173462939975 12.485478250513541
Zn 6.5991988114435784 12.738500536916051 10.19566816775195
Zn 13.807871852356277 10.455437768401321 10.145986189285686
