17
Energy = -7.86092561 eV
Zn 12.099284314530758 11.206721994784166 8.85609965389817
Zn 12.03924925693592 11.082651490649589 11.452302294573784
Zn 9.799642 11.07618996334091 12.697955697843025
Zn 7.56003474306408 11.082651490649589 11.452302294573784
Zn 7.499999685469243 11.206721994784166 8.85609965389817
Zn 9.799642 11.928453914150117 7.7673128526609645
Zn 12.099284314530758 8.392562005215835 8.85609965389817
Zn 12.03924925693592 8.516632509350414 11.452302294573784
Zn 9.799642 8.52309403665909 12.697955697843025
Zn 7.56003474306408 8.516632509350414 11.452302294573784
Zn 7.499999685469243 8.392562005215835 8.85609965389817
Zn 9.799642 7.670830085849885 7.7673128526609645
Zn 9.799642 7.196315154998759 10.400349024944278
Zn 9.799642 12.402968845001244 10.400349024944278
Zn 9.799642 9.799642 9.844776857827263
Zn 11.108039647952964 9.799642 6.892147098694682
Zn 8.491244352047037 9.799642 6.892147098694682
