15
Energy = -7.11507889 eV
Zn 8.728648875396031 7.421639462277701 11.70909993467827
Zn 11.526858249447919 8.745975569253115 10.216475106864667
Zn 11.73969178210324 10.364762467913339 12.32836772413117
Zn 9.200017383326209 9.87406338239294 11.126804906501707
Zn 7.665011544340657 7.9122142962823885 9.411015622473998
Zn 9.596565559801421 11.750501081686833 12.837537011775114
Zn 11.420677642624657 12.935772683000003 11.457567922140015
Zn 10.702566897475588 7.932924765716896 7.684849173413798
Zn 8.971081376886458 12.454480329591442 10.343577739415858
Zn 12.576025793707442 11.165757709922705 9.891930781823408
Zn 11.015974569175524 13.022708069624269 8.844271086068767
Zn 10.106905343399482 6.526061026786831 9.776990650217744
Zn 10.466537516087632 10.468689726696056 8.49432900349437
Zn 7.83795232178164 10.572199916068401 8.974819061721565
Zn 8.411168003230145 8.924521924254401 7.079782504094941
