27
Energy = -15.32615721 eV
Zn 7.823377485765859 6.807161157077249 9.607999019585034
Zn 6.418077550759334 8.543756992224077 8.453872100095975
Zn 6.375587365917108 8.43435376663147 10.949488980077982
Zn 8.885024326145658 8.043990232238219 11.573433612452137
Zn 7.3685548453213245 10.243688641287669 12.362165887146325
Zn 7.463387137610606 10.433732345782204 7.100491770770063
Zn 10.367151870434016 6.833729345484248 9.700492223577289
Zn 9.021504993666689 8.481523674477994 8.047196056302289
Zn 8.834734042966913 12.092025383775713 13.451138269323577
Zn 7.430929453481109 10.599051470906502 9.732098214227364
Zn 9.976182696631467 9.912429438265614 12.976964472879825
Zn 11.465832123516941 8.036810952982377 12.138037785610328
Zn 10.349188271968888 10.265596362291648 10.364177752652338
Zn 12.735898478458319 7.769744633897779 10.021201151048603
Zn 11.478082232825725 9.170957652441807 8.291815415673083
Zn 10.130739879416355 10.635317692585279 6.707659532104407
Zn 9.317480225266605 12.161215641292669 8.493307907672058
Zn 8.823020328083622 12.382402447874364 10.976889029137732
Zn 10.778447861336067 13.649910190169686 12.695384012383826
Zn 13.83969999645997 9.2235387797504 12.092156399096464
Zn 12.061539677814569 11.230337521476548 12.409575658825872
Zn 13.221916079442588 10.348825771139634 9.698041382145247
Zn 11.998895688622348 11.929580294091249 7.872759579738734
Zn 11.17560638689021 13.195986564246766 10.050930089862849
Zn 13.097749686911525 13.675004097286497 11.790723376753398
Zn 13.708673611085553 12.884938493025874 9.465806043225893
Zn 14.477354166986022 11.630863312142099 11.563445337186257
