24
Energy = -13.60450476 eV
Zn 9.439195687068734 13.582837647766162 11.978060183575318
Zn 12.103905933516446 7.271432065708434 6.7372895317369474
Zn 8.687233844382735 11.10085279161261 12.666358574515153
Zn 12.76968743763678 9.731598646583347 11.09813624658213
Zn 9.472189881998409 7.462226899989172 10.814339775206957
Zn 10.069875059985053 13.152128570922615 9.53178157227862
Zn 11.203222323002999 5.85755313344836 8.971939727998686
Zn 8.153950744960637 10.08665968657969 6.572875201750004
Zn 11.614942483927987 8.864875152775095 8.764446170456717
Zn 8.787876740114562 8.242967754174531 8.400897716650386
Zn 11.880867298779314 11.367440435417235 9.411668017843866
Zn 7.097935665701726 10.10847220014171 9.024988079503734
Zn 10.564562389968481 9.214841883008393 12.402481584752588
Zn 10.397974343809402 10.818354634245233 7.4387754488441
Zn 6.958380002178209 7.947326549730151 10.440235453260536
Zn 9.510941629277772 10.144065519660392 10.101003090899374
Zn 6.4937484320099355 10.269042777989984 11.581161093981597
Zn 10.210488381473304 8.655291891632293 5.627124720477853
Zn 7.738726785931564 12.249292845249355 10.4981249201842
Zn 8.24150427134244 12.258549998636903 7.970806787298117
Zn 12.01895951351495 7.34780980633413 10.916698971698441
Zn 11.169011683873418 11.719621597896818 11.844260489431097
Zn 9.734259250443614 6.351357960389345 6.852641443860814
Zn 8.038266454676785 8.553105789682688 12.711611436787907
