28
Energy = -15.59175325 eV
Zn 11.883175712844572 14.236857780966494 12.782390665042008
Zn 13.141297074177023 12.311134393204041 13.75108836892767
Zn 13.99240443613634 13.422518802207883 11.637338260965521
Zn 9.515666517171416 14.16535824716237 11.890900266332535
Zn 10.583843432315685 12.021489759833592 13.211912037248561
Zn 11.662824160379845 13.122013396612806 10.463517077080915
Zn 7.5073932693422405 13.441346716271429 10.496964199265284
Zn 12.26165630393588 9.987328406182803 13.827939184458465
Zn 8.286682834932087 11.532372424007473 11.905108540814243
Zn 13.405003284398303 10.902979290603446 11.567195250292055
Zn 13.917053333238444 12.288372140134166 9.35619647621264
Zn 9.527958920987604 12.70578811156316 9.151231753105927
Zn 9.512905005436867 9.612072919084802 12.862637209875878
Zn 10.505828149325286 10.62260618503503 10.51882541482168
Zn 6.675703087077952 11.2637302544037 9.374544302800397
Zn 11.0818452666378 7.73342097594998 13.211060509316722
Zn 9.119270052714416 10.567591935524105 7.85053302913184
Zn 12.228086654628441 8.67922220623072 11.166531788773213
Zn 10.688092024833004 8.166178040010948 9.238162604314315
Zn 12.902885571869659 9.83825620494002 8.975645072893752
Zn 11.6531509290362 11.777428442022053 7.990640681776875
Zn 7.922751441807647 9.144776123983304 10.752079403308926
Zn 7.112262555194884 9.032121421326666 8.314077062690577
Zn 9.49904948161488 6.972141981154691 11.33044189050474
Zn 11.297448863245663 9.371202533242089 6.89557775068032
Zn 9.147226263216602 8.030336412399542 7.123329508030668
Zn 8.165333190617092 6.952508175180045 9.218930975992544
Zn 10.195516575027975 5.438331180856105 8.535143326795692
