26
Energy = -14.67239489 eV
Zn 10.552488341084672 12.56916457852729 9.288757448975941
Zn 8.630144988779403 13.595679880630287 10.778986138644173
Zn 14.091186590061499 10.440814615583601 12.605308426172746
Zn 13.006629487983982 12.769708232089817 10.389067482987231
Zn 13.4817309626658 12.001121766583779 7.947043856793451
Zn 8.690573221256662 12.162146964636019 7.024460923129742
Zn 14.77846603107661 10.764671636072688 10.04454127158533
Zn 7.083934672457552 12.971628548091395 8.88308076683767
Zn 12.292279851486095 12.247119570631607 12.873299586790484
Zn 11.130093548704817 14.155033151793424 11.455772103564144
Zn 9.720722721784396 12.702792548877033 12.95587190053369
Zn 13.222802193190287 9.46119237736575 8.34921783911676
Zn 11.172885906332578 10.96578137393378 7.375627092736876
Zn 11.611476125093281 10.611925129487984 10.637478429491297
Zn 8.958423446622412 10.028634164909093 8.44116208582493
Zn 13.393740304680488 8.589163327740021 10.879146742468059
Zn 10.985221123723711 8.592321403002027 8.969528336063876
Zn 9.070877856050085 10.955829357308684 11.020775176018066
Zn 6.639174311045128 10.517840503606452 9.538803258821648
Zn 8.723960052266813 8.31469096381561 10.326054742098986
Zn 10.544918161916245 10.285160690648755 13.131982891935259
Zn 12.666475848045481 8.491878679227609 13.53109741708594
Zn 10.920137129089166 8.077826826200848 11.561458291898772
Zn 6.631479682167323 9.215126830243252 11.743313962949639
Zn 8.585180740310907 8.252060988242635 13.06187970335986
Zn 10.432154719393795 7.859821289335373 14.769051519470514
