25
Energy = -14.13494398 eV
Zn 12.367154405277445 13.86264347659274 8.752662488686292
Zn 9.930265146222414 13.711197442216408 9.456676110542237
Zn 11.68433506204513 11.224440510696038 8.878922424922074
Zn 9.204910310278734 11.534931859048402 8.26740825282517
Zn 14.490964814611672 9.656059185224123 8.975762194876495
Zn 9.121782514822014 9.816946705987625 10.16338610850994
Zn 14.176003568512705 12.146047206721958 9.118505696671903
Zn 11.245461196485932 12.290363009460062 11.254941693841696
Zn 8.022753408290276 12.09993461481918 10.51005557534765
Zn 11.538726100880325 9.700117006889972 10.992454400458804
Zn 13.941401001280246 8.032875498767865 10.741445028510128
Zn 9.097567723312073 13.836558619939792 12.033020319067463
Zn 13.704671490006685 11.539557778360832 11.704809717479987
Zn 13.904901604543882 14.038124854320955 10.833072357755029
Zn 12.127071056406255 6.857908625171872 12.137860002812905
Zn 8.552903008367704 7.526213143766309 11.145569382793974
Zn 11.491718124789374 15.140888541232863 11.019003929194609
Zn 9.817107159471204 7.014281625525227 13.256723706452277
Zn 9.391467309019335 11.11085888479424 12.667739347266773
Zn 10.507732033717517 15.48547710552646 13.356480816015111
Zn 10.751692990316142 9.242111340548918 13.814933559183439
Zn 12.666627846930838 13.681913389029855 13.049963682264062
Zn 13.24866535769675 9.322749409257826 12.933458274291434
Zn 10.264443230749748 13.102180322320946 14.282769986691068
Zn 12.096938458868452 11.372884766682688 13.999639866443834
