21
Energy = -11.61489633 eV
Zn 11.983482317630687 10.17474098817101 6.906139931940215
Zn 9.484304591554109 10.835897547266491 7.510321192581733
Zn 10.260344987763808 8.235842008268216 7.456368266313826
Zn 11.591187643448166 12.279770153687105 8.410473664849677
Zn 7.1072672628671585 11.132402454151135 8.640801091536177
Zn 9.16085297848087 7.7990959132023 9.763686802278777
Zn 10.982845206754538 14.25183209627388 9.8788711838156
Zn 7.734509224115331 8.799354364316542 7.6862907516745524
Zn 12.759826258284543 7.939916543344691 8.000629467481895
Zn 6.818581479208418 9.033643117538615 10.061850679204706
Zn 8.919590653772985 12.850067924435772 9.254453218264278
Zn 11.722260565562815 7.922989678348904 10.338686067050176
Zn 8.264608006308865 11.085221753061443 11.100020068850986
Zn 10.266020522927153 10.131127947615367 9.843085718849853
Zn 8.445937088125776 8.65244161030832 12.070898482833137
Zn 10.734161263962832 12.328581446057312 11.481700782026712
Zn 9.964693493366276 10.507380941729824 13.174459398231864
Zn 12.889097186860981 10.244416766524242 9.3715313466198
Zn 10.859378816184478 8.05487556894055 12.786656449543374
Zn 8.58611880234235 8.320207083383567 15.149976884822765
Zn 12.136918018697932 10.137481685368426 11.82202044840435
