28
Energy = -16.77707726 eV
Zn 8.681964943701223 9.416310974816415 14.176180379996106
Zn 9.576048920449761 7.465363654169185 12.552009685631655
Zn 7.2515336947683195 11.200788179416893 12.946815990360822
Zn 7.267084437117998 8.554288355331568 12.207050197438782
Zn 11.217892594715003 9.436668462617577 14.112317196457388
Zn 8.561586502998352 7.707235802432595 10.131416465902122
Zn 8.687030407227539 12.9187271703392 11.641243263732752
Zn 6.577927388302552 10.441734086490564 10.624102453862145
Zn 7.799346264615463 9.503946499690317 8.538751566872739
Zn 12.139268296782543 7.497964890203956 12.813321140218168
Zn 9.89728219864438 11.64264487784472 13.591415624719678
Zn 9.56141267302353 10.087758882580331 11.329082362564016
Zn 8.5743876053248 11.789913378448894 9.343539091495712
Zn 11.230223158259665 13.126105219296967 11.974222584517564
Zn 13.77285893478427 8.311494395442768 11.107719115326104
Zn 9.37248959300662 10.854755597519102 6.874756759865698
Zn 11.150761898247227 8.050531684180086 10.428422115555463
Zn 12.154713243300979 10.648444224596043 11.974591821041871
Zn 11.058382631651279 10.817564336537476 9.495610584671592
Zn 10.386846162830036 13.711985426900931 9.61914063183674
Zn 12.869546201113039 12.784256436115784 10.039550174699826
Zn 9.31683826772873 13.370303548267268 7.21086578499764
Zn 14.302246517296892 10.655550907526958 10.373410698544998
Zn 10.177135854494589 8.56970124980517 8.077137388888021
Zn 11.805272752395267 10.212743564761558 6.801693036379318
Zn 12.966702108082 8.840973741835379 8.661760106729217
Zn 11.760642824947107 12.830986260147082 7.51223295676503
Zn 13.744125363570843 11.338969179563733 8.020887694366182
