20
Energy = -11.73544955 eV
Zn 10.498262568173546 9.126484878973805 12.767969973195356
Zn 9.96184055107171 12.583288366046295 8.681143841324822
Zn 12.090400538351458 8.322902066797285 10.79431983738209
Zn 8.665857103470612 13.276390974241659 10.782100509018624
Zn 11.206061335301024 12.772224653014083 11.115741703426128
Zn 9.382543886420617 11.570476652633227 12.768481778538483
Zn 13.116295361086918 9.27333041583996 12.966006356948345
Zn 10.406559513777184 10.382989730228873 10.406665147415186
Zn 11.560817412515087 11.567826452075776 6.8868435589016
Zn 13.159906562249173 10.87746746010135 10.915032119919639
Zn 7.991906000540937 10.942532334050984 9.426422145212126
Zn 8.204579982563036 9.376187814047078 11.58098986131704
Zn 10.667440010956522 7.607453716737792 8.680883186835606
Zn 12.305274918407294 9.744178701091846 8.6348136067374
Zn 6.98480010954257 11.64534704674951 11.749582580188061
Zn 12.664700230575315 12.483212481375496 8.977883470127571
Zn 11.89693890025937 11.469909908519325 13.262061377235216
Zn 9.781485127963805 9.94125795588027 7.821957815380465
Zn 9.696183046094985 7.2343499717839705 11.057768112171907
Zn 8.231285007064711 8.275326586197679 9.196471185110871
