26
Energy = -14.89020396 eV
Zn 12.978784793900596 8.093462026578269 11.8237027343194
Zn 12.747156125718814 9.05158024331816 14.091558468512615
Zn 10.79637037707258 10.446703714479947 14.880656774039656
Zn 10.651602069607788 7.700945139865238 10.563757876107855
Zn 13.03611811233742 7.921709846771912 9.24812510734624
Zn 10.347303176890044 8.666322734764814 12.984145807293897
Zn 8.591563476997992 9.114390001100713 11.081138714363417
Zn 13.154260664774817 10.365981725687835 10.613186236029486
Zn 8.720390706746045 10.830034510289106 13.502416531708475
Zn 11.215059659178696 11.124772327009937 12.126306051262272
Zn 12.758573927843235 10.140583936829941 7.9615749429550196
Zn 10.851564235617618 7.983230734808752 7.980964178966212
Zn 10.50229347551051 10.328271790442793 9.76975988741654
Zn 11.653706658775949 13.803362971531138 13.005160786642637
Zn 13.338904992421746 12.460473448767985 9.148627120242573
Zn 10.022367677754959 12.882862222893465 14.674906620321849
Zn 13.483034349011776 12.717793722069876 11.722414108429636
Zn 7.292741606239725 10.22382116545149 9.21726146857173
Zn 9.242590674436727 13.271795225344682 12.189550213836776
Zn 7.466867420937261 11.476556605671309 11.458880114218733
Zn 10.555906627533387 10.186555589736553 6.603447005616361
Zn 11.203691061606955 13.477640892245997 10.387042100249639
Zn 8.472636310449236 8.783854715693913 7.5268133734912706
Zn 11.000448795867888 12.341178068667444 8.050408045805797
Zn 8.865561069615486 12.481771332436336 9.573146142740908
Zn 8.427805835305321 11.501649189694515 7.192353471663164
