20
Energy = -10.66107001 eV
Zn 9.992954845361623 11.193178619479863 13.399800527083318
Zn 10.146336445269002 12.977613387791687 8.987013826299933
Zn 9.873255611741813 10.1396553386549 8.259594702225462
Zn 7.913406520713008 11.463725237618897 11.791079122092972
Zn 10.570447884704436 10.831776238653426 10.740665278417625
Zn 7.797324543554847 11.450072930374263 9.07527069717319
Zn 8.269495132326032 9.185670442865014 12.921834680700425
Zn 12.290054195185188 12.679530883600409 12.905071922614331
Zn 10.01854941375185 13.265030693443236 11.788880963942324
Zn 12.173051925876072 8.951062224371292 7.890328780492814
Zn 10.517784734260916 8.261614936227877 11.92103935450661
Zn 12.277514454122274 13.513833220870623 10.398634899644856
Zn 13.754941340197043 11.539935127037834 11.101913219075662
Zn 7.934654550405456 13.731348909222012 10.362505400563453
Zn 8.458543980067965 9.187197366509203 10.302191933231722
Zn 12.28431459669807 10.081751718258701 12.806494936635044
Zn 10.473129385257979 7.729907521483847 9.432332120255499
Zn 12.31897196264454 11.347890093616297 8.880452865241992
Zn 13.470474762526996 6.631792645065616 9.871667327978246
Zn 12.774681772881348 9.147300522401409 10.473115499370973
