29
Energy = -16.98468846 eV
Zn 11.471413423791818 8.578660902712157 8.016429394132032
Zn 11.153992522410883 11.176838659689455 10.491557257660817
Zn 12.530943999778243 13.635057519248699 13.616926705100582
Zn 11.757821292293185 8.010422241109891 10.592283614146561
Zn 12.96456876388125 7.084947132740178 12.61230790377609
Zn 10.0919904241757 9.50968308615376 15.130899391819007
Zn 14.332087624166782 11.788593298902828 12.94014954657041
Zn 12.134758070169594 11.109809472294696 8.026816340337493
Zn 13.224077375063988 13.762312685121358 8.936092063259366
Zn 9.076552198614369 11.672704349590424 15.997755678304165
Zn 12.317832207730152 8.560136456487502 14.51639324551656
Zn 9.54195774699326 11.634301019683184 7.038295459892607
Zn 13.222441216757348 9.714461983130064 12.020316641812922
Zn 9.353429321974298 12.953260225780692 9.558313851470805
Zn 13.660240389481975 9.167319512475723 9.210119281701186
Zn 10.352738515684988 9.438716407990098 12.44809249176979
Zn 10.953415163949067 15.232537425039075 9.153702998952138
Zn 10.54190630790527 13.459641392016199 15.121836395507371
Zn 8.309196854754974 10.662928348356639 13.704202821752268
Zn 13.767156654485602 11.533410904336296 10.181318964824271
Zn 9.169543021902845 9.155124092540136 7.334573674791287
Zn 11.990775153664162 11.132055759895144 14.200663305064731
Zn 13.975496850819464 13.842296794634409 11.528713830823818
Zn 11.411966227667909 13.682709859476638 11.130553517696255
Zn 7.879310428710161 10.835888559410765 8.825418729987588
Zn 8.047358486823972 11.207327475320398 11.275603535067894
Zn 11.191601726241615 13.430668418862052 7.423925452024578
Zn 9.87806946698349 12.495382731731688 12.717052544407643
Zn 9.472046933354669 9.116392481868806 10.01512366806744
