21
Energy = -11.93259461 eV
Zn 8.5186804173568 10.453067965981264 13.314163353830882
Zn 4.287372919666481 11.802384379472056 7.845777484360667
Zn 9.864506024986108 11.679279812649591 11.50176225959776
Zn 7.56727416946909 10.538622599460892 10.879615564643522
Zn 11.276800558854525 12.536093930986445 9.582293963335408
Zn 6.573432845355874 10.68069342046623 8.445345009584214
Zn 10.925178620564562 9.63331625700706 13.124207339447311
Zn 8.79413016026903 8.376033589676565 11.814970543692747
Zn 12.238615660349177 10.654972904969028 11.141422961378899
Zn 8.79430905182004 11.935311030920916 9.0075005098787
Zn 7.63613952786941 8.409975833989462 9.373198697734988
Zn 8.725571014375081 9.787146014511222 7.369417115658634
Zn 11.294915255526632 7.747761046152871 11.396049899869347
Zn 10.071113386605681 9.614095212427141 9.817522908393206
Zn 12.994385064239127 11.030657848236164 8.516992225044344
Zn 10.706402047052082 11.508116289894755 7.298224299406516
Zn 9.31721045650462 6.507770672091942 10.183168070373423
Zn 9.252685454853035 7.2303283666766385 7.719845358849038
Zn 11.193030566118358 8.974349026578896 7.583347413189364
Zn 11.50819823300892 6.594323660682577 8.939210865478262
Zn 12.802324065568492 8.718629959023314 9.54046871455926
