21
Energy = -11.4602886 eV
Zn 8.292399884412413 9.186925983691015 7.450581738906953
Zn 10.826123914193513 9.11424968697659 7.797097603227281
Zn 9.51792735048971 11.439204516676321 8.150545590341839
Zn 4.913803023396684 8.472823082919875 7.444632760029877
Zn 9.363087974359377 7.798292961450087 9.58259202113764
Zn 7.091199030799554 10.968544787269044 9.055230057608792
Zn 12.0579591230185 11.472924742452248 7.5584771904338055
Zn 11.944601503081733 7.078159892287248 9.106078863302798
Zn 13.052485405147165 9.47341670455716 9.148767732116033
Zn 10.754489743171945 13.424379655907739 9.374336394350424
Zn 12.80554609324344 12.05561205289498 9.91291319913149
Zn 10.385600815316092 10.094124354180225 10.22907258113626
Zn 6.795655553877902 8.407350987520303 9.37236446392498
Zn 8.780492811554572 12.167745069956858 10.619164409110285
Zn 12.084474791994607 7.721697461644817 11.566234815843751
Zn 8.023025291634086 9.719631257534028 11.254930504718166
Zn 12.564879094267946 10.220219652817018 11.585113584759176
Zn 9.607205273125217 7.924242735810068 12.14560387365024
Zn 11.069881093681763 12.3128033149283 11.941330413700356
Zn 9.022113053703922 11.253421603404844 13.177563449195212
Zn 10.976773765087374 9.623954084678763 13.457093342931602
