25
Energy = -14.35266297 eV
Zn 11.943525195658424 11.941258586224441 8.736854610714701
Zn 10.482216297954732 8.03766250384932 11.454080946332718
Zn 9.336377662571346 11.45330908741605 7.520893912095868
Zn 11.072815183992093 12.503917768205676 14.342543224077367
Zn 11.222725250871129 9.52532230374779 7.943659657435972
Zn 8.600901363440293 8.894480352883969 12.92720754142639
Zn 7.184307090764245 10.399468762665968 8.971944607183834
Zn 14.558567992777903 10.392654242392755 12.068139781959417
Zn 9.915544773180889 7.190760464571595 8.974796661851792
Zn 13.51964145766785 12.495793641338294 11.074758556740557
Zn 11.343260852179426 10.17110599388011 12.887345287180091
Zn 8.71615313235315 8.97838727868213 7.6121248672697215
Zn 7.76045025660855 10.8740215598036 11.58108137595831
Zn 10.080617395929162 12.668680269314036 11.844526588810925
Zn 13.400331189913349 11.82409901845828 13.746988149919794
Zn 10.242005596492598 13.773269186526033 8.424221393482712
Zn 10.41077146295084 10.467457231348046 10.379570843936243
Zn 12.350872174560028 7.617092656832929 9.32768024387764
Zn 13.30542281327332 10.02257576007971 9.620848343292957
Zn 8.96439416436787 11.203655311518212 13.831405144098477
Zn 12.326661997741256 14.122877773847126 12.82663726332443
Zn 8.587237193227992 12.498878738156616 9.814607156012308
Zn 12.975309529517563 8.449449915480795 11.646213368197628
Zn 8.062371008173859 8.374869961069376 10.295967611216808
Zn 11.831606929367393 14.313039597242133 10.339990829138612
