29
Energy = -17.35489957 eV
Zn 12.899320602411247 12.283151364206702 14.651296085419869
Zn 10.553249126974562 12.330696855396537 15.523124028347972
Zn 14.892533251570631 12.315174296512241 13.136976791281631
Zn 13.605527491609534 10.094408125937717 13.07777314538438
Zn 11.13976797718539 14.022136422501024 13.521489652746764
Zn 8.697741172364065 10.97378856376047 14.333283191303721
Zn 11.203141180766053 10.112112619803737 14.136735718653341
Zn 13.249554171017278 13.8783850669011 12.035404509725753
Zn 8.67938286333534 13.489342390985966 14.155560808269437
Zn 11.19201643995113 15.005762576345111 10.997812537505315
Zn 13.958273492177874 11.579789106830003 10.775168582141681
Zn 15.612514962542102 8.637926755110783 11.96761931295085
Zn 9.11044393896386 9.324867489852522 12.524524932328422
Zn 11.452888414599439 11.786565193247702 12.055425337858237
Zn 13.178202150405095 11.025943718736842 8.327169148915138
Zn 8.855788918676327 11.924202284673559 11.852016684593
Zn 11.759025226498027 8.921257975325657 11.76769421655974
Zn 8.900144706437322 14.631939644566332 11.936614897848319
Zn 9.483561294108656 13.376215212556724 9.680897133684464
Zn 12.069081746499396 13.027484973493518 9.701932949023059
Zn 10.981614584414258 12.30155159775895 7.530002798766602
Zn 14.28291502159906 9.202141133298142 9.835623525656697
Zn 9.648052286292604 8.022390899573633 10.514903332474065
Zn 10.338298115868072 10.650929284073925 10.101986897087881
Zn 12.123074713079179 8.147004011446862 9.255684442315845
Zn 8.490546892412976 11.713820332383746 7.849308302402613
Zn 9.946121964010452 7.477332640047239 8.028246720479737
Zn 10.880772744639994 9.803819758193008 7.500346993552885
Zn 8.281338787737518 9.372363735503479 8.647021892688176
