27
Energy = -16.14028187 eV
Zn 10.97092028708655 8.556303799714001 6.382615178147777
Zn 9.660900277869251 10.817904591979627 5.985568825207565
Zn 8.504103503192422 8.820161565419983 7.07507308686319
Zn 12.066902512617553 10.892339860838085 6.978636572306241
Zn 10.096870049049306 12.624084802026498 7.772986064042197
Zn 12.647903575695059 8.690674551793851 8.364530818296359
Zn 7.8656800458936456 11.229041164110152 7.9536499732697745
Zn 10.165234813916744 7.555662549265739 8.726881400096888
Zn 10.493408686723974 10.272655691960923 9.070586102948647
Zn 13.912141968230722 10.859359690485721 8.871830702952622
Zn 8.081238932654584 9.161219731782543 9.665531361050776
Zn 12.454648709282257 12.942531923899054 8.589259430682773
Zn 10.528342695367748 12.650505295053694 10.468203215677216
Zn 13.099332565726039 12.309532005694368 10.985678797781507
Zn 9.420393447958604 7.382148312539913 11.222723874460973
Zn 11.961582717053773 7.33372483122108 10.518619943975994
Zn 9.759419482548056 10.132537352132726 11.451541485431436
Zn 11.846188158446687 12.43616663043775 13.17392439000003
Zn 8.023365332184643 12.463460326354477 10.160382328556457
Zn 12.31665875855195 9.873715132331116 10.95048680551556
Zn 9.188212246952673 12.373717103633279 12.8018944379298
Zn 11.443320924211912 8.297494850645268 12.870393669325791
Zn 9.161629673847669 7.962259168678672 13.863329383807892
Zn 7.264072833225848 8.670363057965606 12.172910937225765
Zn 6.805270524143312 11.214130139243865 11.994592266096443
Zn 10.505931414196928 10.390739799928937 14.098726373387963
Zn 7.962130410124998 10.293370617615887 14.035247121715315
