25
Energy = -13.71916516 eV
Zn 9.067083315204563 13.814908660460302 5.757615436844132
Zn 10.73294956822289 14.206345372831985 7.649358593365278
Zn 9.810263138454749 11.425020536895087 6.6259845584901935
Zn 8.557603472221128 13.221928393477349 8.474356813961137
Zn 10.752715079841915 9.35731374212529 7.777587346180069
Zn 7.342284628282078 8.565346269694018 10.037823457929171
Zn 11.495408646371565 11.889099661655372 8.553214867660676
Zn 10.969251963879671 14.027365324866901 10.23759037621634
Zn 12.35156711357157 7.864638137905317 9.280037282654812
Zn 13.33102775291059 10.134593511343173 8.944807077054701
Zn 8.778509714827727 10.626540983415298 9.084308698274425
Zn 9.78818516235528 7.948457953671304 9.70415677567072
Zn 10.716656784566258 10.152020555987697 10.879125280450648
Zn 12.682192955636518 11.946141516856548 10.776177157487789
Zn 13.314022441203075 9.262539339765897 11.40939684409914
Zn 9.159199485394115 12.364152931331384 11.067974370071573
Zn 11.376700055241047 7.3953754880828395 11.743485030710547
Zn 7.529011254723822 10.529156739108183 11.596259913548295
Zn 8.82069392208779 8.308567191767276 12.223323958175355
Zn 11.046218020897127 13.20872671022344 12.700401217689707
Zn 9.647151893269877 10.653816443683064 13.231976297189671
Zn 12.238034479028018 10.909729430627003 13.072234717062583
Zn 12.817421958996357 8.315835298206203 13.754090679512105
Zn 10.296268641914843 8.028149514040951 14.20649309973054
Zn 11.501460433453374 9.966112174533883 15.334102032526138
