26
Energy = -13.80417263 eV
Zn 7.068755496001563 6.767599552748901 7.833033027933237
Zn 12.089866221473612 12.520727047658466 13.773032976340913
Zn 13.099524454147666 10.61032017161922 12.201074853111853
Zn 12.34347221581078 9.627400855272676 8.400965267923477
Zn 10.292754555735113 6.555196060239008 10.88949379267223
Zn 9.219400745686611 8.375398594827551 8.72889540353269
Zn 9.160719210481858 5.550269701511626 8.754961678195075
Zn 9.457733546717636 6.731787241942575 6.453906122402512
Zn 7.677349950390771 7.292713800876504 10.490561192015262
Zn 13.259033501888828 13.179708964620044 11.653579929945955
Zn 8.451512371908407 10.906339452651231 7.625197366518459
Zn 6.957978151356569 11.653012255627063 9.657951393842618
Zn 9.40377329132429 10.361721551911744 10.11526083802379
Zn 10.455052606101507 10.838527869721286 12.477852982652614
Zn 8.284985807409335 12.293556236453332 11.925924691915078
Zn 6.676357908839242 9.180979384836691 8.829851937125367
Zn 7.760240928597326 8.766082366057486 6.28289788310675
Zn 10.554404365398383 13.43573303812226 11.62953133187831
Zn 7.171916577309714 9.762823191778839 11.466973877206541
Zn 9.31578113274167 8.480688119440307 12.213718244293498
Zn 10.433550761074743 9.210695579419406 6.558906942783667
Zn 11.538078072592427 8.826505400980327 10.760706566437696
Zn 11.417439359181028 7.190560570509257 8.429924258984517
Zn 11.764021529243454 11.581458005188118 10.087724776733978
Zn 9.399131660435637 12.914430239099746 9.363755251102106
Zn 10.92009284620616 11.558692014941435 7.567244681376592
