24
Energy = -13.31264621 eV
Zn 12.362639787650348 9.667453283866516 7.3672472540558065
Zn 10.20716824312514 8.271092603126345 6.845383327432994
Zn 10.471519873254971 10.580509942347733 5.760299261107184
Zn 8.587564229454236 10.745361809626917 7.544299750242297
Zn 8.170046157132584 8.394610485970317 8.474361492857021
Zn 13.807061886855205 8.964358475778628 9.558390859094455
Zn 9.429170051933784 6.263500949453004 8.355552301054544
Zn 10.890187705046076 11.839453017628585 8.018395119325262
Zn 11.936617776284256 7.38498207692748 8.609812828334805
Zn 10.457380927161843 9.491541052230664 9.382617846566678
Zn 8.59782954441109 12.60455060495977 9.396905281008207
Zn 13.142340947403277 11.393162473218513 9.200970974946381
Zn 7.892089743103081 10.117280570095122 10.22330437306758
Zn 8.942914037299794 7.788000214786259 11.04653589503142
Zn 10.648739880255073 5.95149325850846 10.488037967526667
Zn 12.921691868062908 10.337361072309859 11.587947683182804
Zn 10.932183544188197 11.825724292345317 10.57715348858329
Zn 6.521590495967788 13.153699443117464 10.936807606037666
Zn 8.79878329670249 11.967929236517028 12.069582209633307
Zn 10.269065795763568 9.821027521411366 12.081572905729136
Zn 11.88247592814066 8.026732958187303 11.160045508287649
Zn 7.330597691579108 9.241753016801967 12.884595098056604
Zn 5.483848845233121 10.70185135680398 11.324496121616109
Zn 6.572082309244607 11.722160849235397 13.361275412475003
