23
Energy = -12.63289275 eV
Zn 6.280477769802656 8.862593191458247 8.752542859931001
Zn 12.040183309523067 9.06546773114277 8.549728690891499
Zn 9.659781716067313 9.313108348084805 12.618395919063861
Zn 7.488934414279462 8.751960207289603 6.268292379809283
Zn 8.47945530378463 11.653088189733783 12.375942468291449
Zn 8.806032066388306 12.139674383240862 9.502579831403786
Zn 12.149518146913682 9.016495165399174 11.4068621606592
Zn 10.051169301239147 11.043477454251487 7.288684730037816
Zn 12.760106966254328 11.230078186586988 10.132478807611948
Zn 10.174314346591856 10.047589606089424 10.069813510808986
Zn 9.810066732020587 6.480306844079348 9.219767646313652
Zn 11.228674596667314 12.888519596658835 8.803095951961659
Zn 12.262341039861596 6.8807250543958265 9.817305861224273
Zn 13.120959911768988 11.167281221690386 12.723297115321076
Zn 8.26690570096795 8.264611077695337 10.469921864804684
Zn 12.657730349414981 11.276197285469582 7.449596833287945
Zn 10.772659033395206 11.408019424599692 13.695613487874196
Zn 6.966488696205386 10.534814832058684 10.649209333787239
Zn 7.444840978909058 10.896671908097366 7.788349979166679
Zn 10.416499600769827 7.07097218593642 11.679339998768107
Zn 5.695075315922734 7.008120072044987 7.038201516514245
Zn 10.716991109209953 12.48275785950424 11.311868730170037
Zn 9.480051384639122 8.612685352993456 7.970542047631979
