26
Energy = -14.99499724 eV
Zn 6.6362936216656045 8.814305377577217 6.795144463985326
Zn 8.24489426068393 6.716014061534101 6.586398098622216
Zn 6.721445153144907 11.433605082483146 10.365034687226377
Zn 8.61522065667733 8.851081762614228 8.733823624315937
Zn 10.292073382786626 11.365117287139286 6.659365487495766
Zn 9.490052470982679 8.944330907732729 6.2510364564732015
Zn 7.782576096212 7.063029145436025 10.636324465265746
Zn 8.663901630128898 5.516129552480968 8.832037495874298
Zn 10.167748982250592 10.122086210688142 12.873842620965336
Zn 10.51396613362966 7.032894190016578 7.935513326845142
Zn 12.159288541145553 8.05999202866382 12.029287290196883
Zn 7.879293362234426 9.50225066064478 11.644405941343564
Zn 12.681670545619903 10.513880378549302 12.494257850876032
Zn 9.65569337681006 7.591453124256136 12.256799686029721
Zn 13.015845293751749 10.111318496582385 9.988027374918012
Zn 6.165692122223142 8.995322065988868 9.658804004414973
Zn 6.016564962375751 11.106410398832573 7.942407974227358
Zn 6.386121378508603 6.7313531373499975 8.407777163436101
Zn 7.79933036848958 11.093225766999758 6.184746811663415
Zn 10.35638136001124 9.675117548317829 10.228879752315663
Zn 8.899699764857923 12.010788858115554 11.551208793934462
Zn 11.434715811479062 12.39329742361311 11.240489722715257
Zn 11.613955554958832 9.436453140712436 7.774939409468365
Zn 11.664360487266176 12.000425278618586 8.70682724500714
Zn 12.422990481588938 7.5751160891528695 9.522795035288425
Zn 8.85991246649827 11.484690291880868 8.839513483078385
