28
Energy = -16.25510945 eV
Zn 10.467383275004707 13.724883334026796 14.979875279631672
Zn 12.543487325638148 12.56434070939253 11.239748258332988
Zn 12.18263229195416 10.02199397770573 10.1286138987945
Zn 13.66858994901885 10.24544620010644 12.334511960590003
Zn 10.711132730976548 12.075605680920466 9.070372882900855
Zn 17.095523397270036 15.05945758241602 18.312992215596857
Zn 13.19143846782718 11.825163305238414 8.33407070489261
Zn 9.734661491263154 10.459935152967615 10.830963367623209
Zn 14.57922501539267 14.155201173881611 11.998159866318165
Zn 14.767721062582218 13.564730739360684 9.504343035911662
Zn 14.781380201907577 10.846577708710477 10.005781658663663
Zn 14.201734427007803 12.00320656748506 16.137474993483682
Zn 11.257741313141041 9.740165644550622 12.792282562060427
Zn 10.229352917991699 10.887747170386023 14.845886843158826
Zn 11.670473506462022 12.061294816843608 16.53537613979512
Zn 15.27567087005128 14.566359071962923 16.450099202534087
Zn 12.854127761376866 14.33552000402021 15.880265213706068
Zn 15.714826988382102 11.847193878260304 12.131131405960067
Zn 10.53880240382081 14.833217045822778 12.70493565719068
Zn 10.308109435985173 12.311736690335355 12.584005021910084
Zn 10.180281208817403 14.274144376002427 10.243548605743058
Zn 12.801956727835185 10.107449471731222 14.939902773346203
Zn 12.882236580915194 12.6696255984695 13.657762528078118
Zn 15.565773678719482 13.36520824153092 14.255802520352757
Zn 12.50760007982982 15.438366084586471 11.05092013949727
Zn 12.934435534807722 15.471683548681169 13.601189654267706
Zn 12.296177127494682 14.225420167768474 8.787173759401997
Zn 15.329362496923016 10.573738351749197 14.419103721096509
