22
Energy = -11.68113794 eV
Zn 12.032892523578221 7.790387848984351 11.40545296790339
Zn 12.331273342682874 8.161466574322192 8.861223649279948
Zn 11.822454727806042 8.613055776633956 13.758129576680323
Zn 9.99928238292661 7.464613883659444 9.815428045937447
Zn 9.640941739720997 8.974925439160677 5.233699774381434
Zn 9.739065204127751 9.259652568908098 11.689386450053155
Zn 12.10798474583217 10.296409694446547 10.834591731927434
Zn 8.056410539766922 9.14654324666841 9.564805384009558
Zn 12.275778683259972 11.08251763992595 14.022921527795102
Zn 12.193798621535368 10.63665977958838 8.247829142940462
Zn 10.090664280956684 9.06433957553329 7.800014633914467
Zn 14.722132959601089 12.631492552904424 9.917769263803049
Zn 7.8392801577858116 10.926089750332348 12.681205889270702
Zn 13.131665650177126 12.293309448020162 12.001569628983182
Zn 6.110587969225999 10.035338389059863 10.928006976776865
Zn 9.831560951305892 10.235720188279954 14.157669230231344
Zn 11.575897814815356 14.061806053828727 11.098078007506443
Zn 9.855929009128408 11.07248948058034 9.504229912880067
Zn 12.08956327664789 13.083680804024516 8.809417176078638
Zn 10.249293618435653 12.018592176962008 12.100750115407202
Zn 7.4639535666719725 12.215400023988684 10.424465029350442
Zn 9.494373191527922 13.608309947984228 9.775926117798447
