28
Energy = -16.69712345 eV
Zn 7.59220367710773 11.94780258947849 9.488255797241088
Zn 6.319696713161851 10.557555808191019 11.304585469696992
Zn 9.784327485812192 12.298315613972866 8.278297314311539
Zn 12.095062879125967 12.878770990205513 9.115347089058204
Zn 7.280352906630479 9.370728350496288 9.269503927877771
Zn 7.715022823918707 12.639946890257333 12.043213659103124
Zn 11.458074586867186 11.047967647493936 6.870511631799116
Zn 8.917882171780262 10.098181404112534 7.412666262956392
Zn 9.830972698966614 13.425770369709706 10.58193615777786
Zn 7.3824730428702825 8.160864317055605 11.783201262336366
Zn 9.46808957064909 10.681888638520347 11.059762257133405
Zn 9.831326504563572 13.41553579643868 13.200943902445466
Zn 11.075292433331866 10.067150610991149 9.32436008256468
Zn 7.8748537744153015 10.226109168630861 13.38976432254623
Zn 9.57868701706133 8.061056070943499 10.346841343108814
Zn 10.708319760358918 8.577228139643436 6.403825605314797
Zn 8.910209768815685 7.465945735262683 7.821619520773319
Zn 11.828478829499122 12.41895116166468 12.011584430914827
Zn 7.14848559012998 6.544710960674612 9.507309403083815
Zn 13.7689500777754 11.24303116520997 8.056780365950189
Zn 9.84222558058955 8.496734109758314 12.871642865211335
Zn 10.338829901847353 10.966425157512692 13.755243867303356
Zn 13.645537724940178 11.273797602871824 10.546386473244116
Zn 11.967121255200064 9.851085913230554 12.023054406127743
Zn 11.45864546262187 7.274008126217901 8.75691100541164
Zn 13.043146802706811 8.848195155615743 7.384767667541408
Zn 11.770648134482592 7.3669443086718145 11.456481383003421
Zn 13.384623846222734 8.814839218621954 9.954743547616548
