21
Energy = -10.8070215 eV
Zn 13.360124421068987 9.752771348087737 12.175266926246435
Zn 9.217657252436384 11.933902996284527 7.589102920020525
Zn 8.682670590017494 12.268919766824546 10.339193159142871
Zn 12.388014841558325 14.396726019261326 10.848962081634424
Zn 13.945040919461727 11.655057071694664 13.915794715465774
Zn 12.174723357716589 13.463698755246062 13.430667491171127
Zn 10.978348446535394 8.4082242012097 12.107096117510507
Zn 10.990269145517683 8.371882276724259 9.291250869449783
Zn 11.234065701916062 11.087901647837045 9.198309121001278
Zn 10.13617232452298 13.739075690898199 11.89147082043143
Zn 6.887684077113416 10.745406391242827 11.311763918825093
Zn 10.513198219600953 13.673865566257756 9.093052658736182
Zn 7.534186071803948 10.276225390155707 8.724389644962224
Zn 13.253149516232703 11.961117122115976 10.807761635797021
Zn 10.841788707603092 11.074037498953649 11.905609290911531
Zn 13.437074137027308 9.739990056539465 9.434092946566006
Zn 12.975101246685078 7.635607481519201 10.724197472860324
Zn 9.100317958512026 9.449267337168259 10.722337478868337
Zn 11.914572948766228 11.902541705805012 15.517981284007213
Zn 11.55620462551042 9.765758002577112 14.170305137052187
Zn 9.557550341002607 9.370197307251843 7.4448670061495
