28
Energy = -16.62564304 eV
Zn 9.904812552142882 11.654166746103838 7.2058472062128835
Zn 10.710616610988495 9.151409273845953 7.3140791153386555
Zn 8.192707094133574 9.650884149939575 6.987395147050055
Zn 12.505057692973102 10.965577373224937 7.024778533377252
Zn 8.757307709579662 7.485715178649711 8.229373455054125
Zn 9.52583366107978 13.536724041028622 8.993040900818045
Zn 11.313493908933701 7.2219214158866984 8.850679738693621
Zn 6.641948290468148 8.986561493985052 9.186778367692012
Zn 11.911517288312602 13.290101457066038 8.055162180797574
Zn 13.05642054179755 9.214388408044213 8.954705972969572
Zn 10.827467120495616 10.827914219864816 9.551324154763904
Zn 9.428066029849292 5.524704470968777 9.794624369268238
Zn 8.293736224475282 10.978662972041453 9.220187443034886
Zn 13.76715070069316 11.793603604457008 9.089795324903287
Zn 7.3532840790058565 13.17750923338318 10.383924930479097
Zn 9.558797298558057 8.857478483294694 10.378369679553096
Zn 9.673966350485903 13.072850899291163 11.596979174502053
Zn 11.996911944201779 12.841284789944252 10.733149968857148
Zn 12.118625501883464 8.159746488440375 11.41192986347516
Zn 11.756303869710719 5.6183820553902 10.850650047844942
Zn 13.079636098340911 10.490410661719526 11.204235225925936
Zn 5.614232539700281 11.32863427705395 10.404167148528899
Zn 6.3931678839909525 9.21480106685743 11.773831479456188
Zn 9.88864784080128 6.788410284078376 12.163872323465494
Zn 7.505432867155999 7.009363311913394 10.723949384394018
Zn 8.172342186843204 11.074420601582348 12.022434186626361
Zn 10.716117123104068 10.62105344902409 12.244744945573553
Zn 8.64677318758035 8.773693790206488 12.960363928629944
