26
Energy = -14.8155681 eV
Zn 14.079773739757036 11.275530906847486 11.437409702766235
Zn 6.496943978419632 13.01538161446398 11.112131339437054
Zn 12.462001896816599 11.166597420938954 13.48743520308265
Zn 12.622327820746495 9.792904800540564 7.906763377341921
Zn 13.722885930078403 8.91887425374529 12.376369407295732
Zn 8.154020623142566 13.994789845749741 9.173792035482279
Zn 10.344733156885468 12.518455725646138 13.11666845365682
Zn 10.591207839907387 11.153123243044165 8.531616940739235
Zn 10.643815837044496 8.529555542922381 9.180747128205484
Zn 8.879412283413563 14.084020885557285 11.691898898295303
Zn 12.344030526401967 13.241667886156723 11.739468733032918
Zn 16.836757815162308 8.92906548674465 9.591659308952531
Zn 11.979531416248523 8.682807550020458 14.219364972865026
Zn 13.210185540852935 8.201353957870776 9.937161596694663
Zn 9.988836891974143 9.90863114605873 13.073226377700394
Zn 11.284677306280022 7.862479230472785 11.760662169289619
Zn 7.689317357606966 12.227600251981185 13.24765079835067
Zn 9.33883777170389 11.433189589593223 10.79357884805058
Zn 10.705658364396541 13.595362454538815 9.805798840654102
Zn 8.901376215577873 8.528084120834748 11.143868034051692
Zn 6.991276803878851 10.39721109623297 11.388860857260916
Zn 12.893130340593036 12.326917499912208 9.309441905315728
Zn 8.410451811988006 9.618185772370765 8.819021629253582
Zn 6.977835174975801 11.743681242528993 8.910168400326123
Zn 14.682952002658215 10.29559994471667 9.187460965052384
Zn 11.625483188892494 10.416390165914896 10.91523571225055
