23
Energy = -12.13140786 eV
Zn 11.602749426440628 6.0698155023479545 10.162692433609793
Zn 12.347451849064134 7.9275680537730295 8.665355301656605
Zn 12.783797033142134 10.198236233140069 7.69397462331624
Zn 11.81235803267097 7.788669302832882 11.999894027547057
Zn 12.535657757347188 9.810774763576235 10.498940949589766
Zn 11.784594111025884 10.018963312345534 13.205927693901296
Zn 9.793856091694192 7.127602952598312 8.584590084699109
Zn 12.747388158963844 12.212921175671823 9.32149502452834
Zn 9.395454027548714 6.950059862906054 11.218793916645224
Zn 10.323085709608154 9.413453758160134 7.384272204962834
Zn 12.246709727004752 12.120371573333799 11.809077746013372
Zn 10.040546715335642 9.498316037513385 10.018692539318899
Zn 10.195647945796889 12.03506361861513 10.124666920469133
Zn 7.936833787684913 8.779285156376028 8.122358209855234
Zn 9.422345584906898 9.148343114519106 12.564290499475023
Zn 7.460351191287032 8.515011396624594 10.778603340454866
Zn 11.003012858833644 12.014264843451278 7.441595253415988
Zn 9.925028619491874 11.778333623206114 12.966510757327733
Zn 8.623253532614878 11.4075054225808 8.058229940271685
Zn 8.057251557338086 11.07118596280615 11.390617703037854
Zn 6.597107474934655 10.547685122015709 9.363594434537234
Zn 7.577358472561261 13.62440653737221 11.342087458161341
Zn 7.321211499718436 13.509668215383387 8.795668315686843
