20
Energy = -11.55500263 eV
Zn 10.471931608135836 10.817465414073272 6.98819335941376
Zn 8.991059290473398 8.93081683759303 8.16002026992116
Zn 11.518052704178906 8.671715022636928 7.941019631578592
Zn 10.950290576897597 12.542988939947728 8.97700820032304
Zn 12.788947297462126 10.855022228438639 8.25623398758709
Zn 10.411309104262344 10.46161252512445 10.424366667356175
Zn 12.709913170682935 9.073543787550456 10.215241494537153
Zn 8.635403541278253 11.404851503994957 8.751422478025
Zn 8.825001557242315 13.530347398448763 10.250201002282026
Zn 10.385666819415365 7.82541653335024 10.09993147198859
Zn 7.86660372497214 8.862918154754825 10.465456243503034
Zn 9.186717509684255 12.487876056346426 12.559404366060939
Zn 11.225596308115083 13.451927825026127 11.405771797520345
Zn 12.96732196555674 11.696512501221365 10.69589652478945
Zn 11.373716140867893 8.57686700224254 12.462597450732174
Zn 7.488637999046223 11.340959096931226 11.05196642749837
Zn 9.039414060094895 7.37469265803288 12.260236216204532
Zn 11.408911953116117 11.205366013829943 12.842810341797975
Zn 9.07755055634323 9.927606307014669 12.65479016252346
Zn 13.640427997182039 9.923968078449354 12.499905791365032
