20
Energy = -11.76735586 eV
Zn 11.377030389093937 11.827655830180655 8.483631879159091
Zn 8.806866739857043 12.22002684670185 7.7219851638351145
Zn 8.985967888575892 11.09311704310491 12.859704054979963
Zn 12.509167554762147 10.315318468572922 10.41385001924451
Zn 9.866400416972008 9.863134378485361 7.334186515615825
Zn 7.457800772596417 10.20146799035174 8.518381909251195
Zn 11.341443554590223 8.03837784647977 11.202941456023638
Zn 8.387514802454495 7.744205719343255 7.736103969360585
Zn 8.943792287534457 7.438939001258351 10.443572054006813
Zn 10.791438736834685 12.085713271420808 11.189266038444613
Zn 9.896285322402427 9.894585582694463 9.940769368231985
Zn 8.233495621073553 11.942861526331292 10.420407095218753
Zn 9.334714885448347 8.537514695652309 12.878570053924431
Zn 11.390674939229367 10.097340393116287 12.849711638644
Zn 7.561764031943426 9.57638275590385 11.213406385202829
Zn 9.881344110302603 13.750457978508207 9.434861570058155
Zn 6.549304315655444 7.962989499108075 9.468936290951957
Zn 10.819705017518842 7.607402084379613 8.524233776474333
Zn 12.436972480019737 9.637131902119323 7.718881730860168
Zn 13.232436133134927 7.969497186286939 9.450719030511605
