22
Energy = -11.41078996 eV
Zn 7.6576145020466475 7.990524019936049 12.382847135677482
Zn 7.892307550678134 10.499796480857631 11.851038139462327
Zn 10.10494441328946 10.166239867321421 10.236957229316141
Zn 8.521347473607221 9.152441599668968 5.960582655463149
Zn 9.318336696899397 7.660144921617186 10.52504465507909
Zn 9.617089319004867 9.241198147228822 13.53426344696853
Zn 8.473999924999976 12.434752235905615 10.20416104348773
Zn 9.650204165792701 11.040934009503555 7.693894243957684
Zn 9.840677497097568 8.423149780554018 8.093696431790477
Zn 11.63774389754184 7.024828880330178 9.509802264582603
Zn 9.963511479436011 11.881495510588389 12.461376265391928
Zn 11.601938130645431 8.468077712686858 11.816860899812102
Zn 12.344520174325295 8.65480108232782 7.59390354935633
Zn 9.710442764607334 14.679061928296223 10.845473365305748
Zn 11.918973476464876 10.24103477123857 13.809360125710974
Zn 10.254312588281035 13.324909799173222 8.593178667922533
Zn 13.518042642424314 8.797189653616913 9.945614311854136
Zn 12.834056383511868 10.778859583437788 11.381537076879063
Zn 12.103822208288223 10.964756142172861 8.776858747491207
Zn 12.271350045615845 12.768380569324108 13.25184149444271
Zn 11.865453327953384 12.950317537468964 10.55659178158982
Zn 10.946164922221703 14.90395935147796 13.02197005319122
