29
Energy = -17.55364142 eV
Zn 15.413524238960377 11.373034340896435 15.002735914085704
Zn 14.316198452418542 9.780701718239747 13.22163906448089
Zn 15.191650392704005 11.9613823073159 11.766372276380368
Zn 14.696139027424483 9.66438482777699 10.650341187083866
Zn 13.461794346647679 12.356425666269487 13.520856806508899
Zn 12.697879641716414 8.072874159159426 12.348906570133584
Zn 12.444586259461095 13.173896786553252 11.013869929587909
Zn 14.348627476068007 12.1155958870719 9.44845651704386
Zn 13.1374520799699 7.870285098384182 9.611020998584728
Zn 11.750336816218546 10.214172821104167 13.897142642824138
Zn 12.234764684230592 10.5691609509559 11.1468078650577
Zn 11.009958258941909 7.216636916365157 10.648901211265871
Zn 13.420090396739784 9.991113698846258 8.309426125876147
Zn 11.036526456583138 12.736103496764434 13.290958109632607
Zn 12.04198207709638 12.190962391275741 8.39013499845405
Zn 10.110189223113412 9.243292245419356 12.128448514367738
Zn 8.606628024229096 13.545520894460532 14.055425701449126
Zn 9.741538793780203 14.38037316829323 11.826771159683732
Zn 10.786451345559401 14.212446033924975 9.317573035462285
Zn 9.031646585160509 11.049358435131062 13.582549128791527
Zn 9.97796419012101 11.724081018497172 10.929339723216815
Zn 9.487949108386587 12.220327477371354 8.169542263947783
Zn 10.801372609109777 9.788501156837992 9.07817021779781
Zn 8.670711575482354 8.231834711067693 10.224414843853458
Zn 7.426832976935146 12.806036523556886 11.994240938715452
Zn 8.308791835629656 14.324959337634427 9.759726639733147
Zn 7.571284916484034 10.192140200805518 11.491539490668103
Zn 8.218892332320314 10.008254016585079 8.599570347058204
Zn 7.26523837075058 12.06377500055658 9.62392455257623
