26
Energy = -14.7281357 eV
Zn 8.144431950851006 10.782127340931348 11.626815594932614
Zn 9.021135564733896 6.986017329375166 12.998706184322486
Zn 10.767545485582783 10.834670168809096 11.801237287941385
Zn 11.624075130095234 12.273864173250995 9.859010580063421
Zn 8.569159202354474 11.415873066743908 5.970098025727394
Zn 9.989440711998519 5.733418571831017 11.060620555922958
Zn 10.928464778412767 10.596155166108474 6.390749840061953
Zn 9.522461887521507 10.835425268317385 9.142709190701082
Zn 12.510841308810555 12.928145967362365 7.563565089535385
Zn 12.059345341492795 8.444148239912435 7.321970407205368
Zn 7.373592648832585 12.907612754871833 7.678255429310163
Zn 7.276516061715078 9.822272620970097 7.661437244619509
Zn 9.485410993353558 8.428637628911268 7.730516930749241
Zn 11.298005519228179 7.035545586445808 9.325153249110665
Zn 11.930624524589494 9.568568152543312 9.841918903933772
Zn 6.25203489066674 9.024263108859163 10.251595176501688
Zn 6.803174051457966 11.440076046078497 9.597404080413973
Zn 7.477344416885462 6.639994619029667 10.827235801277917
Zn 9.44197265863656 9.451244646844776 13.451187336417178
Zn 9.974515775689492 13.005948086575387 7.54516665897394
Zn 7.086639928291975 8.578182458831582 12.624813201084665
Zn 9.064388482680656 5.83046752642526 8.709777051387004
Zn 9.157324247211621 8.657645526949251 10.30796007310956
Zn 11.212804459829846 8.116725912054351 11.886872801456606
Zn 7.052702345285518 7.3991345673068905 8.402773034375013
Zn 13.281551944447974 10.569339775316012 7.727954581520702
