21
Energy = -10.18746832 eV
Zn 6.927631582982173 11.848903688571822 8.726080938346549
Zn 9.14288951514031 11.93809366393826 13.42635981284331
Zn 11.23547204590176 11.821909433822936 14.870680484730407
Zn 9.316243740764454 11.235057664417486 7.672335575522906
Zn 13.049071720912648 9.290505483977144 10.567772859691171
Zn 10.10733318683357 12.567293687970652 10.917376515322436
Zn 11.248645733272195 10.775915891132872 6.091738311674939
Zn 8.450138467747047 7.596157549437639 10.799754815483007
Zn 8.557755492533701 9.572958715901807 12.529472688896583
Zn 11.569690350282277 10.675866327291732 12.345226346465914
Zn 10.654350317720063 10.259382228932209 9.748336626447802
Zn 14.380906798361856 10.911046459744968 12.309447683185912
Zn 14.036149889349545 11.616282428502833 9.815896755216459
Zn 13.531211343765259 13.004387208108303 13.987895066294842
Zn 12.564091430404957 13.018520750754174 11.46566818326031
Zn 10.807887744455721 8.357863378865206 11.591074761919673
Zn 11.754632728898281 12.593163225796033 8.908549383200667
Zn 8.074931545703324 9.62839682701429 9.37149572328698
Zn 7.713845882796928 11.738495352391245 11.247216771796529
Zn 12.764667473646966 10.219834611024064 8.08242889263374
Zn 13.461188389588246 10.558710353231188 14.708938420222452
