27
Energy = -16.33705784 eV
Zn 11.303860632973775 12.750614811108097 7.792152115355029
Zn 12.003494188890755 14.558489230699866 9.361888860527362
Zn 12.237817123843627 14.099111318717014 11.7823507138625
Zn 12.546415644342616 10.747205798783389 8.879060018249083
Zn 10.148662290022944 10.474691111967234 7.512893504468247
Zn 8.777874414024401 12.572818366999785 8.407090047464512
Zn 9.419884901159763 14.2263882829396 10.495449008831404
Zn 10.573219502444356 11.893421630685088 10.512692434355783
Zn 11.861738569801556 8.60635848320298 7.5705478840245375
Zn 13.699249056575344 8.385566749203825 9.354528758032846
Zn 10.902551158604156 9.469553142849097 10.585914352057236
Zn 7.1429995994931 12.82544755240286 10.289354421331153
Zn 8.500348812774115 10.221680728079635 9.505060997046487
Zn 9.515602481461869 8.01534912656336 8.643266299888463
Zn 13.252457000066984 11.747769523910378 11.18186333367796
Zn 14.029054604215 9.363740977924358 11.643515690759605
Zn 7.8043567830666865 12.632251607774776 12.754104706705007
Zn 10.00581174057658 13.712276941493801 13.041186819792735
Zn 7.069407537490596 10.533905719157909 11.622478257875203
Zn 11.803258001731733 6.58488964703667 9.195658418322896
Zn 9.590991535406175 10.699015199581064 12.783990188562438
Zn 7.91136555246957 8.158667533022813 11.0528798279111
Zn 11.890535633970105 12.021732263410255 13.354130116553927
Zn 12.285345797149864 7.40890464130795 11.6422260751008
Zn 9.810041292788714 8.104730929437501 12.87347926687104
Zn 11.983135348104836 9.520131366080449 13.203027645021107
Zn 9.849938101823067 6.574187254836364 10.817790865592347
