28
Energy = -17.31416266 eV
Zn 10.252623986456774 12.139343034657314 13.05759947745305
Zn 8.05818096517708 10.970562213678553 12.958539510239959
Zn 8.763258676558692 11.885486920687987 10.63011962411612
Zn 12.500004603449886 11.040114510114424 12.57862464717829
Zn 11.589766128169686 13.238782282853176 11.232023397776915
Zn 6.823612793291932 8.785868835395048 12.799858466322526
Zn 6.323570924034896 10.645755272418025 11.079668755914259
Zn 6.415744078084325 10.606518057639551 8.627099375674218
Zn 10.149567831416269 13.433634332477297 9.148953712843316
Zn 11.193738097453746 10.741434829458097 10.0443290632513
Zn 12.705239454317123 13.241902001275397 8.810172143553203
Zn 10.13832370346211 9.470648482460009 12.304376722022
Zn 9.144460143850429 9.364860190747404 9.86688883111867
Zn 8.547543866855593 7.173778972821125 12.124340307733114
Zn 6.7946643700010085 8.22763688914566 10.098680976971576
Zn 8.756009073164739 11.677345738168833 7.922398501076891
Zn 12.520043846214291 8.675296885963126 11.61631996988151
Zn 11.194368700746866 12.20359178683502 7.0618353767687285
Zn 13.895005425026955 11.958238147166067 10.616910287224792
Zn 8.521044246485866 6.085082062992961 9.861436662841506
Zn 7.947802335432587 9.393870080895937 7.034857498276632
Zn 10.594534657082558 9.773843573403257 7.531821010194357
Zn 10.749814221262952 7.074498288102644 10.759140437286671
Zn 13.084193553563738 10.744345666802042 8.08289977498241
Zn 14.32571491934199 9.602031018615515 10.088416531233792
Zn 7.52582639413075 7.097578146478067 7.783515333128647
Zn 10.064272391410405 7.325970212161716 8.169526150725865
Zn 12.33020173605315 8.328828700705689 8.99756683858427
