21
Energy = -11.51510507 eV
Zn 9.6664546796229 8.805104637590672 5.6059610632160455
Zn 11.026922999981837 9.920953556743637 7.5754833904531536
Zn 7.386502716443891 9.104540526291999 6.732370806899096
Zn 8.93162068452981 11.089508541591254 6.49699669644369
Zn 11.160712904186221 7.373171963118548 7.044957010067136
Zn 8.702608133460629 6.848551063850525 7.259102394544508
Zn 6.395174727037899 7.389057065541377 8.316745898196379
Zn 5.655027801203049 9.799295206410735 8.570260272350525
Zn 10.137110330401933 12.237600848148078 8.451361014774811
Zn 11.402350113948236 8.319468678346308 9.452608757455836
Zn 8.869374731178214 9.050381973204825 8.988365014767458
Zn 7.720426432192623 11.455038598236765 8.668040252179537
Zn 11.61923256612444 10.859822265943343 9.93404576911271
Zn 10.493003110673664 5.909355829124931 9.012298921919275
Zn 6.80740762002071 10.386144437526369 10.748448204958125
Zn 8.19520730844852 6.603415553566884 9.90511005487717
Zn 6.077082149369588 7.97522314617757 10.741277296252528
Zn 10.925474158804608 9.30942672514881 11.831627118715454
Zn 9.284332700239467 11.16442482248968 10.846399622117449
Zn 8.46226763192835 8.692004797158864 11.626934428385168
Zn 10.258779038414765 6.884582301999163 11.368678550525448
