25
Energy = -14.84612913 eV
Zn 13.748233502734438 13.98744007408911 10.670975438610006
Zn 11.303633396000523 14.424346831251128 9.893065904333193
Zn 11.742785445576235 14.564992453640283 12.366607480015967
Zn 14.746509868201892 11.642814506081155 11.00528734496569
Zn 12.731872170041626 12.18485534614303 9.161349634259706
Zn 10.128380641344268 12.522822771179781 8.687262256230834
Zn 9.455885241902818 12.384979145234437 11.407078047668293
Zn 10.935208291450968 12.544879579505343 13.639907542311649
Zn 13.520713432419086 9.678041937137928 9.798632043086013
Zn 11.241623816501047 9.917826141269495 13.762568187383692
Zn 11.996791839497915 11.20371969477383 11.59338209464637
Zn 13.644269636751309 12.803220011021656 13.068569778620107
Zn 7.924432417843183 7.718059111781517 10.7284509723561
Zn 7.1321245155722535 9.438931675531329 9.070755726460874
Zn 7.697415218672675 10.289198472574576 11.50121798358655
Zn 10.288624004249488 6.714956370604581 10.691964723322398
Zn 9.525396316712834 8.127688230965875 8.558513019245764
Zn 8.9775990801796 10.514643740782766 7.731095608156159
Zn 7.728468370937228 11.998241345867195 9.47451221385418
Zn 8.920693013057676 10.91361759479972 13.638294161189958
Zn 12.020482578615004 7.755051177527765 9.182608622425008
Zn 12.041505185892595 8.557308415753353 11.702838252426778
Zn 10.088177381475527 10.036792674151746 10.423263832991722
Zn 9.522753790998186 8.45569100273405 12.60231595833238
Zn 11.471863083262866 10.155323935489307 8.17492541341185
