28
Energy = -16.27309093 eV
Zn 13.23079830659616 8.57252850604451 8.246369799105402
Zn 12.931846720716129 8.041378923714895 10.773000053601484
Zn 10.855591720835779 8.040046863091398 8.998338899739426
Zn 9.491136953631822 9.023623598472525 13.941875941955079
Zn 12.062868978026744 8.383879238246745 13.501943437713969
Zn 14.365255490675978 10.063406772317421 9.96378080658139
Zn 10.345208720997443 8.429780662632178 11.50327173604541
Zn 8.323809692714075 8.06428041369554 9.833077719443432
Zn 11.29676151211225 9.424797824176531 6.7243126741482815
Zn 13.11710096037362 11.133620238442683 7.804694012652693
Zn 8.925695866361972 8.99994020717531 7.495749401857713
Zn 12.883399052313592 10.406459244347941 12.01267760064837
Zn 10.680015064096322 10.62136186973767 10.11207452714283
Zn 10.302249178792906 6.549472499787168 14.469726494333308
Zn 11.395206038160163 11.866326076734492 6.034329323872901
Zn 8.021158988631996 9.64189067227458 11.978471800370784
Zn 9.356455735185545 11.536814087641803 7.467760540589724
Zn 11.468103990523218 10.756227224416751 14.221869176786582
Zn 7.848708128089822 10.544894312994503 9.363275338966401
Zn 7.132534884490263 13.003401223513736 12.520976954908758
Zn 6.163806663935937 11.228171724210533 11.133209632254786
Zn 11.568174450058324 12.59504583481782 12.488057147200843
Zn 11.365853153535037 13.25949536595487 8.134537959964801
Zn 9.06121648584241 11.578894701667295 13.572620318237947
Zn 12.825816721535837 12.224887533015425 10.105018641365412
Zn 9.148231677600858 12.745900719976442 9.841913114479038
Zn 11.260785771574199 14.236732739789133 10.446695399732786
Zn 9.431588259464986 13.886120087983644 12.16975071317383
