22
Energy = -11.70834322 eV
Zn 13.706560713486517 11.696227734120415 10.741469
Zn 11.72170813016128 7.759995664305782 10.741469
Zn 9.746420532491518 13.87417815143058 10.741469
Zn 11.102413198526722 10.863138513250604 13.687636927364547
Zn 11.789616186732003 12.940504624243289 12.062394350786343
Zn 12.910847335153784 9.582978624316784 12.101820388876355
Zn 9.31179286697128 12.492082916454192 12.81479004788985
Zn 10.589449051355857 8.47821271179037 12.880423651972825
Zn 9.127922031372316 7.833840850087562 10.741469
Zn 10.589449051355857 8.47821271179037 8.602514348027023
Zn 12.910847335153784 9.582978624316784 9.381117611123647
Zn 8.737213063482088 10.09978990222354 9.447993972671302
Zn 11.102413198526722 10.863138513250604 7.7953010726354535
Zn 10.909583171803247 10.784795921774819 10.741469
Zn 11.789616186732003 12.940504624243289 9.420543649213657
Zn 8.737213063482088 10.09978990222354 12.034944027328699
Zn 9.31179286697128 12.492082916454192 8.668147952110152
Zn 7.740769906273243 12.195711833127403 10.741469
Zn 8.653858794490876 9.944217194882743 5.8730787493150185
Zn 8.653858794490876 9.944217194882743 15.609859250684982
Zn 13.584486204531599 11.682859463395951 13.487841380940948
Zn 13.584486204531599 11.682859463395951 7.995096619059052
