21
Energy = -11.55911023 eV
Zn 9.201745883178452 10.690702062487572 7.058023147624498
Zn 7.053006929458504 11.275675838996754 11.658831007711552
Zn 8.32110098258974 9.153099464358132 12.135895691474861
Zn 10.199932180897681 8.681402114888177 8.173783812936316
Zn 11.572045391274768 5.849747368138504 11.40802176147903
Zn 12.526103782154134 8.525125383013714 9.303665434559647
Zn 12.878300599999449 8.472207852668795 11.910224788283218
Zn 10.661678987939984 9.005316645121137 13.246516892868952
Zn 10.207971773732252 8.31367478187727 10.675237539095484
Zn 11.879082358721798 10.644526132001449 7.896101227762178
Zn 9.388268730069774 11.28870445200816 13.140956550694609
Zn 8.447365765595697 10.191897102819333 9.606415626194467
Zn 8.941237937125898 12.782340620237065 10.894313625076622
Zn 10.039380127314944 12.514856603573266 8.612916717838575
Zn 10.770683604819244 10.911213261201823 10.5940347504554
Zn 12.52108442239838 12.798946993085746 9.140849701377148
Zn 10.90829478888071 13.235182917733852 12.500814558572326
Zn 11.009698171236906 14.605748608525424 10.289846276408298
Zn 13.27902983932061 13.10792367768525 11.549570808011303
Zn 12.259808722674874 10.980388991774362 12.767958026439944
Zn 13.382201386853136 10.685955125189112 10.430586475931829
