27
Energy = -16.25515217 eV
Zn 9.199759774844386 10.22180070784837 10.555517829590016
Zn 6.37973858430047 9.60297916500341 11.004136901443465
Zn 8.372888211626293 9.1781572125882 7.851474269155398
Zn 6.595787588314955 12.143058711883409 11.08771404602464
Zn 8.587308451747914 12.992151605115396 12.270131573774476
Zn 7.18432669315888 11.117348298979355 8.845648749611621
Zn 11.625878666209289 10.548106629057761 10.267855093695408
Zn 7.976137382375105 10.65072081666913 12.999506933314242
Zn 13.063909088581164 12.134341484510438 12.384170073450997
Zn 10.597541270295135 11.435603148480412 12.96273079064234
Zn 8.113751416859314 8.089236770824199 12.243958000828988
Zn 7.630664098720353 7.640475556124561 9.813463989632185
Zn 9.982281157937013 7.520200043106672 8.832943560580244
Zn 11.437527794873802 9.346257784052764 7.663233026888317
Zn 8.59115406168705 13.210115415675608 9.620620602203417
Zn 9.794773260234866 11.333729573119877 8.13549754589663
Zn 12.841557330571806 11.579598547420712 7.9869252093425285
Zn 10.878017515036566 8.126244498428486 11.243698537323976
Zn 10.875987024582312 13.202237637751844 11.09913644682288
Zn 13.306715858480125 13.19103938451231 10.058098492436036
Zn 14.457318697914813 10.878618302199758 10.652583116815197
Zn 13.952975724321833 9.389816748503534 8.58562662879074
Zn 10.04282977552289 9.034661293411999 13.552351490566474
Zn 12.483981817605626 9.635363664472086 12.87595484275303
Zn 12.482194831188439 7.348854292787998 9.10678678061325
Zn 13.661921538840687 8.353445812923468 11.064160432612546
Zn 11.217429552055219 13.430193950509452 8.570432035191107
