25
Energy = -14.11313637 eV
Zn 11.6746586396736 12.08871728627847 11.697872054793452
Zn 12.947616147397246 8.302829182967434 10.619055864582283
Zn 9.673561180916316 12.981318850446408 13.19273076232374
Zn 14.427253221878638 10.30710317331301 9.984903322519942
Zn 9.93332795891297 10.885024390016566 6.601387093120817
Zn 10.298298821528544 11.010479249576203 14.785809660072458
Zn 9.466510923245547 13.308601366936307 10.67672235225778
Zn 8.906617117270573 11.349861481967162 9.104491936768637
Zn 13.719638372418894 14.675708472669065 11.230702291685047
Zn 13.155280333454883 14.412192926793308 13.684301356404026
Zn 10.749195875105613 7.096446087468629 10.414859217101787
Zn 11.958126119150387 14.890814919958297 9.458324251637126
Zn 13.248287175935232 12.485713603719232 9.553198241071797
Zn 9.030694493450785 8.922146855922819 9.570623359546017
Zn 11.151961747806714 14.844253914263314 11.972580997467032
Zn 11.538599544570813 10.376217127554543 9.682947135867849
Zn 14.189647528224878 9.698340930635437 12.413461777654728
Zn 9.009752902332407 10.749362479584253 11.72059936577041
Zn 11.418174621147024 9.569108879324583 12.374241642294136
Zn 8.724121913157502 8.03670000569726 11.863664247740408
Zn 14.32996842565755 12.269457083609172 11.988093722494165
Zn 9.336258158559058 8.839424790059361 14.086213694752784
Zn 10.91291052380879 12.782842534308045 8.513981238544096
Zn 12.824787727579997 11.18748528399694 13.959116277616843
Zn 11.587475577910833 13.14257417402829 15.062843187007598
