20
Energy = -10.80700033 eV
Zn 10.670629 6.959083463036104 8.035848551536587
Zn 10.670629 9.444303665945842 7.673158885111575
Zn 12.16853540028408 7.918425211238259 9.821448157601452
Zn 9.172722599715767 7.918425211238259 9.821448157601452
Zn 10.670629 9.130177373854677 11.766471649601078
Zn 12.211080626145474 10.670629 9.574786350398922
Zn 9.130177373854677 10.670629 9.574786350398922
Zn 10.670629 11.896954334054158 7.673158885111575
Zn 13.422832788761742 9.172722599715767 11.519809842398548
Zn 7.918425211238259 9.172722599715767 11.519809842398548
Zn 10.670629 12.211080626145474 11.766471649601078
Zn 9.172722599715767 13.422832788761742 9.821448157601452
Zn 12.16853540028408 13.422832788761742 9.821448157601452
Zn 7.918425211238259 12.16853540028408 11.519809842398548
Zn 13.422832788761742 12.16853540028408 11.519809842398548
Zn 9.444303665945842 10.670629 13.668099114888426
Zn 11.896954334054158 10.670629 13.668099114888426
Zn 10.670629 14.382174536963895 8.035848551536587
Zn 6.959083463036104 10.670629 13.305409448463413
Zn 14.382174536963895 10.670629 13.305409448463413
