25
Energy = -14.84128457 eV
Zn 8.80468889780935 8.604376221504806 6.251932533538492
Zn 10.31909174505313 10.706631206615862 6.998983020357879
Zn 6.494015515134328 9.133871566670951 7.893999498646016
Zn 11.428262339907622 8.5370581978034 6.074017579869092
Zn 7.71422159388349 11.076818029158408 6.9543998811554255
Zn 9.030044484659623 11.66705524947358 9.149684106841086
Zn 10.09781780804628 6.442775870593775 6.893634042110655
Zn 11.602255459647397 12.17553142862653 8.705827356771232
Zn 12.384126516565019 7.065438432378223 8.03136477851128
Zn 8.168432085875745 7.240465370553713 8.46061231300798
Zn 12.637770250723781 9.64769022939688 8.072661598109423
Zn 9.858718626494936 9.147006057639432 9.046538963211276
Zn 10.4277784252848 6.144510137431891 9.46959288883502
Zn 6.393367034552377 11.398244657355772 9.516879207207616
Zn 7.56133253933981 9.132961098700372 10.335468227319033
Zn 11.930983233099392 8.221060367227185 10.33905176135789
Zn 12.524974873217639 10.778289935501153 10.545129961465905
Zn 10.395420228198056 12.547071148344706 11.233287226629002
Zn 8.18342620156452 6.634468819456973 10.993940955127588
Zn 7.804976067815177 12.926298401952147 11.09609552145448
Zn 10.278572684974842 7.305577679025779 12.141707696841541
Zn 6.4955750621056625 10.835796625904766 12.06566583656499
Zn 10.24981120903958 9.898604691035663 11.555849540320928
Zn 8.170907605720581 9.022179071175183 12.911404675515616
Zn 8.87603717117034 11.542827166356112 13.094878489113368
