22
Energy = -12.38050563 eV
Zn 9.480277418865056 10.2503271434653 12.38785476865182
Zn 12.935043127740904 11.252301590243103 11.739148929737041
Zn 8.421986804326885 9.449775286096182 8.735212655937419
Zn 10.723917359528194 7.702259347614427 9.319173278176056
Zn 9.253853889778389 13.12802389055191 13.928508319457517
Zn 10.877256910847539 7.040149164248088 11.83109989229746
Zn 11.423875934513843 13.483398496665647 11.98891742070781
Zn 12.820838632537088 8.673462149090978 10.685383366530118
Zn 12.916194531724114 8.687502146554621 8.060389086995581
Zn 11.768420777506693 9.146860597082968 12.997457275479691
Zn 7.3975267469989445 10.439718898815077 10.957509706266116
Zn 10.597450098707514 9.304349749721343 7.343557591932806
Zn 9.429306994841232 12.442122136549052 10.64747322841339
Zn 10.753541379040984 10.25191628584577 10.150058579517598
Zn 8.71001747507251 8.145956798607317 10.985929663031053
Zn 7.210425277990705 12.306451633275385 12.769325470358822
Zn 13.755301166389877 10.70562858846385 9.406022617657586
Zn 12.387794739987786 11.304509433991875 7.304054239496774
Zn 7.489663596358015 11.900542213009333 8.889656889526398
Zn 11.277992202608297 11.580424669657708 13.65574382299521
Zn 9.896654902754266 11.702494749563403 8.092582032262959
Zn 11.963133668794622 12.573616837411947 9.634777020624892
