27
Energy = -15.85328398 eV
Zn 14.72780069802704 10.424810482517653 10.45635754875681
Zn 13.288821150212023 8.819713050257128 11.770486641945551
Zn 12.96171598805309 11.721831000809656 11.729195191479278
Zn 11.467748280016341 7.432279677616541 10.520215363143716
Zn 10.57565434723085 11.718073637821256 12.50773958695304
Zn 13.243244149177746 8.592957346711174 9.0744768187525
Zn 13.223962904452684 11.577587871524836 8.815531049848254
Zn 11.012704554201584 9.210449968199699 12.688762083157057
Zn 10.953548060410352 12.634568958704362 10.116226217688556
Zn 11.961104028544247 9.734943287107026 7.271543585297972
Zn 9.513279858195249 6.148881480109539 9.589473585691117
Zn 8.56747452572304 10.098569493850775 12.58631857980129
Zn 9.10489427094414 7.6984827638768465 11.675491455863277
Zn 7.057370947918841 6.713756393170564 10.327659342669008
Zn 9.95863939346815 9.886578475971291 10.042213351893647
Zn 6.475798783853959 8.563965420180697 11.8327952469702
Zn 6.263660742477491 11.027904245854806 11.677371654127587
Zn 8.485034695137617 12.270317908496112 11.101715880474675
Zn 11.099731550559872 12.148787516297004 7.604392316881561
Zn 10.041690263930054 8.208375070798159 8.070016791601343
Zn 9.538477792314856 10.352222115562537 6.526131959781311
Zn 8.830198960658333 11.87572046070658 8.603537913736467
Zn 7.673867412516428 6.844620294441095 7.891110225312463
Zn 7.423785192583285 9.244084514076588 9.297229509259921
Zn 6.304432657785788 11.676729818764764 9.29940494415708
Zn 7.61083489010122 8.665394871248 6.287221469303236
Zn 6.96320361293273 10.981556020757068 6.971273337559081
