26
Energy = -14.63587841 eV
Zn 13.779429665723127 12.107870428129853 11.59796855568843
Zn 10.517611315019016 9.052623406065328 8.931685052730566
Zn 8.446697069593267 6.760177027227096 8.583188524324262
Zn 10.713741099976955 9.520641540512393 13.362605457232398
Zn 8.417090355369155 8.693126328868155 6.895721362583878
Zn 9.445595119746724 12.745587576423619 12.235505854912281
Zn 11.325501821148688 11.790539149076254 7.841661344858298
Zn 7.128505107859652 9.062834036451122 9.05924841361049
Zn 9.817146591474161 12.91146364041801 9.618323727961991
Zn 12.762906711883499 7.891974526815339 10.033270072860594
Zn 9.821937086638131 11.633282457038417 14.587419725105434
Zn 10.473324922470177 6.592735301738644 10.062057883495031
Zn 11.689981363762348 13.732641817432576 11.21616132360584
Zn 13.18674051932756 15.474259360180321 9.626250900796286
Zn 6.556784542033511 8.949706192898807 11.51186482336544
Zn 10.722360897047247 10.735624697939937 10.950560751477184
Zn 8.207376753620446 10.365124415068532 12.994709748428646
Zn 12.819692981925037 10.328637844687236 9.379093791686959
Zn 10.366058449338947 10.126879418137065 6.164825102399125
Zn 13.263014974584449 12.872070371738173 9.232698072178485
Zn 11.581234601679391 7.44044555699067 12.1996127491534
Zn 11.991056984833184 12.111422150187567 13.379090951714419
Zn 7.878476591923617 11.249741102911402 10.562631085901359
Zn 8.74595255133324 11.032013418615241 8.182598439518591
Zn 9.215635636422006 8.569749649026196 11.283188798973686
Zn 13.003299872011018 9.67346327096553 12.030662347139645
