23
Energy = -12.27899715 eV
Zn 9.562486435743764 13.094854915847536 11.863087690338011
Zn 12.133189147329144 12.57699370613294 11.879121887591687
Zn 10.432212502020832 10.803433047767934 10.428321857330266
Zn 12.629518803746722 10.025452659652094 11.524674512023998
Zn 4.767734661529232 11.011207597851374 12.550817147732383
Zn 11.094112549603784 14.136256599081227 9.986023030581084
Zn 10.410536113401106 12.428085676564162 8.248533322619068
Zn 12.414771401131992 10.469058214164027 8.822938323553238
Zn 8.169025045685444 11.579856409361154 9.400711766542301
Zn 10.177357725282683 8.894438218909304 12.251083899132235
Zn 8.412683119080796 10.802311070738487 12.06717302393127
Zn 12.316794259819869 7.528384426614023 11.959861592548977
Zn 9.100625124712478 10.278037815737745 7.155921906397203
Zn 12.36123652701719 7.885550354555833 9.447808613230723
Zn 11.366754959742567 8.623565484409692 7.114856349400052
Zn 11.457062482607874 11.038336501734411 6.39553018177327
Zn 9.826440924515062 8.656369148954656 9.235250610352164
Zn 6.3595007939917725 10.13297346651876 10.657643895344613
Zn 7.982717985129885 8.144478090248187 11.042947177253648
Zn 10.196991329790672 6.537218073751327 10.738874159834413
Zn 7.282647370741285 9.067008457724869 8.570716779538927
Zn 8.883933639779288 7.502400174899127 6.834362106822596
Zn 9.34027291068079 5.5992404454194125 8.526355428960299
