27
Energy = -15.06104859 eV
Zn 7.326800923977129 11.919991414643242 13.718675765360997
Zn 9.402209000912274 12.755717894712225 12.355358628695928
Zn 10.749578848186625 13.210578010251337 10.232097039609952
Zn 12.807186803090701 13.694661850515175 11.682505976590992
Zn 9.6015067854046 10.97581323369693 14.235678960381252
Zn 11.918008673937422 12.122886927966004 13.399923957794636
Zn 11.81046477267319 10.068478115905096 14.95712002454286
Zn 6.659783662545783 11.380821177255388 11.383577566597252
Zn 13.000128874606798 13.124229455409104 9.029306181866783
Zn 8.410208917510774 12.384769222501467 9.748864983982955
Zn 12.995470698121578 11.206471416453564 10.833018843219694
Zn 7.993629653741314 9.480755928348493 12.610976994029846
Zn 10.373260021250672 10.531417431505522 11.052239939957149
Zn 12.479235951784128 9.417893670767995 12.628746637526953
Zn 10.27104671927726 12.7769180947639 7.739252826464706
Zn 10.137216763756893 8.412736419328679 13.564080453789916
Zn 12.607095773800305 12.532174774041838 6.629403602261112
Zn 7.815208113939007 9.856260742772308 9.732042982462593
Zn 13.468133641383972 10.621953820191646 8.180722637794604
Zn 8.510215300550009 10.959440755896948 7.450620529342534
Zn 9.282172067264247 8.044647594183104 10.933057819558371
Zn 12.873248758445465 8.759977919378057 10.10572444557122
Zn 11.566970345002197 7.109817226480117 11.93768172716091
Zn 9.635718778229954 8.769002697751239 8.195710060467292
Zn 11.047240963765054 10.466854372427417 6.765031008013357
Zn 11.073001375125349 7.0716976023852025 9.38513497805207
Zn 12.274003408439764 8.403144883118125 7.560478825164433
