29
Energy = -17.81421177 eV
Zn 8.530962182061272 8.286365785774722 6.393189961695342
Zn 8.111366028199836 10.756286025226766 7.135645918158053
Zn 10.523800466676771 9.93048236188218 6.695893243339488
Zn 11.975634177983816 8.99277582956314 8.639675734957649
Zn 9.997224806523718 11.766011769447218 8.727199113406249
Zn 12.444342762260769 11.433669566795643 7.774368738116254
Zn 10.586836107234785 7.212521432134299 7.37573660570276
Zn 6.739700166298037 8.784316271867528 8.186741620819138
Zn 12.370626859146588 12.695149504601973 9.972060060769712
Zn 8.521939228813034 6.713615288146909 8.739217777925283
Zn 6.472459732545278 7.280002742408406 10.23054122432511
Zn 14.006206527489509 10.505144416018222 9.595525650596358
Zn 9.086727731200076 9.376459076816735 9.441760534804162
Zn 6.18842025707628 11.380534183540844 8.674869196691647
Zn 7.93797263490209 11.88711269289384 10.510280736917451
Zn 12.977338241914712 8.549528987318855 11.020387955689944
Zn 10.778060686072616 7.181246440338365 10.061368633451613
Zn 6.396679510230416 9.755330193401639 10.69580134440997
Zn 10.924013142045528 10.35576953329869 10.793723520196542
Zn 9.939749153523849 13.488402454196027 10.654700352905591
Zn 8.658116862003189 7.023803960435796 11.462030988473934
Zn 11.801942780639138 15.39111789689867 10.35278385168235
Zn 8.630456810610399 9.706218341080731 12.0829468469403
Zn 13.298326351632968 11.023073722126458 12.02168263323486
Zn 9.15375815909644 12.234006190370886 12.787183106918988
Zn 12.90456366440393 8.974519532335426 13.55296548931562
Zn 11.673400362200962 12.891880232683013 12.517267344361754
Zn 10.682955712723215 8.08158888002677 12.587197242184606
Zn 10.922407446859838 10.579055240738494 13.553243124376701
