26
Energy = -15.36044728 eV
Zn 11.287580290484861 11.4281285774615 8.029634173789653
Zn 7.759139476560519 11.826881984776874 13.171126990882035
Zn 12.008527425194522 10.537581668469125 10.510036728496777
Zn 12.793204680798201 7.9747339717811565 7.401509564311048
Zn 13.65006277586462 10.176290485914587 8.336663781685397
Zn 8.338643005605766 7.745796542225359 8.259964856935122
Zn 13.570392237510559 8.277005650926569 10.02322230812561
Zn 10.220565952822783 8.56005609383212 11.475403470284993
Zn 8.777595474672678 10.189063401595854 9.80420533400898
Zn 6.422748928466378 11.575667347833363 9.036448230391336
Zn 9.952563838490965 11.100725023994118 12.061552626563095
Zn 10.748716085620707 8.849117058962976 8.84074359811072
Zn 7.830437356394928 9.331540430198308 12.351239313403324
Zn 6.57187351106787 9.367815670018368 7.395669061355979
Zn 8.87789595700295 12.53286020995716 8.25298280015367
Zn 10.685125716774767 6.439644372623203 7.213488322256244
Zn 7.120672611758033 11.712192583732929 6.573185386830036
Zn 10.665869809238643 12.70009098416644 10.152298692422693
Zn 9.174810202300755 10.094834842337837 7.1642817513047925
Zn 6.316858421382206 9.032485270888396 9.930719044693452
Zn 7.939114130903912 7.260194523636648 10.83921600564937
Zn 12.171826914847646 6.79817835876545 11.514647979266723
Zn 8.10355738686489 12.682213033268091 10.749579441836133
Zn 10.004063723873978 6.283467259660935 9.827498108787012
Zn 12.444781452970224 5.964683249727342 9.085635211278102
Zn 6.050482487467957 11.045861258186452 11.486157072119774
