23
Energy = -13.05541881 eV
Zn 10.721613248740448 8.426177329243544 7.211811607501632
Zn 11.938739237074834 6.656138491297484 8.816862142931567
Zn 11.001719214682115 5.844651596608966 11.062490726937549
Zn 9.02470176600214 8.296422600317333 9.146927442928853
Zn 8.80087878454063 7.067981112680965 11.461087576521725
Zn 12.19285901679283 9.284438329102858 9.133270478466082
Zn 13.161404020244829 7.3522076123004485 11.207139789138065
Zn 11.347835438872286 10.950219272605699 7.322262718153721
Zn 8.890639016595383 10.407401339848425 7.151806217312997
Zn 9.847857211547995 10.628741333281704 9.952281531417993
Zn 6.982232357912865 8.804322423647298 10.961486873205317
Zn 8.535022456154806 9.269773716733283 12.906486525757773
Zn 7.288427556413082 10.475226090132724 9.157199790887987
Zn 12.191816366370364 11.93295524504319 9.54446085512212
Zn 12.94384083303312 10.109835038759748 11.416011223019584
Zn 10.735839905952572 8.77093392138928 11.505784020307596
Zn 12.3302967032905 12.44939891583097 12.118476699549047
Zn 7.7738101915299715 11.37875007887994 11.58423863680198
Zn 7.547546355630725 12.692941214431515 7.707869905187941
Zn 10.00229526055407 12.89978962329367 8.367417687581623
Zn 10.123284703768007 13.160182953722767 10.95794947749989
Zn 7.790054317983903 13.501128689601156 10.097702633560884
Zn 10.253098209035398 11.087765178868025 12.662410944548613
