22
Energy = -11.28666324 eV
Zn 10.549669070781917 8.95720520266264 13.340622205091682
Zn 12.02395472505455 14.878571392568245 11.789462050992231
Zn 10.916123182542279 9.439530853468334 10.878318515832424
Zn 8.08683669622393 8.980072226275874 12.27948992544091
Zn 7.365021450428325 11.036520668073162 10.773869298444998
Zn 12.963722249986157 13.59596535830415 9.736081339758348
Zn 10.510413643547976 13.419016330818168 13.356919717778545
Zn 16.255866157100733 12.27725535426985 11.6642984049419
Zn 10.66092016449144 12.845921475013528 10.682877711406045
Zn 12.881027326577248 13.601671942540346 14.187675960077499
Zn 9.33857555744618 10.746237545317594 9.243915674497604
Zn 13.103871175324343 9.197335738990395 12.981258879440144
Zn 14.460031274283175 11.633806523668325 13.640057495612444
Zn 11.86734332417054 11.164409240467524 14.153225417353232
Zn 13.361139689980973 9.167856584354189 10.265837532430478
Zn 12.001350759790244 11.167305297371136 9.290081971783758
Zn 9.631898145791297 11.232041240246941 12.491370568464289
Zn 14.593105125203362 11.62269969240486 9.701910596075248
Zn 14.313909303771704 13.799847667258419 11.995918270507765
Zn 9.493120263964519 15.424558148330354 11.65006990423823
Zn 8.000417782504135 13.346370192024924 11.686919255185838
Zn 15.172844931035137 10.016963381532605 11.760981416569692
