24
Energy = -13.38555608 eV
Zn 11.90180215469528 10.72123649867532 7.753094991832165
Zn 9.628993994385104 11.175404726152097 6.553197512639997
Zn 10.538940494204116 13.238415458526662 7.782037874296382
Zn 9.989567198573692 8.851611943837677 7.610357556151929
Zn 7.67877968552122 10.03608138274043 8.080157938258159
Zn 12.352157144029361 8.500807658367737 8.846269433215689
Zn 8.159803413150827 7.712979343566951 9.146903536110619
Zn 9.7920753095654 11.048628183376795 9.449015832559546
Zn 7.907480492458956 12.78176646900084 7.4653037896870025
Zn 10.58150318186903 6.5819118730553425 8.639107994869013
Zn 10.243500175438065 8.859374466030653 10.488366010599414
Zn 7.0565569602112985 12.104102242967867 9.756223562494721
Zn 11.348913954997448 12.958906354595497 10.269813046212107
Zn 12.703875061881856 10.705304410358519 10.249217624351225
Zn 8.93739576571853 13.845951639758153 9.68803172167375
Zn 7.522783950494609 9.774878097978911 10.697930087519131
Zn 12.335096376240738 8.80900212360533 12.039838266559777
Zn 9.362236584351425 5.744349131829306 10.7029191329943
Zn 8.03493098400198 7.555195469247728 11.866536046272016
Zn 11.93261707406174 6.522017974291671 10.811465891259251
Zn 8.729472440946573 11.945301091484124 11.764161645804766
Zn 11.203501538619776 11.183585833183752 12.222702679595884
Zn 10.391129390013766 7.125072232308711 12.767019196385062
Zn 9.148000530965893 9.699229251456135 12.831442485054627
