29
Energy = -17.48532946 eV
Zn 11.155604478520832 13.351772117514995 13.650801057381912
Zn 12.541056718683103 14.79279574676204 12.01643160539115
Zn 11.155622415246995 14.75768975079891 9.87858674090466
Zn 8.954789148603851 13.579997119225238 9.731014655312764
Zn 9.955645011527706 11.21130091484241 11.163541280598956
Zn 7.603302908053677 9.502730310700017 10.111549667524688
Zn 8.382967917592344 12.883207633362701 12.89352195361411
Zn 7.22198275190533 11.975881181552262 10.70461709344628
Zn 8.937990307624313 11.258138840465312 8.605633298017393
Zn 9.807577896923005 8.710108252470297 9.049795808924356
Zn 8.027732104888406 10.191913995768221 12.779781539856799
Zn 11.155595982176928 10.376932763536923 7.71977184536689
Zn 11.155644128125617 12.822210311654047 8.235318008758568
Zn 9.770155070473459 14.79278158618913 12.016455206346318
Zn 13.928225934838215 12.883190640674892 12.893513457270204
Zn 11.155599758329862 9.153297564124333 12.44812829152272
Zn 12.355534680329782 11.211292418498822 11.163533728293402
Zn 13.365374909357184 8.036826426347188 11.727744059190838
Zn 9.856241867943801 11.234591572766627 14.22800074875036
Zn 8.945884081709718 8.036901949403822 11.727735562846933
Zn 12.454983137747478 11.234654823326581 14.228035678164174
Zn 11.155581821604015 9.084306676175627 14.883395214611385
Zn 11.155588429871374 7.21119415500815 10.673207599051697
Zn 14.283478740229963 10.191953645373006 12.779812693117679
Zn 12.503666933570983 8.710075211133029 9.049806193344809
Zn 14.707846574581128 9.50272936666182 10.111495857346675
Zn 13.373221481532251 11.258146392771181 8.605664451278274
Zn 15.089253582244753 11.975881181552262 10.704607653064341
Zn 13.35635278172556 13.579999007301469 9.731000494739536
