25
Energy = -14.49094839 eV
Zn 11.52889367046284 6.6574102506444754 11.4877906225453
Zn 8.077475239404386 6.514383586230227 8.926512735605778
Zn 9.70854620329229 9.335786031935971 6.310459216073168
Zn 6.997180938348734 11.694336931984063 9.825148876579092
Zn 9.564721361224512 13.27588151800085 12.257916270942415
Zn 10.783255367459164 11.319996745943268 13.362504687866913
Zn 10.757653003184997 6.476406698257152 9.01041878267399
Zn 9.107259311225187 10.177399069417724 11.218808622806618
Zn 9.551781093254364 12.47966152500593 9.795465484688169
Zn 6.887147938986591 13.03994011251819 12.0041681629094
Zn 10.756841980052416 11.463834980694802 7.751622867309446
Zn 9.20439795080599 7.616090325908453 10.992140534485467
Zn 11.661353008803815 10.818585339365514 10.174857764022653
Zn 7.4430999728404155 8.35981863838672 7.23483203508926
Zn 7.2871906395523665 8.982999370929651 9.713894084555378
Zn 10.00727189177721 9.09192291437386 8.970844509332306
Zn 8.231062548627088 10.789598779952133 7.862153218554456
Zn 13.12218782434054 10.19365192543813 8.13488978460109
Zn 12.608408864569844 8.293570546936873 9.795890755372534
Zn 11.881914014669247 7.979920032328059 7.235360890558404
Zn 8.143273631752102 11.289945590731191 13.506512937568731
Zn 11.376584609309507 9.097465446896067 12.124591262524792
Zn 9.476867883826534 6.797569163017557 6.792629972105575
Zn 6.153039618046638 10.444041255386033 12.032113116196069
Zn 12.065602411704555 10.192794197239317 5.861483782555078
