29
Energy = -17.39743028 eV
Zn 10.280354635326354 8.49797823917666 7.697677289458425
Zn 12.135215278304456 8.448759650090699 10.904952104275127
Zn 8.174702131942356 8.112574661687214 9.289499016005003
Zn 9.897886103356495 9.918259175664112 10.42270845845286
Zn 14.249262788898616 12.213934897758055 12.363064375745884
Zn 12.528930748551014 12.44305804736108 8.393439407456475
Zn 7.938663681297319 8.73707854754853 12.067684970219661
Zn 12.430995384773327 8.967506680111432 13.427741506723024
Zn 10.318824626554786 7.604017731782459 12.580084083625401
Zn 6.585823838954773 9.879157604793154 10.168494477999205
Zn 14.20170692435446 9.77521890410284 11.683077228813174
Zn 15.000793196618408 15.802927170413188 10.559666435281123
Zn 10.125131526748762 12.813804100376133 13.289625562930272
Zn 8.67661923391889 13.499195644678165 11.337431606290094
Zn 12.29599316939563 11.406884872847272 14.023895394279627
Zn 13.27818414246372 13.799923683304794 10.428340527372033
Zn 10.05378596166476 10.225951169036657 13.066496899752288
Zn 12.524027694757152 13.78979796959489 13.247466137318696
Zn 8.521657478157454 6.354744115427797 11.272999688767852
Zn 10.992629800679424 14.360252150583433 11.224007355834777
Zn 7.7768683716992095 11.27985518063711 12.147101254976176
Zn 7.443350484788949 12.144125270489427 9.582178210373888
Zn 10.054668600244513 12.413284610484121 9.355919006520141
Zn 11.71863170245275 11.417205450475306 11.214136902092996
Zn 14.379982883849678 11.498957460723137 9.845009639732707
Zn 8.27965908299617 10.403685917958986 7.965702695597247
Zn 10.453709835735953 6.959103180700907 9.685237952465572
Zn 12.53482345941434 9.840730889858547 8.813512639761674
Zn 10.697741966257345 10.935953546603683 7.311520520064614
