25
Energy = -14.01984298 eV
Zn 8.559715694077138 11.656013700138727 6.37377777669104
Zn 9.903989443020134 9.635738562775213 5.220795112730081
Zn 7.797332998220643 9.025730948521517 6.661448681341549
Zn 6.102646934646152 10.800583236757484 7.496536516831809
Zn 11.062783668826148 8.827840151075515 7.406124973592497
Zn 10.024724608483478 13.196775049514667 7.864645378731017
Zn 11.705914766064199 11.178390035862213 8.643886043119164
Zn 9.188273082323992 10.436481007873704 8.614683693817893
Zn 12.947627549048203 8.966315495656664 9.089632138267461
Zn 8.947505969837415 8.041027749719367 9.235026789899228
Zn 6.820876895326155 10.593030791383365 9.929963486118597
Zn 11.331527594827056 7.041937506082798 9.402725200737343
Zn 11.4337289624497 13.053396896760374 10.470991824255764
Zn 8.953600079098337 12.27612583418307 10.394813905462248
Zn 12.921611791629335 10.75395997815063 10.928967120697457
Zn 10.38826222501641 9.870082887272313 10.785098583143204
Zn 12.498055088656233 8.203632603855826 11.548269118095678
Zn 7.565273922037636 8.500038414923585 11.429135640048603
Zn 9.897969517248068 7.326823670747682 11.568109315362815
Zn 7.771525636001003 10.88094539823698 12.240429425415888
Zn 12.60564448563177 12.47637717055999 12.77217400868862
Zn 10.15162088900117 11.752869272993312 12.647668720579947
Zn 11.999648777882628 9.99115154191198 13.386510187019237
Zn 9.42015127041446 9.291856884843815 13.394292430659227
Zn 11.275617242113228 7.498504302079094 13.76992302057316
