21
Energy = -11.06198634 eV
Zn 11.472931310573303 9.256023209056941 7.702356090309124
Zn 11.544538640690263 7.83680849502225 10.077844897375558
Zn 9.687950246884471 10.92614320719025 6.677947743099746
Zn 12.277286684075163 9.184295176607527 12.13041100450728
Zn 10.544854989114722 12.329912712489119 8.592253879302705
Zn 12.086582598414358 13.458476381809819 10.399425259740909
Zn 9.348232740687434 8.39237014303297 6.500294173443249
Zn 12.211365509856272 11.907659902640951 12.395133958203834
Zn 10.674312864799472 6.652547129428984 7.957502826988997
Zn 11.837725103051262 10.525867852064794 9.91819256488726
Zn 10.056880509571053 10.52716515580898 12.417068492757672
Zn 9.233579213414671 6.426577944012137 10.164564399665034
Zn 7.929988261166165 11.998977682103787 8.252042753125497
Zn 9.463816673448509 9.409084396314098 9.566590714177034
Zn 7.958492384114613 6.950614968486733 8.067605575171351
Zn 8.89234242300389 11.78786174081756 10.601538576927057
Zn 9.691390741513489 8.058093824612964 11.986563357250459
Zn 7.467692243934564 9.496516126145702 7.84309614371579
Zn 7.024079490844332 8.019895628940475 10.248699056735019
Zn 7.621023577454948 9.741430736928061 12.032823678256028
Zn 6.4137917314829656 10.636215993868106 9.960367309986617
