25
Energy = -13.6803865 eV
Zn 7.872839553750918 13.087322502979596 5.375329140625857
Zn 8.89168296015322 12.495788120810165 7.656055872186896
Zn 11.344719197501755 11.881211576783008 7.547923330166517
Zn 9.499560191456576 9.970530880689418 7.385246307709536
Zn 9.73869455729781 13.518798177010833 9.843131576160724
Zn 12.365465544764993 12.939958782987873 10.197604771617542
Zn 13.1896224636952 10.768561962888873 8.976347815773176
Zn 10.697665713106005 10.947692759789915 10.088233068760697
Zn 11.595109310547242 8.475963588178528 8.84542161899897
Zn 8.028385293428718 11.23716081409333 9.705513622765533
Zn 9.175052597574101 8.72739370027251 9.591791825671569
Zn 13.078770488498092 9.056160293406265 10.922828215676713
Zn 10.800623914646856 8.134482309986602 11.567025464441178
Zn 14.32778109825202 11.351090089056981 11.20848693132279
Zn 8.923215065158779 10.015733803881242 11.901312814340072
Zn 11.78470436082225 10.861467896778624 12.27541871262773
Zn 8.349679340443508 12.534211203140421 12.023632261432189
Zn 12.57373638432098 8.272111083360066 13.507424824561552
Zn 10.759680375641219 13.411874181215932 12.2456726139921
Zn 13.392545935948881 13.537008968529273 12.439359701329854
Zn 10.013681880203269 8.833483983881344 13.986962081015943
Zn 14.083449843377265 10.498664137646307 13.71092562344074
Zn 9.837753875501294 11.44840856182856 13.88913513283123
Zn 11.918384708441248 10.098232466516999 15.1943592798462
Zn 12.39609317306724 12.535585981885687 14.553755220303065
