21
Energy = -10.40577557 eV
Zn 11.65977585804505 11.366592148139418 9.226233879899366
Zn 11.647370697038324 11.061470879512557 14.346376799955332
Zn 15.460713140596212 13.921538829971785 12.486901886386459
Zn 9.056784720325739 11.502266336597968 9.89004590488277
Zn 13.031239742729907 14.350638342961398 12.982784617863407
Zn 9.174545641429921 11.296867827165267 13.711056724132058
Zn 14.205757165774678 11.429664247541396 9.840492828153279
Zn 15.370668571096623 9.688194557560253 12.003404693102109
Zn 13.243776609992153 9.313782828225138 13.340128037879222
Zn 12.75768053888785 13.47572692870489 10.437667116310482
Zn 7.222208932386642 11.766193293555025 12.042992302575023
Zn 8.48855036242079 9.67134241965291 11.742003334862241
Zn 10.78715364212443 9.178288761476487 12.640123602237898
Zn 8.975993282684312 13.464975501257637 11.79022399988318
Zn 10.790751962230576 13.400557053225914 13.812102196610413
Zn 16.28025890356641 11.909239318912375 11.262214859009697
Zn 10.32979815197976 9.227545167637068 10.005580377873363
Zn 13.337506089574912 11.816419663767219 12.469868849799479
Zn 12.7518523369824 9.478488923820866 10.814132131199242
Zn 10.987382601241432 14.943303228830395 11.64856900773658
Zn 10.36470004889205 13.661372741484541 9.431565793686387
