22
Energy = -11.85753697 eV
Zn 11.977749762002126 7.781805074153295 7.019001116421991
Zn 10.556262512169425 12.47682306077069 7.446251271786558
Zn 12.183027164023036 9.524357631160244 9.004265996011343
Zn 9.431484824079744 7.911992465819121 6.980885324191753
Zn 7.384056628352967 8.252637633283232 10.589279316575634
Zn 5.5633486024441146 8.637148717041864 8.792672491377838
Zn 12.017930158336618 6.866385136136167 9.392101187168363
Zn 11.114584889476479 9.676988442274551 11.40163193931905
Zn 11.09505828964512 11.7203024544481 9.848942621826788
Zn 6.987493458450086 8.854939088065397 6.64340131550655
Zn 7.063762059616134 10.636139807885048 9.366542289916762
Zn 8.66794946224911 12.594082186422542 9.272698864806665
Zn 10.237472717643115 10.05461639524391 13.857516725484075
Zn 7.372135804904071 6.835357847796429 8.200049723675928
Zn 9.45825491064851 6.850733700064462 9.622028616559462
Zn 11.135204046509417 10.167835746299877 6.602009782916584
Zn 9.410558670868372 9.497604150004356 9.414993283437488
Zn 11.10186929812774 7.099142700257592 11.744081916898654
Zn 8.955021062613321 8.293324679849631 12.532174709647741
Zn 9.778274223409916 13.303648563298044 11.455439590722532
Zn 8.628233875752368 10.69608621115073 7.205031398445219
Zn 10.371360693287418 12.564225648343275 13.786316030914012
