29
Energy = -17.69092656 eV
Zn 11.25813792385939 7.015537151766117 8.748194063105796
Zn 13.473181006006238 8.324386244866623 8.961728405989726
Zn 14.382263945917828 9.037609997668527 11.227674793414856
Zn 11.479663162266531 9.192841931998403 7.267175596718978
Zn 12.104266975999137 7.249141622584708 11.122917006828013
Zn 9.207390041009342 8.206742467130594 7.764332696995801
Zn 13.888382494692964 10.177759475345006 7.198482633590715
Zn 9.434882881319707 7.70902145377519 10.394097435141774
Zn 11.391268535034667 9.792678580316887 9.941073280137738
Zn 9.408583657810656 10.780682916993571 8.580632381724914
Zn 14.056008214360435 11.024166418224098 9.536596255592013
Zn 11.951361008976452 11.744793221412902 7.835266070287528
Zn 12.799515834486245 8.646481119567888 13.109127372655337
Zn 10.25395413603857 8.92488052539635 12.429494450777227
Zn 12.789543048142368 11.10237031805063 11.75763609159225
Zn 7.701936886509747 9.653806226952526 11.867210112554721
Zn 11.377474991021042 10.759104212957409 13.893688149784943
Zn 7.503799919345195 9.059353820238487 9.380321097081778
Zn 12.222657397102513 13.040966908190414 10.040473116306508
Zn 10.133355391590944 13.407572136021432 8.566223054695099
Zn 9.906027501725278 11.423042917312138 11.135098762796357
Zn 7.8003623698566456 13.119298591131422 9.43127852588334
Zn 8.821194031398674 11.025733507704325 13.689086192771805
Zn 11.424971568691735 13.176077434599849 12.578206368110317
Zn 6.39018565068786 11.144862601204695 10.163821584655523
Zn 9.681189911336403 14.269159144584368 10.95684081403352
Zn 10.645698204561278 12.823576213798507 15.126229042460164
Zn 7.586970113781681 12.459973346029301 11.949488290173004
Zn 9.04184223783433 13.812711173252005 13.409605309619916
