28
Energy = -15.67399055 eV
Zn 7.291006227444036 11.58296615367534 13.596887403126251
Zn 9.016512262237844 9.956485874562558 14.34504701109428
Zn 11.039864406650219 8.501017192797097 13.80734950107064
Zn 9.710348956312442 7.698714492871827 11.913357482854206
Zn 7.742036745018824 9.522903512533329 11.944935181328576
Zn 6.031732822492667 11.572762382007378 11.479769804355465
Zn 8.334947094901427 7.885945335820385 9.851243858019114
Zn 6.14459182635059 9.838824012423482 9.724497367979476
Zn 7.348023355247123 8.702333090646272 7.733254908324644
Zn 7.711753766000764 13.43925418694087 11.939813803522446
Zn 12.491357051558845 7.80625196116659 11.696498842458732
Zn 9.716112002219115 11.795619455069152 12.410439867170952
Zn 11.78212969894869 10.383506710649069 12.280638165208138
Zn 10.900801730786613 7.28766136105687 9.54458915225205
Zn 13.530158946459904 7.41537228230025 9.445835035231456
Zn 9.840641502407415 13.792365023066038 10.630862543159786
Zn 8.070657317947997 11.917678894360861 9.855745282583134
Zn 8.939067337952304 10.645064704749544 7.888646094527308
Zn 9.711500377568914 7.758459840330235 7.191027885289855
Zn 10.080056313743926 9.98450604191571 10.274176465490138
Zn 13.094328546998808 9.946436909207366 10.09676885043627
Zn 12.18934496710221 7.417632903771512 7.292554638070266
Zn 11.347600073048692 9.864947342667973 7.653626083510297
Zn 11.930886499835706 12.274366724758622 10.544271603444471
Zn 12.497136817470448 13.749429234926168 6.711199971023434
Zn 13.877566416382487 9.23112068008145 7.732454373059497
Zn 10.611337856194236 12.524241888123997 8.441803802820498
Zn 13.241313197252854 11.681913409083359 8.112239336718329
