24
Energy = -13.04651269 eV
Zn 11.494961940451374 12.734897036023979 7.751046683825168
Zn 9.082814582375821 12.386417662380323 9.402732401603387
Zn 13.770416888545297 11.959195928869867 8.751034599989913
Zn 11.94453547098731 10.19302032020698 7.862019018719062
Zn 9.37550651660159 11.610310184780438 7.025303671972219
Zn 11.500087541607485 12.546810827762059 10.341483521446063
Zn 9.403622863868899 12.510193734833075 11.980980361774805
Zn 9.486224203862461 9.14346605529199 7.858480131931856
Zn 15.016966760686874 9.980284262821804 9.614334027699961
Zn 13.002478182077466 10.600357189275243 11.1174649386158
Zn 11.578207054100831 11.59842456598595 13.018220762803868
Zn 7.2718984649708505 10.766591088448465 8.343695077075171
Zn 10.415567704363312 10.110055238435269 10.084821218830882
Zn 7.609057038780978 12.431464591146792 14.322601887846588
Zn 7.615526578128434 10.699645955893057 10.900251334880632
Zn 13.472932412002244 8.099917547159158 10.295527282169303
Zn 11.594910362411971 7.762805835800985 8.562677871063991
Zn 5.860485089965684 11.604186859016641 12.535119696508323
Zn 7.102198204945697 8.542633185205863 9.600096510450493
Zn 11.397753423462468 8.95174819968137 12.250755831994507
Zn 9.358218450718493 10.339190975324007 13.285014231451704
Zn 8.97630500537063 8.428705081949424 11.493342625300933
Zn 11.23936810546008 6.80762310105331 10.896466998587197
Zn 9.155629115682698 6.977425352350889 9.417633077406004
