29
Energy = -18.74555811 eV
Zn 10.456746078111651 12.800974657396363 13.765795665019096
Zn 8.861284661546017 10.644469495833743 13.50860647524407
Zn 12.277355555898522 14.17277309887127 12.578561896408628
Zn 10.311531058147208 8.442744285051203 13.473721563439849
Zn 14.557643380307125 10.641755501062718 11.980748354442346
Zn 12.857903302856094 9.19408791561353 13.1985364981072
Zn 12.033647873923272 14.523131591299656 10.026951155540752
Zn 10.600505979761056 12.089127058130792 10.866900053513584
Zn 13.828258997155189 12.891418916751922 10.959908893219206
Zn 11.175888489094735 9.789660673747928 10.961653563162788
Zn 13.798431758033141 8.598378384043901 10.631777573122964
Zn 11.770995394665071 7.274711913119911 11.71855421932613
Zn 10.115362098049962 13.582920371557067 8.623318432903707
Zn 12.669227901474224 12.555497208618053 8.53868742734884
Zn 8.533701066473515 11.405680612790984 8.555085618152583
Zn 14.34013423255179 10.861726935864287 9.468264295238676
Zn 10.027793123471858 9.244388824419676 8.125690043358247
Zn 11.953363836889027 7.740295312819781 9.040869317711193
Zn 11.170014061130173 10.515839502485585 14.674486037868974
Zn 12.929891714773003 11.875225386706031 13.421168421607328
Zn 12.551351160191325 9.96702383980519 7.985467085478424
Zn 10.710062280546694 11.553360931048099 7.183236384523699
Zn 9.880901219650008 14.557697715067398 11.612694252500901
Zn 8.057890195778771 13.294133989172277 10.171484848315748
Zn 8.147460293952342 12.934882687275492 12.719210455257276
Zn 7.4051207455191355 10.994355000656665 11.216117637038193
Zn 8.297776962241223 8.672137055826468 11.989464772449859
Zn 7.903635084542823 9.178002140880169 9.517124307221675
Zn 9.644233639976882 7.417666618382804 10.173182017761171
