21
Energy = -10.04037313 eV
Zn 14.032004168466663 9.219120092644937 8.657623698474133
Zn 14.171134998727718 12.939780143686583 11.162809368083183
Zn 13.932865539439062 11.764562578465458 8.895940180152067
Zn 8.283334010341616 11.735193566480774 8.65955110687254
Zn 13.309355196273465 12.055586592848353 13.332213602858541
Zn 9.715021173603093 13.482669496820911 9.800023507985232
Zn 6.9846242791768764 9.361107938899423 12.225968566027435
Zn 9.565965169420767 7.695211663482358 10.546351954696602
Zn 9.3700683893634 8.890231904909287 12.886226805713054
Zn 11.657746133321147 8.025503621676519 12.135130873329942
Zn 11.197676141920084 10.584695171140307 12.984875059151399
Zn 11.064115186979326 12.983880935495671 11.91852838762334
Zn 7.06201635058917 9.482570038412211 7.910196311917704
Zn 12.237233448344933 13.601133497077432 9.588519201426914
Zn 6.436916622644872 10.794701088159032 10.18060960838267
Zn 11.88032019562974 8.256020275856638 9.588907143509976
Zn 9.158793716324809 10.83592564301005 11.100605012398152
Zn 11.311265288447425 11.089877393393948 9.365938159574593
Zn 13.070379552574224 10.192432838690207 11.1594951752029
Zn 7.025665614712784 7.991007727111391 10.038627148573115
Zn 9.595475727828903 9.34412158527055 8.609772731702057
