26
Energy = -15.00208531 eV
Zn 11.882533929355324 8.315171085173507 13.54754801518204
Zn 11.115953765807227 10.681924641138059 13.690755211361454
Zn 9.080211534337755 11.403927756169606 12.223661873863946
Zn 11.308396016748945 12.648558002937786 12.20036945771981
Zn 9.21779222172405 8.798775924704149 13.403251487362724
Zn 12.573206870893323 7.7486262979969975 11.096625741127411
Zn 10.507079268330955 6.728937219760015 12.23307201499365
Zn 7.228778989458767 9.675780631174428 12.118783623977297
Zn 12.525655443520355 10.33121360405956 11.409174598741588
Zn 9.907871752520176 12.44891301762484 9.930913829724561
Zn 8.454669086437944 7.630686303629086 11.029962560127565
Zn 12.66208017881381 12.687672145462201 10.12784800828253
Zn 10.523967016801983 6.863071869705205 9.56038026449845
Zn 6.40092643797104 8.801222299236393 9.87011549198351
Zn 11.924285917518915 10.408760954329013 8.795885094739269
Zn 10.142302081877 9.659091543773474 10.538997684441764
Zn 7.561906150579149 11.198544096373018 10.037069556681242
Zn 12.600183482125864 7.933935724970955 8.577042990784902
Zn 10.787674184401165 8.707042795266963 7.009306245521637
Zn 9.134644895188858 12.85163568492654 7.431465460598126
Zn 8.713066837850254 8.341525817022301 8.510821254038708
Zn 11.662005514165523 12.972084402055586 7.814623754031969
Zn 6.330708606866028 9.150802527233306 7.372775565819818
Zn 10.863634011062064 11.179281601311475 6.27810151535774
Zn 8.576958658775512 9.952802830276141 6.27723050609217
Zn 6.934602983798084 11.625699097656375 7.569399967846479
