20
Energy = -10.04407106 eV
Zn 12.976164131881646 11.495812611753044 9.120003498646337
Zn 9.485781456926208 13.098821252502812 12.80877109385257
Zn 12.402810390285698 10.09376656699202 12.744947837505173
Zn 8.79246073526028 7.774825623300771 8.498512364105954
Zn 10.690703369879705 11.082286260515891 10.885349253039632
Zn 13.719203514873092 12.037104708170478 11.605352142043724
Zn 9.945306466310361 9.620792362695791 12.971379024678985
Zn 11.317858656581405 8.523443709699336 10.787095524619687
Zn 7.779649484117733 10.818531111597904 12.126321907951008
Zn 8.630865127153754 8.422279803639574 11.066644381450274
Zn 10.476914791651526 10.671658523850276 8.304213599070366
Zn 12.141301286145794 13.361280270082018 13.234926287893353
Zn 12.608356112844634 8.998222868557676 8.448770455427903
Zn 10.70292578272306 11.568472271418129 14.431712965159491
Zn 8.301085293063439 12.282625846122203 7.818798882191437
Zn 10.927130062632962 7.5740582745072516 7.222942743624611
Zn 8.043671929397005 10.223421463317896 9.398921767373682
Zn 11.693264001603724 13.352694644235857 10.59119783158123
Zn 8.688396234680255 12.635183959277414 10.41733195618892
Zn 13.829387078117373 9.517953773893458 10.670042389725433
