37
Energy = -24.30731745 eV
Zn 11.29595792016314 7.482857686420375 9.573785141972458
Zn 10.259515270478383 9.566992655886807 8.398387734597835
Zn 11.045586884715616 14.40910708216734 9.960336484198319
Zn 6.684932069764623 8.429366583076765 10.680782724368713
Zn 9.323379463625109 10.707998357298418 5.476004087960932
Zn 12.712327300208386 8.518707136981803 7.541605598318073
Zn 13.832401368415082 7.983260535377393 9.754566594959872
Zn 6.715928567377262 9.219619233069812 8.270726504119791
Zn 13.087960877048141 12.73764561695953 9.856229100406484
Zn 8.28942595518031 8.517070633740033 6.454437813160036
Zn 8.326078503098204 11.287205860816664 7.765576084924328
Zn 10.308765974094566 9.013360090388717 13.28120298793889
Zn 10.77406578269363 8.494165268813921 5.832911594125002
Zn 6.957813840873208 11.181662260972347 9.94274906148397
Zn 11.834143007178831 10.065382036054059 10.410984861935997
Zn 9.737359886885052 13.104023963356648 14.048009364848951
Zn 10.715122901299852 10.874151374473264 15.06629516927173
Zn 12.283716087962377 12.560057130556464 14.141145586893806
Zn 6.607321125006868 10.387511834504904 12.278009417401135
Zn 9.604991134293446 14.66292821087006 11.99908615964382
Zn 13.482298492353305 11.600229999209288 12.103891631456767
Zn 14.42848454611849 9.011626790699147 12.021417825965791
Zn 10.901426662997228 12.096455714975942 8.541093037630777
Zn 12.234191549016307 7.749359660812046 11.993423188420975
Zn 8.481084146815268 10.785492573583731 13.928702877995248
Zn 12.263681093848838 14.071266500745084 12.100666312675196
Zn 7.988871630211989 12.601848091840951 12.147840324276578
Zn 9.192846871291284 9.954855019408502 10.796762974198222
Zn 12.704504734322592 9.844172281227268 13.799375308111125
Zn 10.647189008449166 11.713473712528565 11.807084442055169
Zn 13.343159933207577 11.090376561646861 7.88982598944844
Zn 11.785268930286724 10.905343363844738 5.967973480417618
Zn 8.662349800749862 7.730109754396176 9.184370591467195
Zn 9.622370987109324 7.171591738702959 11.534674356271893
Zn 8.885287346472795 12.966014855812006 9.819712546455092
Zn 7.782358481575441 8.247312527400974 12.977554579612372
Zn 14.536730942415891 10.469087819318938 9.960526939072938
