39
Energy = -25.82003928 eV
Zn 8.190247368192436 9.729933049637106 9.111939709988613
Zn 7.945271889689547 11.38328828070709 11.189928105256632
Zn 10.1954010646216 9.825490401034653 7.568078222451713
Zn 9.096449391544871 12.154629920833468 9.106449718893698
Zn 7.059175181323491 10.197931146384771 13.277276567313042
Zn 11.827017991129964 11.341025154858356 5.893117938113532
Zn 9.96571098108554 8.039833231858607 9.917397182534447
Zn 13.294804770262346 9.47026452206646 6.8392841787447525
Zn 7.85393568933841 8.557180941663464 11.395370835744316
Zn 9.431928065413636 13.570450160682563 11.345613458069009
Zn 8.430528990680648 12.459418113047807 13.509907063728157
Zn 12.320050340924428 8.645076146497333 9.015317080661225
Zn 10.868952280417368 10.499614634085999 10.511447685401475
Zn 10.676218463996166 14.20279643270823 9.091787623477071
Zn 8.791399296772912 10.319559266500097 15.124660945115313
Zn 14.225634863052374 11.827203401194103 6.731158922667966
Zn 11.53999629762895 11.795643646882173 8.409060709225795
Zn 7.947254924494264 7.928089815811613 13.984158324914478
Zn 12.532577392848914 13.792641894730837 7.101435280079794
Zn 12.037672427085955 7.665471821062285 11.353401336067282
Zn 9.926556406433315 9.748054157109083 12.654425790092224
Zn 9.912674192704921 7.06599552039062 12.623463804379323
Zn 13.976018408255797 10.664249510242534 9.146255403934404
Zn 12.950583103069201 15.343508306365798 9.113864430445313
Zn 12.31390770570858 12.62051919916165 10.675775305574787
Zn 14.680696770460884 13.136908243796245 8.953005396738064
Zn 11.659313713467235 15.095272652030399 11.54370596183046
Zn 10.2906173587372 8.112278413232284 15.013190761484607
Zn 13.400167281494062 9.813007071153764 11.529181511786438
Zn 10.597838173631141 14.279872178518465 13.670954200783939
Zn 9.892840729335104 12.616051027468654 15.540863906415025
Zn 11.217061194178934 11.81182345293502 12.790629438501036
Zn 12.475548582570132 8.729432848841574 13.669995602205844
Zn 14.772731246183083 12.076221289126615 11.50230982288589
Zn 14.354416836641821 14.627203927911888 11.018885738411466
Zn 13.258754704280864 13.795972232758919 13.164745793048496
Zn 11.418789053221685 10.423891866413996 15.313505086572743
Zn 12.34430727328952 12.800763236914598 15.2524321844843
Zn 13.713152374222563 11.21963566177026 13.732221750367072
