39
Energy = -26.07658049 eV
Zn 12.073656281333538 7.156733632603101 11.552146152207259
Zn 14.162459240567133 8.754210910157258 11.510204411441498
Zn 13.458597744586985 9.63504862795833 7.131008001051025
Zn 11.030613902124514 8.470232553938548 7.392947847161537
Zn 14.820585722637258 11.307624658897835 11.789231378773735
Zn 14.212846467370916 10.285329997085793 13.994382878718651
Zn 12.965906960772179 8.13406237620792 13.745992883999268
Zn 12.82009351246363 12.069659728453402 7.768908022730375
Zn 14.241212646999232 10.511086653182387 9.437821202015257
Zn 11.411618456014581 10.684197966106685 6.030461178339789
Zn 10.531906088124035 6.8693090287545076 9.489847546684498
Zn 12.799888147210373 8.239677743000568 9.31551364355977
Zn 12.056041079108626 10.300427780787992 11.658330364892514
Zn 12.951472932943394 12.443272428996183 13.520902157140815
Zn 11.252580742024914 10.43310545966049 9.202797272237035
Zn 11.427746775307332 13.915358018366383 12.100329224617099
Zn 8.706154432949322 8.477800298287127 8.607208576922762
Zn 10.277784136673365 12.459774602751866 7.507956361282774
Zn 12.586380187976665 12.562260119502955 10.2872463056045
Zn 8.943874267266288 9.949727831432583 6.560520575059232
Zn 8.03284857225715 12.247199879609896 5.997983277433987
Zn 10.083295348632673 13.725332476048761 9.775869921884796
Zn 11.479806216542935 10.244670735919922 14.283306051002446
Zn 9.682459523912836 6.03165435447953 11.911761934234908
Zn 9.943206639480499 11.667356945993271 11.351034404309987
Zn 9.954093576130678 9.053338971730255 10.991811389952277
Zn 8.7453521884474 11.02177735463892 9.212934190602713
Zn 8.951495666779628 14.25285786468315 12.576503941195272
Zn 10.375325694309192 8.025918124822262 13.547358446708877
Zn 7.873211117800596 6.896616274585864 10.410554008487487
Zn 10.28151562436248 12.462710491350741 13.918443042451731
Zn 6.4930864916036715 10.765685205605328 7.415823300395158
Zn 7.626085087598084 13.528005919850754 8.097967553854565
Zn 7.610323830709895 14.022952079404806 10.51849520712698
Zn 8.92584924549748 10.216788432992457 13.363075195867111
Zn 7.91720683628351 7.755803774797072 12.803707454964403
Zn 7.345580759782745 9.579925221152712 11.067247492484587
Zn 7.40244176559216 11.998966994208638 12.178235114964936
Zn 6.273500613628349 11.610321059669765 9.790057200400959
