38
Energy = -12.8237667 eV
Zn 14.25076553050924 10.544441365730867 19.94149689537615
Zn 12.918589670040827 11.698850840091394 15.908251343041817
Zn 19.14100273807531 13.184265617466298 17.590706918728927
Zn 11.454404567367767 16.01046232581984 14.551297380062236
Zn 14.438143377671269 9.632725440231718 15.028286227784948
Zn 0.6531119767519182 19.900369947138763 10.847055700756195
Zn 13.547489621838967 15.423454881940538 12.944626264957018
Zn -0.3501664910245747 13.046022982375204 16.85554303433235
Zn 14.641990207431009 1.416136776206821 18.274220551291386
Zn 15.634609404394451 -0.28348960557346803 0.3159761302628374
Zn 0.1767817034018519 17.812490139928247 12.306146127825782
Zn 14.921772201292033 0.7656930570757213 15.507398685844569
Zn 21.502176373276757 16.818281145149445 14.66023805152366
Zn 14.759323365338087 -1.1593778601571654 17.64884388673934
Zn 12.02514901930307 13.425072046989342 13.934858687211829
Zn 16.201233846732332 -0.05539339208837066 19.776281673046064
Zn 18.193569876186917 19.308477067913316 1.5194058803939585
Zn 17.712180734313634 1.1659259730095128 -0.45168588938314835
Zn 21.865417374121005 13.92222263801517 14.245648445315926
Zn 13.782779278970544 9.506266950726573 0.30207262621245984
Zn 19.785381960987003 18.805951044209507 21.396653226314076
Zn 11.823260119994908 10.805398778668247 21.04917556585984
Zn 14.857839847927032 10.715192842165385 17.441209097058184
Zn 19.55795189809965 17.865476679067683 13.185380917510672
Zn 18.454878763289308 20.16036211715401 13.191642742562312
Zn 19.91934631276793 19.62992416088913 10.971475388165494
Zn 17.693548036762117 20.310236225883195 -1.0545679978793023
Zn 20.808440949746533 15.63259099372021 12.449147261015597
Zn 21.127543402095718 -1.5281196263136996 13.046778638936539
Zn 19.907537873695816 21.121270486035485 0.6968319794733981
Zn 20.408817482946652 15.380843636509034 16.635858941376675
Zn 13.68546252241525 14.666162861463523 15.563224862779773
Zn 17.68701851260409 0.05329552029285283 2.153384376889135
Zn 15.432720123360927 12.189976588568966 15.279265306669624
Zn 21.00996884810526 14.420529424089588 19.083679245709625
Zn 17.195813809702585 21.84260608679789 14.631642546175597
Zn 13.92426005830866 12.180324387496748 -0.030790850100391728
Zn 17.09042407695977 0.17677182309680803 17.248538529736017
