37
Energy = -24.7041105 eV
Zn 14.112605120471091 10.431293926116004 7.609559462895475
Zn 14.212798481332628 9.31531451336357 10.178786759621074
Zn 12.386716847149374 8.58897038616252 8.457001752627791
Zn 14.55844315247501 11.915267887349824 9.57881533138815
Zn 12.904631311474077 12.868111021588389 7.844102127901756
Zn 9.912269132216137 9.212094949716919 7.834629732201438
Zn 11.665623104405336 10.78767056020856 6.979698583824848
Zn 12.1432164167725 7.972633981370114 11.036525900133032
Zn 14.49495365025146 11.091699482974443 11.99784865703097
Zn 12.855951624397605 12.963869528175021 11.315559141750352
Zn 13.884406776534268 8.708863876624006 12.854184415418285
Zn 11.933031023635849 10.951805623783706 9.722965780399257
Zn 11.777801815597693 10.444220553754496 12.238441564693622
Zn 10.302099266285131 7.116520306349094 9.355276289582255
Zn 10.6640239734455 13.586014351520252 6.619363246327453
Zn 11.187137154384915 13.83831741898841 9.544751058118154
Zn 13.023992751722565 8.842728076238496 15.363172743604409
Zn 11.984825656195248 12.763893607792731 13.7930645225638
Zn 9.586235897495477 11.737569803605169 8.496899170499333
Zn 13.749394606015553 11.02002314064062 14.437693441017535
Zn 8.809099817619444 14.689229099725246 7.855097657238185
Zn 9.949407558575764 9.537310356438613 10.58042594924843
Zn 10.017767325537765 12.015146447880339 11.188466685286583
Zn 7.850867142556133 8.205446118458127 8.88307629835674
Zn 7.996069962233605 6.399697843310703 10.54535249556471
Zn 11.315909146931963 8.224446280991149 13.705187184823064
Zn 9.691931678410198 7.289059992315511 12.118906012467306
Zn 7.526456593981484 10.588489608665798 9.6804130446005
Zn 7.760991752202074 13.078602272299293 10.001112394616197
Zn 10.690971814996276 14.321957787644612 12.253770578538356
Zn 11.04598621799469 10.626249892531067 14.970154904975484
Zn 9.091352842500097 15.177980914003017 10.415275826383223
Zn 7.498833041875048 8.832820966338119 11.579771352411958
Zn 9.236975237845106 9.819588359055171 13.288822476896392
Zn 7.558819899904055 11.504614057629391 12.181286367485813
Zn 8.103663637632001 14.0676350346031 12.494788720820031
Zn 9.432588242491045 12.382691647333266 13.917602044231204
