38
Energy = -12.84259186 eV
Zn 18.969873058511343 3.9505262686025837 17.12668788856373
Zn 22.653122904117474 20.915690683511286 10.90741041926687
Zn 20.537261255545815 17.35693944355649 21.678857228565793
Zn 13.25261799335359 20.545191737151764 18.963713525849084
Zn 22.51975178450901 10.918827710585758 22.640434829221935
Zn 0.637306396697543 24.576809369526377 19.599807297419126
Zn 20.676500790561448 22.497538307169062 12.018973393265524
Zn 17.24830535895593 18.973297186230194 18.709359937341667
Zn 15.168223712801053 18.973948001338258 17.262376574300486
Zn 22.37159900876297 16.94412698909225 23.40550954358099
Zn 24.449527906230568 20.54795384182992 23.34757376454688
Zn 24.822834243172657 17.998879465426967 22.72203677484311
Zn 17.370135195726306 2.631327985008928 19.551421270909422
Zn 22.503816149019293 19.087060659661862 21.775091621004954
Zn 19.92256859964111 20.267778991168466 21.384569884692088
Zn 15.963701419871843 22.83356875221623 25.417458738095778
Zn 23.20700654325414 21.994539068319472 13.708033108411222
Zn 20.05423406470551 21.259234731655823 9.325279994481509
Zn 16.289808186052493 21.90037697765375 22.96301321329664
Zn 18.47355900890966 18.176738474645067 20.698083842407062
Zn 12.627663502337143 19.086943888203738 16.889034542715564
Zn 12.058738798378645 21.614220104858408 20.988011296856513
Zn 24.446400129210087 15.466873544599174 22.744417789352337
Zn 24.389407282056997 12.88275704013609 22.41893023235484
Zn 22.05052984955148 15.314346042526068 21.330156183690168
Zn 24.319896450375577 24.56820580140425 20.183181890846342
Zn 24.188219659010645 10.979379936016185 20.53074313891605
Zn 15.897942568565897 21.172178733222697 18.69227881796893
Zn 13.480525449433644 21.655265884294252 23.15126425051286
Zn 24.933577843967644 19.81380129518315 20.893170613815833
Zn 22.226852128813007 12.737032375989477 20.728580197222094
Zn 23.940781119452726 23.077640283656482 22.726385250762142
Zn 25.78485726994853 22.316560509269003 20.722148173422184
Zn 17.257026401979047 20.436148894171602 21.059594021714044
Zn 13.373851862193781 23.47656952024845 25.069541262511247
Zn 21.945373277215634 21.658978298487504 22.125677403237134
Zn 14.82446704783513 21.4241833561475 20.932138092178935
Zn 26.081390759569054 24.6070677770036 22.133176170284553
