32
Energy = -19.97256701 eV
Zn 11.74822815292878 13.158915502502895 12.941495146765282
Zn 13.508104518817598 11.601723781346655 14.006157649737982
Zn 10.008681306963883 14.163488704660189 11.200686271611508
Zn 10.976617807317302 11.047835612726429 14.390009147032266
Zn 9.260716517635329 12.689760998082697 13.208164734174403
Zn 9.114764178464418 10.074606808909792 12.932829362931551
Zn 11.915712945044682 12.472096101914572 10.458257476242965
Zn 12.804214600642098 9.216445370781953 14.49615373208807
Zn 7.302759881081102 11.589742088944021 12.040605818318285
Zn 6.2024184993487665 11.221705359108622 9.84184865755631
Zn 7.624485892167529 13.456919844692262 10.35451151695361
Zn 9.675597065061856 13.678724471192217 8.61435363812555
Zn 10.447403014567856 8.364889460260128 14.413417319057274
Zn 14.164754608232863 12.489144122729163 11.703507065053893
Zn 11.807494267054933 14.89745857048055 9.049228406246463
Zn 11.43662780321356 10.218663321023035 11.597440566342643
Zn 7.893570678715112 9.23737665005612 10.836935487070871
Zn 9.608372331161904 11.309422403369046 10.250649674889006
Zn 13.97290538515558 9.865253538112627 12.019169494678595
Zn 12.406482263585568 7.896838839759866 12.323561874582712
Zn 13.922978187471243 11.058282199332307 9.589422210964695
Zn 9.844020198777244 7.802928575777309 11.92074409545572
Zn 12.331070940509884 12.553420931757216 7.908651757204212
Zn 7.646036092895733 12.227139792024929 8.04038856854962
Zn 12.496176478960002 9.969592698264519 7.744285230514744
Zn 8.175620826129194 9.75279934500086 8.362742020723276
Zn 13.447637584060997 8.5143633160468 9.881456516594337
Zn 9.493659342690734 7.709281264458312 9.339753288343273
Zn 10.127329440275494 11.305947733246965 7.59917293232743
Zn 11.580867104498987 6.566954614107512 10.332165801103283
Zn 12.034894667781273 7.433955448810592 8.055266913582715
Zn 10.216215676994473 8.811960772430243 7.069147517160361
