39
Energy = -24.68919552 eV
Zn 13.65600532860793 9.709853146072852 10.23917813523044
Zn 13.74252627574021 12.372536236678762 10.020096242151512
Zn 12.94819019727136 7.3032246925850295 12.309025510657616
Zn 12.967551709939178 11.326714224161293 12.257791644824994
Zn 12.526969539117651 9.100622208227179 7.950846039063066
Zn 13.063094329186058 7.247111042111136 9.680047876593532
Zn 13.177472424335736 9.323093826218196 13.883675043734772
Zn 12.727843639991352 11.989151741138807 7.512233415786223
Zn 12.011940021794262 13.783653237775916 11.42483398572487
Zn 12.026340072129013 14.04012962312239 8.861205931471314
Zn 11.376375084888103 11.017706063441413 9.503396513028655
Zn 10.930974666353844 6.284437858394622 10.644518814893397
Zn 11.250612294517687 9.216377125351087 11.435924018479469
Zn 11.003008158354572 7.934015403600447 13.991761439632299
Zn 10.715024480067811 7.963793284400142 6.397624275500273
Zn 10.296038273771632 11.803701887765502 11.695704005426604
Zn 10.76043362580343 10.503438114156339 6.638200704241151
Zn 10.260779833769003 13.055347931684853 7.16148830646586
Zn 11.315478672428315 6.106484165361952 8.065414009805735
Zn 10.867593727387275 10.614726343042824 13.928895284454347
Zn 8.811635811561137 9.812977049650057 10.9662357784192
Zn 9.74993897789788 13.322689731398043 9.705056309264062
Zn 10.249635007483397 8.581774450202982 9.17291510922738
Zn 8.16071824166401 12.030892236452512 6.127733580385188
Zn 8.372443635863412 9.340552827246215 6.27278591076588
Zn 8.581865226356095 9.328048404966761 13.776222617462874
Zn 8.380352187415804 6.751767894405028 10.015178979113243
Zn 9.035604132377147 10.791797937324633 8.642136113903375
Zn 8.81043415396053 6.7760429092354375 7.480311007129877
Zn 9.217740015430334 7.388691529594376 12.260738316989642
Zn 10.375086636829051 13.904736558019009 13.515888860785712
Zn 8.499539567335868 11.929411294395576 13.64294053008967
Zn 7.798957630055271 12.412319758541232 11.119960995400529
Zn 7.35371533851628 8.640155340524931 8.661448316856921
Zn 7.335794742838538 12.778586885682406 8.598199144846374
Zn 6.435128723031281 10.711667504487021 12.616813632160007
Zn 6.361597966412805 10.68471329050433 7.2293040984560415
Zn 6.741788733996316 8.3828600610024 11.509553055801574
Zn 6.298314919793275 10.662018340489292 9.91541082432518
