33
Energy = -20.25068009 eV
Zn 10.484521790486246 14.510492651474229 14.049030783910228
Zn 14.330080006332215 8.58699181536292 10.174119567766846
Zn 13.017317715391194 14.970794037586401 14.96274805108496
Zn 11.53618638473698 13.161123049637062 16.005027162192036
Zn 14.859303124737755 11.426552943941344 13.92560050536549
Zn 14.638571450086694 11.472634729398782 18.279031974797498
Zn 9.867013664148073 11.990093206438127 14.42834690206482
Zn 12.25026964537455 9.927418262410265 9.050308233149982
Zn 10.386976804666727 12.007547216611128 9.165796693136567
Zn 13.606713028055099 9.366474614200119 12.933339726269185
Zn 12.783217488730367 13.142859267120775 12.98913576481689
Zn 15.447147630545487 10.433767153287125 11.491109925925011
Zn 12.732263842176328 12.356227201781547 8.261208602384851
Zn 11.080255309475069 10.053359852100986 12.880164093715052
Zn 12.886194649945576 11.457142532409671 11.140782686447277
Zn 14.786460879375111 10.83950816350405 9.011886172946207
Zn 8.173535213364968 11.548466495608693 10.753261529642884
Zn 14.054835621669582 12.77843878585781 16.092847562484824
Zn 7.594349489536448 12.090598259468493 13.268288868054439
Zn 14.013918353061882 15.09749528574117 10.866880991617679
Zn 9.845813184505483 14.979205249541272 11.597478979623792
Zn 11.879248313830848 13.891427726810255 10.237459505256497
Zn 15.428357935396509 13.940897026908758 14.305526371094622
Zn 10.535909745763382 12.364141322700648 11.88720736939152
Zn 14.60578083482462 15.992639942572278 13.163424704409202
Zn 15.109967937530438 12.953371075201984 11.80403343657161
Zn 14.869466322764811 13.347405336151802 9.215102835976314
Zn 7.570698315275087 13.976913536012175 11.325299748537256
Zn 12.036767203248683 8.364096828454443 11.11070394025706
Zn 7.511728666907939 8.827783506755853 10.444095192746646
Zn 12.446399104536335 11.066530892264442 14.75396854876573
Zn 10.062131096314701 9.828380568363857 10.491290202038991
Zn 12.104884359843233 15.78550657696026 12.471778480195994
