39
Energy = -25.56968487 eV
Zn 8.72866974165055 15.58198754131759 11.99859286346034
Zn 12.974280207828503 15.658892423812656 11.195400652756218
Zn 12.44628796492617 15.269824391071719 8.79456077242892
Zn 11.04554879599741 14.984923338463032 12.775763061165954
Zn 10.309974022798885 14.577212953016508 10.21593538456581
Zn 14.782730668256148 13.799438988553947 10.822036295844331
Zn 8.388235888698098 14.109348513116986 13.954926526094352
Zn 13.402246470489821 13.958311142617596 13.186219625852345
Zn 13.816611194209226 13.22590123357131 8.416708982495125
Zn 7.124802076333803 14.320743154728266 10.729389178519627
Zn 12.300963792610176 12.799314469531664 10.875889172921575
Zn 11.21817572345069 13.313923235573782 14.724916438693315
Zn 11.256237064040345 12.81545190210453 8.409619997131692
Zn 10.01971447190523 12.594997484378109 12.112010727795903
Zn 17.343357776750324 10.530368865351868 10.482624962420198
Zn 15.366698843914357 12.285746150348468 12.938909092283664
Zn 6.68086289221598 11.936721430212213 10.537372086201854
Zn 13.552011278307404 12.132367413586723 15.118631762385622
Zn 15.612961905801921 11.761384725147856 9.207340198520276
Zn 15.519104480867025 10.504699272539654 14.861622985414048
Zn 9.032025341166815 12.306954180115952 9.617841861229254
Zn 12.219844437052394 11.25536833192424 12.970805166958026
Zn 9.026395104417546 12.015501030978655 15.12273692403407
Zn 16.655741385493265 9.878440902202595 12.750197060581225
Zn 7.660835094114158 11.73469019933335 12.87931551371112
Zn 14.043555524896654 10.73001039928855 11.206267718529608
Zn 11.121601626794515 10.754226482766342 15.519677775304645
Zn 12.832577638872664 10.697516974589739 8.90849138412218
Zn 10.949368330480153 10.531910714424848 10.855667199201399
Zn 13.266805764746369 9.524081755462033 15.397270968804387
Zn 10.127649812384595 10.367490854316797 8.283724261819586
Zn 14.294633514768845 8.87346309919619 13.0295338985394
Zn 9.641214898087048 10.102293202511543 13.40904175199641
Zn 8.291759013321542 9.907550447689793 11.058766471131026
Zn 11.746197711736052 8.61184523655363 13.484991026904675
Zn 12.703073404093976 8.425980744950603 10.93651120855389
Zn 11.595674494313545 8.286334654538987 8.641286100021729
Zn 10.121709149002799 8.036061548019605 11.627962016865446
Zn 9.156790886270596 8.181870652399658 9.2895499206478
