31
Energy = -19.8459249 eV
Zn 7.768089654067153 8.140089388511507 11.934515472359518
Zn 11.87541353246181 5.849099899524256 11.617179121098562
Zn 11.94857991217607 9.837613623730324 12.921110240653201
Zn 12.230082119475423 9.149889062791678 8.876213862309987
Zn 9.212520072068502 9.573638808575309 5.666874992480842
Zn 6.602677950253277 9.176886145329362 9.989428066714085
Zn 12.587022497573264 12.28239646852553 12.724543589064092
Zn 9.452511223040052 9.612581775580225 13.475283606407908
Zn 5.6433975655475725 10.473896238797545 8.038652010841098
Zn 9.10782841749162 10.078126032241748 9.031638911757696
Zn 10.89971805620517 7.465087818517599 13.326888183654534
Zn 13.50789428423394 10.570105198724264 10.880429063249258
Zn 10.307130754109075 8.868604712990507 10.888441381892214
Zn 11.001392024796635 10.711912435527593 7.279491341127843
Zn 8.248593105330993 10.794729542398263 11.512797663444893
Zn 8.520528837788673 7.338912076310866 9.358204733783655
Zn 13.01536217843338 8.063506918911996 11.12425292788151
Zn 11.231367608708952 13.739312254637161 9.299953816838306
Zn 7.13403678816566 12.001734426011792 9.486155094006577
Zn 8.970035979053984 13.306312543364747 10.82020858591854
Zn 7.694928769980682 11.301240265150367 6.747118330632963
Zn 9.318973650126406 12.685824218070167 8.101320731948935
Zn 13.396973640414098 13.24967164000375 10.528992970752594
Zn 12.999872785622632 11.720597401572086 8.558512285829314
Zn 11.17474813575658 14.176668743276293 11.850562108709719
Zn 9.368253608215168 6.164989536729942 11.514896666213257
Zn 10.044002051271033 12.092148245887786 13.013992393686138
Zn 7.475986950319244 8.647419818998968 7.400555598019311
Zn 10.312938328872832 8.01333903748398 7.353452035672607
Zn 11.138057586444322 6.698343657853188 9.32069120212445
Zn 10.885015273625324 11.289255405601546 10.43157635255688
