31
Energy = -18.86253499 eV
Zn 10.007186627379761 11.535408768213111 6.418971570435164
Zn 9.205631419729132 9.178918989291056 7.254651325217459
Zn 11.739214480932041 9.519160042768014 7.023094382684388
Zn 10.69479294522955 7.757813856883529 8.785775207201148
Zn 7.948833305803834 11.246122803459803 8.000708014664847
Zn 8.473659704024582 8.983532505641056 9.675671153249937
Zn 12.353542832573947 11.91953853526171 7.512180531003571
Zn 7.703563800191991 11.236856308728711 10.634210319872151
Zn 10.284819714153212 11.14767206377259 9.441622230264349
Zn 14.41129048846874 11.455382387018206 8.84954406541328
Zn 8.06606316062548 13.440292933770765 9.229532328727924
Zn 12.420610270331716 9.721933503222267 9.567741937839015
Zn 9.863242498549452 7.434010589669962 11.17296203886172
Zn 8.014633703934923 9.177879924263118 12.22229000380407
Zn 10.403166008387977 13.457632544982049 8.174879880488147
Zn 7.618620043081307 13.60230836088433 11.730082552734038
Zn 10.201295288309861 14.085000403809563 10.651441405944972
Zn 12.476331737063862 13.01982544033771 9.87626046638115
Zn 10.684299027183092 10.040917308234457 11.57452952098084
Zn 12.469011028987326 7.3516154383344885 10.713932056963023
Zn 8.116206980044208 11.602365221802904 13.265282945804856
Zn 15.13743575016728 9.50346093322169 10.299907827571383
Zn 9.174646975862531 7.287270928298794 13.718159134821319
Zn 13.501753537522903 11.269650045165628 11.49046560642483
Zn 11.633966527890719 7.865973733809533 13.137661432154523
Zn 9.533801334850441 13.928953581323299 13.21099173402697
Zn 9.785707281341358 9.771724948751883 14.11400290096002
Zn 11.799096878449738 12.903037891509152 12.360006671073075
Zn 13.915998876228393 8.750694847798066 12.35266971325176
Zn 12.386384159352215 10.418384669720117 13.63017081316975
Zn 10.674763527199234 12.1143159528032 14.54166411610984
