36
Energy = -24.17477491 eV
Zn 9.55463563760542 11.591889441538616 7.753361997841552
Zn 12.264458140373426 13.969763799178796 10.933328381718662
Zn 7.1503292678300765 8.473687813594504 9.931364141933052
Zn 13.63006867673989 7.478333531966322 10.579741345357656
Zn 13.137254231468589 13.951383442579367 8.488201718023316
Zn 9.365451961036046 8.883840629099314 8.242266843314537
Zn 7.288949495175263 10.424652407847466 8.237536171616842
Zn 10.501602936029043 13.839688648320971 8.954245300154462
Zn 11.441173953111555 6.426534361345877 11.498343825435503
Zn 8.084528644855313 12.127727768338405 12.343835885525573
Zn 11.552449906716799 9.475513747228444 11.18888427662159
Zn 13.633445386173134 9.705654369502906 9.261476734773511
Zn 9.43579842407802 7.735702168287788 10.7102135693648
Zn 9.317812462646954 13.488111711662679 14.150846989220373
Zn 15.293164875189653 7.755007896037865 12.606758150156312
Zn 11.579110131227017 7.882019188185225 9.053276829738333
Zn 8.089555535874227 9.374275075000767 12.414441083596762
Zn 9.690203640353824 14.107164455838584 11.516250552321003
Zn 9.56788602448951 10.79919346247148 14.13362848449663
Zn 12.162847648035454 10.201754681476713 13.87545027904041
Zn 5.607529392813269 12.228300198970638 9.008296722076718
Zn 11.527057490849327 12.44789630118838 14.97407617914302
Zn 10.812968328644473 11.776695635000955 12.031436333943983
Zn 11.679388252033078 12.663951192721639 6.777173797673057
Zn 13.989486080933156 10.09304529770779 11.90730646139971
Zn 11.575921213457384 11.531765547787135 9.65742835142025
Zn 12.77146413555533 7.753873488171929 13.259569047523815
Zn 14.074333186178045 12.156565180532008 10.283674584763686
Zn 9.319461259765536 10.5409310114072 10.345577414846915
Zn 10.26967644890769 8.35546260514822 13.247814948223162
Zn 13.240034046872774 12.433141915383237 12.860642140737175
Zn 8.220090015077908 12.823645892421148 9.740340406839179
Zn 6.4130431243672925 10.712733661526451 10.954725523579198
Zn 11.567090914865556 14.47518227530229 13.381685732488727
Zn 13.88918732403977 11.65337232785163 7.601691851805213
Zn 11.687821282822412 10.046818345569488 7.480387419478412
