37
Energy = -24.17931179 eV
Zn 13.167770472596482 13.043287397779066 6.661890678469047
Zn 14.497061043060086 12.710536382863658 8.851071914946921
Zn 14.763051876814822 10.248689804458012 9.651951087108749
Zn 14.384066766951273 10.86008685289428 7.0239554819562136
Zn 13.21830897225192 8.853924522379026 7.891497264724371
Zn 14.699918078671152 9.680351042584375 12.181458187115593
Zn 14.923309883182492 12.257773152455654 11.37070784808153
Zn 13.183171886049584 8.227408979612472 10.32573253336681
Zn 14.84375385570189 11.713744982132326 13.8536025184197
Zn 12.786030097882863 7.80785247903772 12.740682992893129
Zn 11.376233595107816 14.550809607406732 7.400924499739141
Zn 11.710615102275217 10.68165278192008 6.668695244504862
Zn 12.76144796544294 13.960717763923345 10.394843946655197
Zn 11.951654084917134 11.949081777717248 9.023676012645732
Zn 13.138210127226127 9.839643445711815 14.297755821605222
Zn 10.971670746774901 9.403947676109093 9.200336673937796
Zn 12.442244653814235 10.801098914480882 11.39992700091783
Zn 12.911245787736066 13.278844071688063 12.787885465433112
Zn 12.724417986042964 12.23141326312812 15.240458254180194
Zn 11.399165619917614 10.305650857095708 16.299014755943954
Zn 10.600314365569782 8.666265357423033 11.598832333621345
Zn 10.859167134980106 8.474237535714746 14.314169410709386
Zn 10.900185488263247 11.144509758230202 13.357565480822453
Zn 11.120433610243882 14.122324282732887 14.36270046463554
Zn 10.678622534485406 14.670858073264098 11.790831064086012
Zn 9.88085461691353 14.012356673441149 9.289434518746225
Zn 9.580074215982599 11.383986674225518 8.097097891861324
Zn 10.268815585439135 12.050149904678204 11.100633834223364
Zn 8.64882562366126 10.013085987922311 10.317630400605212
Zn 8.598370786876565 9.552925875468286 12.928429984144286
Zn 9.065802261190226 9.72846489881918 15.547986904994955
Zn 9.867624732687748 12.321145480051216 15.716834339069582
Zn 8.973495096066506 13.337988199292093 13.324658565995737
Zn 7.7415040467138825 12.413409141279951 9.413328040380913
Zn 8.095490873878086 14.27861174392218 11.091744627068962
Zn 7.46309181688928 11.790062651505892 11.861548123008713
Zn 7.645507336983783 11.474630735893333 14.462034562622812
