38
Energy = -13.23006681 eV
Zn 19.536794102455268 21.26975447753706 21.054541006663225
Zn 12.28653528332631 18.180457075212857 13.744096367709849
Zn 20.239487998319046 20.84794238860514 1.8683872453527097
Zn 14.602782485282043 14.243456918990098 14.950817937743631
Zn 12.921036981774932 15.550047523839027 10.635773229187139
Zn 16.11877363927893 16.16485331249745 20.988826741483994
Zn 2.59643647335302 14.232075833058298 12.561788136411328
Zn 13.034254206776785 12.08282970668275 14.123208449029471
Zn -0.535783502736764 17.975565811074958 12.318269933536433
Zn 14.641755203756189 -0.2726534073170332 16.844332048860927
Zn 1.7188354083066826 16.648540219368595 12.066794165828341
Zn 16.32863310166206 14.076123301651684 19.563481838738653
Zn 18.444336420289876 14.655937614669202 20.772150010307858
Zn 13.430059779511675 17.870375020817974 11.37768634626449
Zn 1.3882316914135795 18.677908872510326 14.010321394064867
Zn 13.631879212063414 15.924677993746561 13.293458415011319
Zn 14.110284242350351 19.273048791816247 15.326860658768519
Zn 20.14590814936353 16.30007140032585 -0.049673228712274996
Zn 2.7358547465428624 15.896892872593314 14.735718894711637
Zn 15.807064507972967 14.064306262220539 17.139870940040552
Zn 15.093389737510952 12.02508147841533 18.77930982414554
Zn 18.417882287534685 1.2912408461838214 19.496456920388226
Zn 13.751604990916206 20.028552438743368 12.596276737560185
Zn 1.6611876099546508 19.20449466823626 11.44501430005708
Zn 13.688359123199762 9.936620134335238 17.80303656329945
Zn 14.8261103044306 -1.2574930617798583 19.234282570753958
Zn 14.363017245387423 11.923702097191644 16.22519013380793
Zn 2.3944006764902634 18.035816277825546 16.365455272521242
Zn 19.912730470751917 17.26732779008671 2.2870346050569217
Zn 12.54576149262203 13.531738129199816 12.185199922095986
Zn 16.207711671802354 0.9426245440635829 18.373349457098083
Zn 15.858036773405535 18.806370533713107 -0.5761500419801862
Zn 16.848636690083755 -0.38572953203206267 20.894122808030648
Zn -0.9323220305801548 19.175197045698848 3.801447025263268
Zn 17.85838617094431 17.616052999999887 0.6584363907151357
Zn 14.40718646473226 -0.6250638619209901 0.14678717730790997
Zn 19.959231605278575 18.840299365226247 -0.2267975566719493
Zn 14.124387005120289 0.18233215054026744 14.381974581403384
