37
Energy = -23.97522741 eV
Zn 13.303247527278634 13.435214202851242 11.554306764488215
Zn 12.817412173763017 9.000061825717996 12.272524438704131
Zn 13.273400771847957 8.578936043437263 9.669501568096912
Zn 12.55314050650673 11.487954971391709 13.060550978650667
Zn 11.345627929051993 9.625289553581938 14.749761499011745
Zn 12.803331153628104 6.548644003339719 11.493133739521841
Zn 13.566355126337537 10.520714994695647 7.855291632195348
Zn 11.176749736746373 7.376616733180158 13.623328904372858
Zn 13.133466555136245 13.156001735057545 8.84721785259036
Zn 11.954908929041988 15.0874281751932 10.27635927468695
Zn 11.693806127985901 6.2499477718536625 9.131281474698623
Zn 13.279470372903031 10.990243203652335 10.522048958363452
Zn 10.98932930419808 13.776185021148793 12.93001059675425
Zn 10.451898653720534 10.224087353737309 12.108310029197916
Zn 10.313384717971749 11.97564657104711 14.464953136502311
Zn 10.369348019822674 6.018158059068773 11.40398977064188
Zn 10.641788905540016 8.445512464337508 10.375653829099148
Zn 8.737606963299577 10.011597540300608 14.132253428924157
Zn 11.105075324500692 10.32152119088085 8.847734787095467
Zn 12.641018721508013 7.765184190252943 7.307390573651595
Zn 11.820124116686046 12.207628164235686 6.912743740444103
Zn 9.604326941989466 14.578713689252433 10.964435288865948
Zn 8.954016306737245 7.981211454130809 12.462176698854407
Zn 10.099849817381138 8.000466356019016 7.751013832853768
Zn 10.525628148331002 13.746201743171826 8.483838448001643
Zn 8.699455626482576 12.318556762378918 12.272231612016592
Zn 8.842397045939641 10.537846264985395 10.13194535683282
Zn 10.899330567150981 12.15405515583681 10.571645696674276
Zn 7.0589437872165615 9.772024327582775 12.168449774148023
Zn 8.124337076482961 7.990446211894781 9.941386195559575
Zn 11.611204556672432 9.781738720376275 6.204637027913052
Zn 9.185521544412063 11.60861520571594 7.615059757629912
Zn 8.109853545218941 13.066771640162436 9.565645654826524
Zn 6.022284041822556 9.488418107337337 9.748249022051283
Zn 6.269349317820098 11.775575876612209 10.808004395878234
Zn 7.838410235946811 9.274738411692752 7.682709893221336
Zn 6.5604362869134 11.418392608213246 8.191705548691077
