32
Energy = -19.71266491 eV
Zn 10.539005171604224 7.000693019126207 12.618549435250927
Zn 12.925215981256175 7.505064517289438 13.500195371424883
Zn 12.496977100851485 7.189652621430625 11.00861707380231
Zn 10.767493978074294 8.98171116256009 14.298627381607334
Zn 13.214936368558957 9.954637315767858 14.059270142754789
Zn 8.792966546788156 8.866028712931351 12.50636495080434
Zn 10.145459032062758 8.294321093432474 10.300048053049332
Zn 14.053832474011699 9.205251534986548 11.680714839047576
Zn 11.390242218825392 10.037481326352536 11.948890785266343
Zn 11.333328315354798 11.454796158724161 14.962590957946862
Zn 9.102450244342291 11.231225502874613 13.809023042270672
Zn 12.538107201916885 9.192955628804755 9.412412922285
Zn 9.174096981900519 10.895420674540189 10.714341997288045
Zn 7.044019101614444 10.701427095408583 12.171565189896954
Zn 13.460829243106419 11.790636631953353 12.172290721798513
Zn 12.773554039872286 13.357431906663962 14.284265681251004
Zn 10.910055883933902 12.586101002754049 12.31187874984826
Zn 13.233648209465391 10.848216568403817 7.528785099940102
Zn 14.285577530298761 13.72021621850214 10.613573046453352
Zn 8.895427842707345 13.900052149376661 13.244468749738298
Zn 14.425190002509725 11.135654272606557 9.842534903109307
Zn 10.119310162957634 10.129679858857026 8.46481417049349
Zn 13.824452580855871 15.021070859388265 12.739130388504993
Zn 7.546040618856509 12.964444498383608 10.639956798988996
Zn 13.849662006355318 13.234572041899279 8.175242377256698
Zn 6.635988245634906 12.982612015800916 13.08109450549764
Zn 11.09024019899071 10.387511259331811 6.1379054689947905
Zn 9.312712232458782 12.732744090509653 8.74616558493998
Zn 11.739999334120748 11.720769844443248 9.994843131490446
Zn 9.690595936584707 14.450639755410556 10.839609677006424
Zn 11.43617621496684 12.782297500848774 7.3018559965165615
Zn 11.822036466746475 14.314310628221554 9.460000273060857
