34
Energy = -22.2215941 eV
Zn 8.172538447460589 6.970947828854351 10.966035557140208
Zn 10.383873959683381 6.492858861827963 9.64195221116782
Zn 10.4239872804612 6.42396422244365 12.222279510830086
Zn 9.049323868522762 8.326829719378045 8.521305719990659
Zn 7.238255977502549 8.766006820736447 12.610566943338771
Zn 7.0779516708567165 9.166549760105275 9.991361387653438
Zn 6.244726229605375 11.549350996263119 9.510713066636349
Zn 8.950117290074138 7.51315629837265 13.925480271530494
Zn 9.736790912628605 9.122026918097603 11.163358318847905
Zn 12.35031157181271 7.592771422475018 10.906820858661256
Zn 11.455110466803694 8.654619666984209 13.173417903292712
Zn 10.620823644491775 9.60767228117958 6.961977172230018
Zn 7.743102641471436 11.149794274774857 11.74453338107553
Zn 9.402761333567874 10.2087791738289 13.56386850064361
Zn 12.091177290720204 7.5104354631934225 8.005218825147404
Zn 7.529321184730118 10.27578343762468 7.565353669847774
Zn 9.227671721356211 11.003119529695352 9.509112803832359
Zn 7.407478241126365 13.016435087597138 7.872525652815295
Zn 11.499569632786075 9.709284137860791 9.523090064719055
Zn 9.421918374203871 11.899768842965162 6.804166557514862
Zn 12.090231483389555 11.195617518858995 13.517520611822134
Zn 9.517589925150183 12.746463632455239 12.897940075578562
Zn 13.307824412556371 9.835560774134992 11.605179082906751
Zn 14.166138753475238 8.558105621404989 9.255583994116346
Zn 8.03006151829487 13.370517369005988 10.44795800476125
Zn 13.33879952112035 9.729748667436478 7.226499669625492
Zn 11.045278366896717 11.528737169029291 11.16445529697351
Zn 10.05022071216801 13.438977033906188 8.802811914399644
Zn 12.15347115925018 13.84932252537798 12.879435996886155
Zn 13.891101404455862 12.342412471079307 11.884912969613575
Zn 13.955711287020666 11.235153319881562 9.428197615057716
Zn 10.348365687652432 14.376507162339552 11.1726494221741
Zn 11.84451808043315 11.793823949284295 7.864162258128108
Zn 12.465697359715293 13.364089652942237 9.90411508004574
