34
Energy = -20.2727306 eV
Zn 8.222183096023619 10.067467159907952 11.294599021478424
Zn 10.288378445855898 8.634575579360936 11.8744299580175
Zn 7.939028301027167 12.385385758719252 12.647569276837077
Zn 10.287296641697774 15.324204178295336 10.813249189343367
Zn 14.301174130637756 6.030837466217388 13.64123151901839
Zn 9.979838021019429 13.239521758820885 14.218771899945024
Zn 13.235171251574783 9.783831991421284 8.506006343487076
Zn 7.5599640079493495 13.359224940201118 8.206025538590835
Zn 10.609586928565738 10.161658132323407 9.21365912984119
Zn 16.78265878314274 10.547149538628567 13.414123465218443
Zn 11.668209558871233 13.411908261589522 12.103381796244696
Zn 10.026465611581157 13.874657994543943 8.33959380861955
Zn 12.213416240052581 14.692770506745601 9.349034519693028
Zn 12.368174546977997 11.899749511762735 14.329728107906368
Zn 8.32530566595448 11.021586131101834 8.77588583471973
Zn 13.979368101896736 8.182983952234338 15.16716008010614
Zn 7.960152027348236 14.263954730406333 10.546656107651453
Zn 6.640254253694025 11.996260444870558 10.42695051461999
Zn 12.42385742665321 9.541053962751958 13.574455221772832
Zn 10.15209215283166 10.924854408559044 13.107211885462297
Zn 12.234870020061539 12.252898789734076 8.612990370357423
Zn 14.397361226656583 11.282662868624783 12.487311975569368
Zn 9.959455803485612 12.369956061548883 10.58937105541413
Zn 13.215981990550393 15.702526204242071 14.418236181336411
Zn 15.61243004876314 8.224450528798776 13.10563691170301
Zn 14.966665761938527 11.167920495812004 9.706070582851137
Zn 8.595190442690857 14.894663046415436 12.885601238253752
Zn 10.937238107186925 15.658066257374086 13.37128627431444
Zn 12.499254540832466 7.2527019317842365 12.264744777308698
Zn 14.108954415735294 13.597639566085553 13.359084149810235
Zn 13.854719725574434 13.214966623555465 10.672272531594263
Zn 12.062598763692993 10.96597675662775 11.221365273335392
Zn 11.926807042579107 8.134527455109064 9.944754976346383
Zn 14.10449666343246 9.095892239460163 11.047161447680265
