30
Energy = -18.28007533 eV
Zn 10.884876009226993 14.59992182339745 12.701404119189975
Zn 10.88358419682472 14.65744001478432 9.591131969983188
Zn 9.553450147597133 8.197343380219971 14.123918697515313
Zn 8.695448829470228 8.277649393000907 11.631776988102665
Zn 13.07728764346519 8.697558427745987 9.061618424802717
Zn 10.917374985166129 10.398318344856108 6.58551411821272
Zn 10.96532599144944 10.1333651755365 15.000154673095405
Zn 12.342934719092456 8.200606218118732 14.10722980533826
Zn 10.883197634003464 8.065234409304544 7.402133310333762
Zn 8.662295427209607 13.188871496013586 9.521094803089055
Zn 13.189143916453357 12.910115410321174 12.312929935704853
Zn 8.565188711053143 12.850535460619453 12.310363657844338
Zn 13.16242813433297 13.277214809107045 9.530961619569288
Zn 10.957993974138924 7.000424813587706 12.361575103823764
Zn 10.901730818532993 7.545236564514058 9.939653954299963
Zn 13.032728276815858 11.21056324796978 8.071270140380465
Zn 8.696293410440962 10.496043620617785 13.311713752848894
Zn 13.165623727269532 10.519975279793709 13.28906262252066
Zn 8.785587630634383 11.13095549521525 8.055597725654486
Zn 10.884680033064205 12.235218738365273 13.66216023813018
Zn 10.888725100713263 12.726567494082767 7.857539325541911
Zn 13.170926881197143 8.311156275402405 11.599614241145423
Zn 8.71002505395884 8.678226933403769 9.098282202846445
Zn 8.415193065928081 10.799486943714237 10.711741549125401
Zn 13.419129503395203 10.8572135639966 10.687683137632176
Zn 10.910725518819406 10.286521961733133 9.46847480562222
Zn 10.930133870509863 9.917006015907317 11.93536799372052
Zn 10.901405821236102 12.316777870987341 10.942821303387696
Zn 12.85156114307069 15.215438010634339 11.205911840716185
Zn 8.903310072309619 15.135446447703565 11.206768725142885
