38
Energy = -24.71279725 eV
Zn 7.7213268649924585 12.115605014153697 14.693275201974643
Zn 10.050508762177133 13.210319363240849 13.964985872203814
Zn 8.084795619946542 12.41378728024757 12.204429305827487
Zn 10.610723389079677 14.044730462294496 11.563305287274442
Zn 8.48301106865211 13.966073399868055 10.119659758442172
Zn 9.774161664558989 11.122911122120694 15.716401139126905
Zn 12.510120796145012 14.052429808188505 13.333454352146543
Zn 8.1651810693886 9.70815707587196 14.025273686994652
Zn 9.232037728231075 15.110255433601264 7.988128187992748
Zn 11.055598525729232 15.678707606545602 9.475217427493538
Zn 7.518238103854855 11.513433448027119 9.858854534284172
Zn 12.45220624789492 11.975318607858478 11.484684633814984
Zn 12.03862167330916 11.671446163263456 14.640361169004914
Zn 13.106925681664487 15.358974358763012 11.135454763199327
Zn 8.259879183144006 9.573439175923681 11.318701482181938
Zn 10.276676774804454 11.793731895798283 9.962028558765452
Zn 8.490431410252135 12.530746126937284 7.784280039853972
Zn 10.960427401925356 9.231334138610618 14.396031148692625
Zn 9.460538607895709 7.883282212120481 12.809454143549523
Zn 10.258973101159286 11.001747359266382 12.501293523896754
Zn 14.867718304061654 13.61621347836044 11.56342624814469
Zn 14.314066279354893 12.29428949877706 13.669288861565942
Zn 13.195172143762756 9.936683207298074 13.114620438464318
Zn 10.963183056604317 13.092229513727538 7.5219375479745505
Zn 11.535738326942939 9.604679179877555 10.821642597926132
Zn 12.639209353000544 13.557762336920343 9.333011657943594
Zn 8.606766459946467 9.540014698825027 8.747569371416581
Zn 11.962945493385918 7.528140359378865 12.626178889744592
Zn 10.123286744466053 10.728939984198727 7.096625620198415
Zn 12.364924459559422 10.865983418471291 8.502879833904489
Zn 14.493812285373892 11.899884875829022 9.667224449126973
Zn 9.888607101636865 7.634343817542916 10.349274054182278
Zn 15.38463625447207 10.91473961454659 11.830347692617249
Zn 13.978418101743928 9.338384606571825 9.934556600726113
Zn 10.869793022384211 8.556127064187962 8.115168074153976
Zn 15.12388491194373 8.378080328220525 12.26479624402532
Zn 13.849195033499655 6.49456736439306 11.318721239071843
Zn 12.259074205839434 6.9933218129547825 9.478271574875835
