39
Energy = -26.3830473 eV
Zn 9.374644235884533 10.842222275319989 7.42512663916908
Zn 8.76946274957314 14.200000806245859 10.120999115012978
Zn 11.478160848087946 9.76763274714634 6.4936951811972365
Zn 7.932606326742324 11.987507765611129 9.196901858320917
Zn 9.618987831751635 14.542353159891478 12.45882737245712
Zn 11.710357406224277 12.251367830063696 6.514819611707886
Zn 6.323363965888289 10.765601450030362 10.837485964738562
Zn 7.947969053937937 9.374803423280072 9.3566085723783
Zn 10.237799036740896 8.574244834509251 8.57407782060919
Zn 10.09682377942207 13.254848454367881 8.219615753554164
Zn 12.776853699270399 8.382333170941447 8.12914326912104
Zn 11.193114273551329 14.92340032603968 10.095950984054586
Zn 7.517080930250372 12.859380568684431 11.78879095319535
Zn 11.264805280353896 11.105955840458963 9.535248633722693
Zn 13.495688100902411 10.841099108783494 8.171544309646585
Zn 9.452376763697643 10.922228166391733 11.209522043098088
Zn 7.224403039214904 10.711938393702752 13.30354172005091
Zn 7.276472745018109 8.632428532048445 11.878483612995582
Zn 12.739354597062636 13.361019077382368 8.664844068313226
Zn 13.482428112387929 14.16981740563133 11.074533164510314
Zn 14.05457846379297 9.08721046374505 10.257035683760572
Zn 11.93191070163819 7.501211438886502 10.354848343074266
Zn 11.897411434231723 9.940315416259743 11.777361849116447
Zn 9.661511253020908 9.409134712691333 13.359640230881485
Zn 11.887549456159917 15.68476831907673 12.44972712634391
Zn 9.415533440364694 12.152305247684684 13.613857806509634
Zn 13.839252912223271 11.64305983867596 10.725805604910624
Zn 9.467619922579813 7.827335050953356 11.000511288217366
Zn 13.80947958843373 7.5110641922486066 12.255250508341375
Zn 11.483846573628897 12.559249911168305 11.76359325519386
Zn 11.256438475214058 7.3846609619147285 12.847825257776398
Zn 13.923817289487623 14.571297740727383 13.541901462946758
Zn 11.7544183282678 11.075278710185131 14.196550411825715
Zn 14.803705348818262 9.871118133415294 12.640550434303991
Zn 11.424986565064387 13.857198578104965 14.230815251513473
Zn 12.826965910906615 8.709785346151214 14.276391048098358
Zn 15.026181831583523 12.35223055921779 13.25229448474393
Zn 14.272952470189994 10.59208132009145 15.109949057596488
Zn 13.491283485405933 12.91429295014553 15.457460417901164
