38
Energy = -15.00504218 eV
Zn 16.678483480634476 17.313162759954217 -0.21550849928615812
Zn 16.037987591151712 17.71226331459573 18.86244120130901
Zn 15.751445240306834 18.142116999848856 2.008182742112692
Zn 16.04868592453352 0.11830557533633777 15.960325706391348
Zn 16.79851002740152 16.1710823110705 12.355992500830821
Zn 14.949582018740585 22.797529526481117 18.154989680781473
Zn 15.999447175246127 14.565899199209763 15.167512545401898
Zn 18.15627099348478 15.966165961117612 22.295755636404415
Zn 17.56916080269161 16.905308158124402 14.939105252300717
Zn 16.882335695293307 15.962846140455133 17.141473405831718
Zn -1.7956134257894636 21.154378082550465 20.606989694919033
Zn 15.835411079836057 21.31188445315278 16.010984031081076
Zn 19.884146088275504 20.22395522420101 21.20744006443434
Zn 13.35696393905207 0.05336279182418701 16.579021203813156
Zn 15.948598164181314 17.315761280467946 21.43606372147058
Zn 19.912369315113565 14.968137013966416 20.705913049722543
Zn 18.069701689745887 18.890603902729996 22.534146856299536
Zn 15.06725341352021 1.405038084522773 18.063269511972244
Zn 15.554001041536957 13.96557407418595 12.659528019658302
Zn 15.306938424611467 20.118338272578146 3.9137468955685972
Zn 17.018245015102465 22.810789741770023 13.972227105694754
Zn 22.308457473363852 18.652318844302595 21.431757041824945
Zn 17.89190027654493 19.156108288906573 19.90021359293652
Zn 21.718211313607682 20.612337561145594 23.187483682162082
Zn 19.902794412623557 17.54760472573671 20.666936073513366
Zn 20.353801515601532 19.684673890181106 12.247878741709979
Zn 18.76832797338983 17.732959079844942 12.85752299824564
Zn 21.617987339798653 10.526721624396405 19.736478973841102
Zn 16.052574553611386 20.328338574007827 18.371686550218087
Zn 21.55288935744515 13.103679392070442 20.35831911931285
Zn 14.34086884509192 23.056469497253804 14.257327748566835
Zn 17.997068221395143 16.17558727654466 19.50395156849147
Zn 23.558113770318737 8.725720171731274 18.76155866107992
Zn 17.886553767045864 20.498680928761583 12.80544190691187
Zn -0.026862090512956304 12.85844151437825 19.743917614704365
Zn 15.279151307373981 20.735154652881548 13.458963160546624
Zn 1.4486514697806538 10.63068051832637 18.8947121411358
Zn 16.15179685636833 18.416605949571544 13.454309097952198
