31
Energy = -16.39874382 eV
Zn 14.435460168674217 11.057922393549898 15.190924816920099
Zn 13.789453582470868 13.47160929781727 14.409533194600739
Zn 15.293741979909754 14.227326131954893 12.494827039103477
Zn 15.387277087675663 11.747356611071952 12.819256320391842
Zn 15.300118746824309 16.25798265842778 11.059670186203476
Zn 14.80611657105053 9.351145829869663 13.406424475910187
Zn 14.191429056230156 12.677111577564276 10.663514536188028
Zn 14.076371517376394 10.11557102301888 11.017998028299598
Zn 12.063519260144789 11.81820560859915 15.640909246379382
Zn 13.143728800890923 15.554261258865914 9.834542021762779
Zn 12.966875940636205 8.073775754094848 12.296727196047412
Zn 12.9812599121532 11.18203422847709 8.920778850723778
Zn 12.308138194134301 9.676188215769075 14.25740417117165
Zn 12.597439020369526 14.180419064322697 12.074859781317185
Zn 11.392831449326664 9.50481838568161 7.650308105226417
Zn 10.184436975309355 11.316589765619055 13.918128891238002
Zn 11.973497049593592 8.799250648744533 9.953641123474284
Zn 11.209055966602374 13.718903350170091 14.176738859223509
Zn 10.455061588188599 9.242465833864804 12.394059900801453
Zn 9.484525945771372 9.970604019713438 9.354575398344277
Zn 11.673418848691496 13.478167730232276 9.685028069811143
Zn 10.208699837982735 13.235829771120464 11.879199843401167
Zn 8.558763443258236 11.07554651378025 11.886101181441381
Zn 10.838552220262006 11.994052746016626 7.765962610329934
Zn 11.126339892896965 6.730831341117825 11.268821776264167
Zn 8.90056599484044 7.696705760283861 10.817621089146003
Zn 9.144179584815932 12.647307865006972 9.491829163761478
Zn 7.172656505129534 9.461198052317917 10.556012838506486
Zn 7.661081063365965 13.567725306262668 11.677015346105177
Zn 6.5793220271418 12.848615853767926 9.469975991337252
Zn 5.381088579875896 10.605484214489602 9.252616758161878
