33
Energy = -18.37564531 eV
Zn 11.391739575471362 8.692216515869712 9.316945981086763
Zn 7.820092849951146 8.917100035244786 14.592725279885109
Zn 11.122975189197353 10.682690187045337 11.315697596896587
Zn 13.485476525849384 11.700472768113965 14.881031026330266
Zn 16.411377757679368 13.75884220815723 13.169470485194493
Zn 13.048542179257355 15.432564715479634 10.424331831991296
Zn 10.919017902333572 14.517270207626359 11.565587355587251
Zn 9.193586310569506 13.099216251265029 12.793132231461126
Zn 8.998370563335426 9.971481501741433 7.0986553453134045
Zn 9.90822225494676 11.603710013559814 8.951616053873767
Zn 9.57752425263776 10.63049033588065 13.49054363711783
Zn 7.333986227464578 10.6959488241572 8.877934499832124
Zn 13.85955789650159 11.224798228268961 12.244974035022665
Zn 9.7455616514212 7.696281216792818 11.221487134135087
Zn 12.216469148073898 9.840001510069015 13.84955868835373
Zn 14.83707376060976 13.572297705669849 11.202866171790175
Zn 5.749865343886051 9.947673227352096 10.727420063680986
Zn 13.747802945987596 9.218040040904869 10.45363443144319
Zn 13.06426002888293 13.79779472383316 13.058982631655875
Zn 14.006994966342347 13.86927047227395 8.659608882614286
Zn 11.19304102445921 12.523271744457805 14.325861493964439
Zn 15.728942412092946 12.63271619799807 15.362464909381917
Zn 12.18869906404843 7.991487205897901 11.964294846911711
Zn 11.384740169667683 10.191086382647628 6.581355477237406
Zn 7.510706564331168 8.681487314285897 12.05692347318119
Zn 8.898069552096066 13.592432197344268 10.241759446309072
Zn 10.267731852039052 8.108185498150634 13.671566410483635
Zn 8.37731888484794 11.166792592993062 11.207769547100138
Zn 12.025516328350907 12.637588767519023 9.949937384700778
Zn 12.399019608829537 16.427409750614608 12.790506943891842
Zn 13.274205792135179 10.11432712010413 8.100397921069225
Zn 14.503478295308582 11.528599420880761 9.715881229444612
Zn 8.706872723488198 8.52523578132376 9.164701645207762
