34
Energy = -22.15834506 eV
Zn 14.380602085978472 13.781500338523022 12.376534208409597
Zn 13.533861061915779 11.706061508271805 13.59313952851938
Zn 14.519659598208232 11.535799849922837 11.019861607675946
Zn 13.537990501252006 9.418903204131867 12.441800744781172
Zn 14.255750235226687 9.181521296034694 9.868350721570636
Zn 11.8447298436169 14.276928279904705 12.59979673431968
Zn 13.30524279394387 7.12352139955931 11.384992463653628
Zn 13.339049926845837 6.87654377758869 8.92960413911118
Zn 11.388279943242587 10.032763716386944 13.855805814213962
Zn 13.00655387816595 13.627374051179405 10.160731746384913
Zn 11.068337576961538 7.69388493180736 12.513496348874808
Zn 11.747726777876698 11.764994964758552 11.552763620024155
Zn 12.943189235433723 11.28560734712177 8.889663353745847
Zn 11.547797196052601 9.419229636584507 10.550567854946515
Zn 11.321552450267333 12.632463214979708 14.522883770634731
Zn 12.159575686700151 8.922440052802315 7.933592827817562
Zn 8.958220586547945 8.701147336630452 13.563593444298537
Zn 9.085812504154926 11.31708821950371 14.629420439753218
Zn 10.790728227324218 7.171975836640745 9.475739660955856
Zn 8.825181762044839 8.440288687087378 10.716884764338982
Zn 9.5158362157576 10.708660409894403 11.949665994195186
Zn 9.475102656780907 9.028139828997734 8.19680012226997
Zn 10.130599009145847 11.285399610932158 9.540375452737583
Zn 11.040510510181813 10.989012563106336 6.973848316190812
Zn 11.304514021247568 13.3751178646544 8.287706997609384
Zn 10.089507302380257 13.896071321013613 10.557244872305416
Zn 9.393744144228593 13.262728466412774 12.91628512130822
Zn 6.846146289067468 10.029383127059004 11.795999041495767
Zn 6.895394434870503 10.155970502837969 14.255149728776255
Zn 9.57951990026469 13.119153243307512 6.4667274278603015
Zn 7.488448825959947 10.535699453435122 9.414845637280603
Zn 8.326423369590042 11.038922154063629 7.064300908197456
Zn 7.680482064510265 12.492480584702532 11.159171581700697
Zn 8.325984153438004 13.13436251799212 8.72971507709561
