32
Energy = -20.03171684 eV
Zn 12.256648669633226 9.255612723603901 6.40327970216629
Zn 9.108533079514421 12.654411892444047 10.83929982116642
Zn 11.28212752787406 5.70676716347757 8.512863425804532
Zn 8.320515117878035 8.243955817937547 11.759242243416937
Zn 10.951811266506786 12.533633562348585 9.06746249532434
Zn 10.331013752294869 10.107400848508211 10.841225185172812
Zn 13.13124172877566 7.660211882778778 8.267431180940815
Zn 8.962278633038018 6.758949343238089 7.618460327608436
Zn 10.668335639233405 8.630879556169731 8.839107844810274
Zn 10.837867360406428 7.759390318325309 12.345859941545758
Zn 10.905592161881462 12.125597738371276 12.910145269164412
Zn 8.608095501827384 9.961133144030386 9.089369547250763
Zn 8.611223137161577 12.781511112290712 13.749524156625101
Zn 7.6429461748440195 10.712479018557273 12.14878844810015
Zn 12.560727203162063 10.591637764423572 8.58547398675393
Zn 6.939889088898594 8.566732317360946 7.273437248517864
Zn 6.23316789842383 11.02607966757888 8.07887537896988
Zn 8.459502061255332 12.515715155393027 8.270787461410848
Zn 12.266401734625363 9.843107271287215 12.869042556099206
Zn 7.369929350978159 7.385146198401181 9.551674624897727
Zn 10.429728085439306 11.0420617097541 7.094455000043697
Zn 9.708832298097594 9.8740018216775 13.52726229943623
Zn 6.283598091729099 9.60557747904187 10.234801597136666
Zn 12.497442623790151 11.651666941713094 10.929524461845219
Zn 7.971840718391915 10.799981170644823 6.274925731739729
Zn 11.296343298398023 6.912856176269169 6.312912670850683
Zn 9.635325260367264 6.545686065203628 10.34606155296598
Zn 13.501337035915041 9.137134073493295 10.618359679554821
Zn 12.406879227340525 6.778313638598508 10.59045721048491
Zn 9.46726145214324 8.7422356891104 5.959741952148114
Zn 6.548713476157649 13.398155939952249 12.495782168459646
Zn 6.439053836038018 12.326179290037192 10.228567321608788
