31
Energy = -18.4201746 eV
Zn 8.838553137565805 9.559156646913669 10.572626276232663
Zn 11.297698922054288 8.544088205680213 6.641507068485899
Zn 11.597619406382835 10.587778607550595 12.03159032327957
Zn 11.847220135599832 5.927024981117335 7.132133760689127
Zn 13.306930439718498 9.909558546472454 7.631898646371894
Zn 10.447043447643992 7.011990594948087 8.957276599484933
Zn 13.988998967989684 7.2170671328685225 7.082913413387873
Zn 8.426148501158385 11.521342602085062 8.258374160197075
Zn 10.342756465755572 13.28521795818246 8.580055451037722
Zn 13.564574120242622 10.566762047897619 10.185159150917162
Zn 11.222878311925644 13.09772762550383 12.987082841951004
Zn 10.70919751575881 11.083260390266732 7.167462988150936
Zn 9.040140553102537 8.973278608221639 7.747390256565479
Zn 9.598412736912529 11.184876193144882 13.512939551088483
Zn 9.383525347532764 12.0922248847516 10.669020886781169
Zn 10.68318190999915 14.481396678258202 10.800011780876144
Zn 7.362598925226001 12.643450507354915 12.547221329062467
Zn 9.53998409165283 6.560117256209896 11.292805210921529
Zn 7.368193104160253 9.979250598718258 12.944363168827765
Zn 9.786602525829325 8.683039783801583 12.901873039281401
Zn 11.003453148983391 10.00407329044984 9.49223665231179
Zn 11.615050060613413 8.030940027365704 11.222922570689814
Zn 9.048611323002103 14.45001561211506 12.894708094272493
Zn 6.782326884532263 9.581410129058769 8.602404731026477
Zn 7.4138104762675985 7.517979273621014 12.13703913988534
Zn 12.744820550604189 12.377821473289433 8.450384775843835
Zn 5.8883418959009175 9.004662193199701 10.872665851975807
Zn 7.717443204148518 7.25427780734329 9.470750037069275
Zn 12.819366064412668 12.876667851817393 11.017353772663473
Zn 6.780390614690776 11.514854574693896 10.31130029722431
Zn 13.423798865591905 8.068359572057123 9.474199828404888
