30
Energy = -18.77361931 eV
Zn 10.261381276986986 9.412386244142654 6.2164702356259856
Zn 7.614058671924059 9.27413209988328 6.6616808564730805
Zn 8.895604329457003 7.159748989533432 6.470932197052541
Zn 11.209098268331807 7.15583076123637 7.571533635911493
Zn 12.694281590745476 9.337246825605014 7.385891206371064
Zn 8.752368618922105 11.384162654180493 7.403321447654272
Zn 11.410385037356413 11.560654822683944 7.167897285995854
Zn 6.615608197696072 10.29333212943869 8.685754012904308
Zn 7.248439239769719 7.733727927953856 8.870397599824072
Zn 9.74766876336271 8.766364716738833 9.065468467819361
Zn 9.961562478293576 13.410598167908418 8.280577758653523
Zn 9.010058994840932 5.828875009483708 8.600247412977193
Zn 12.943451179033648 7.789437782537767 9.466684546885714
Zn 7.769597423480177 12.684135754153596 9.448412209825205
Zn 12.193441492299605 12.896453820628524 9.354998835471735
Zn 11.691657939023083 10.426753707854196 9.543586525808799
Zn 11.094452325811083 5.935564573788495 9.935284713406293
Zn 8.744235967674113 6.703603647122356 11.097537721984775
Zn 13.39313044724585 9.570137748618555 11.27404607721702
Zn 10.064687814843145 13.195167284773591 10.941826735567552
Zn 9.291346962992897 10.613840301743666 10.54305786079544
Zn 6.312683402554767 11.16847985925272 10.970595527093442
Zn 7.788494037690496 12.915229996217775 12.176028754400635
Zn 11.277112023007245 7.787141195587951 11.611389164453183
Zn 7.163453069491176 8.746338640658855 11.16567218348488
Zn 11.63110867150159 9.713737479648147 13.178325087037686
Zn 12.273734670763734 11.85546005841032 11.723149117194966
Zn 9.912759876830544 11.587248184809273 13.026840455979736
Zn 7.618030138204157 10.437211920985973 13.063382572776725
Zn 9.283586073872387 8.52447667842641 12.96648877735949
