36
Energy = -23.79744563 eV
Zn 8.19673518844515 11.971984472123697 14.38714475276032
Zn 10.028015972494655 13.231540768119975 15.737300445620685
Zn 8.418166028878845 9.62409106755813 13.464637750785634
Zn 7.8001887356934185 12.551990665342387 11.810390688516113
Zn 10.454259430576437 10.65452021815724 14.97003862278969
Zn 9.646414861619728 13.793445691128962 13.130719942941134
Zn 7.943886525654326 10.199784652027985 10.946033100869503
Zn 8.791211432141765 7.7677593033799255 11.625536048086632
Zn 7.445845477835528 13.360973227528337 9.292350160899087
Zn 10.783550860381458 8.595159893955792 13.197511515150438
Zn 9.449244504658353 14.267181641181669 10.550615798144005
Zn 10.305675719626056 11.247867048981842 12.256029020864435
Zn 11.923591760109945 12.700325427537791 14.03765460730327
Zn 9.75705394700527 6.331052022252821 9.612151028251171
Zn 8.341810168247068 8.458577602079568 9.07273799493444
Zn 12.887618563358787 8.464837710307808 11.710075508673693
Zn 7.564832136197908 11.02044483443884 8.422298469481547
Zn 10.564984988253796 9.295246802138571 10.388706415662293
Zn 11.142549284049425 6.466028901057417 11.683109177662532
Zn 11.720350177924358 13.581040544976378 11.546709666220044
Zn 12.736889081585023 10.341225398711128 13.5479421228925
Zn 12.324309946855662 11.131777799435648 10.690312395165101
Zn 14.009591414273244 12.546721150873434 12.421837018066153
Zn 9.959144431978634 11.709465677966117 9.74703815411387
Zn 8.961597776535092 13.427996874746974 7.28548370718299
Zn 10.454906561409711 7.287155345527687 7.305326796265425
Zn 12.214722273364705 7.4297219963756875 9.410883378680133
Zn 11.479662646423227 13.818912792566893 8.951164365697558
Zn 12.014887726944439 9.713396099721342 8.138622112141338
Zn 14.778657378021862 10.206440059704775 11.885182796640118
Zn 13.909792786898883 13.681251368048414 10.076497021962297
Zn 14.150325091707408 9.427610958575995 9.529929629282174
Zn 9.604221258865733 9.931556734096525 7.437675526534474
Zn 11.070050534310234 12.053919236607118 7.192648610277358
Zn 13.44670578149956 11.852840596424848 8.350317834415177
Zn 15.494795963694319 11.723684523308725 10.03189884206788
