30
Energy = -18.04613422 eV
Zn 12.042239947553774 10.34475827767017 7.209866943717691
Zn 8.897762484365055 12.088842449768554 7.778407766403745
Zn 7.275746142575742 10.15847055568875 7.515193927730225
Zn 5.680486126486425 12.196529726356749 8.3968595074296
Zn 12.321644080152241 7.957185653701833 8.143897876091627
Zn 9.81116185170635 9.319359878358513 7.749900900870279
Zn 7.026336433839532 14.234346369536949 8.552720313710072
Zn 13.652753071629517 10.37647628476191 9.151914415679004
Zn 9.396575617312985 13.97896940623554 9.408451875849547
Zn 11.370955326900841 11.967584368887806 9.076816876973663
Zn 10.10966050228148 6.941766976020725 8.865473932031751
Zn 14.34282846781197 7.86006939841984 9.641568735508745
Zn 5.9692621014916 9.978882928845236 9.711391026075207
Zn 9.382533634969224 10.57745435444037 10.088120490002606
Zn 7.893250403611222 8.367946158331632 9.31677910198638
Zn 14.583701178525294 9.714767538171063 11.45809171352467
Zn 11.508036226082403 9.328463016797489 10.430855296273668
Zn 7.278661285123274 12.08959910243418 10.641568228680041
Zn 7.3537556451449415 9.405599428212204 11.771979065033152
Zn 11.348019319362342 13.652762865518964 10.998830313861
Zn 9.409164639397153 7.682884807929268 11.225748518181945
Zn 12.006658196079195 6.570984743864844 10.446612029187044
Zn 13.186777136026706 11.841402728799673 11.23090263905999
Zn 13.79185979877904 7.404574148024163 12.093366191401287
Zn 8.954244218461533 13.58795559037276 11.930543164200271
Zn 9.65148625109524 9.328413326881485 13.195537712420757
Zn 8.156093312038694 11.459478731582168 13.039409712784682
Zn 10.734456213324457 11.471466874141985 12.195554009821521
Zn 12.518211529732172 9.743631868259044 12.959941229185981
Zn 11.373679414112337 7.397372997958096 12.8016970422958
