39
Energy = -25.62928501 eV
Zn 13.031521848285212 13.364008467547798 14.485926795474482
Zn 11.560577068149033 12.666008908079462 17.20715426420084
Zn 13.335714100221747 11.295468884620751 15.983927448536694
Zn 14.598857209778812 10.814298037882256 13.865604019927218
Zn 14.770802270084285 13.197681809677263 12.644815307019059
Zn 14.728906777836423 10.878521681739468 11.16228798699262
Zn 10.704134002703894 13.737170769125546 13.380399609195461
Zn 10.408669617881962 14.50102079543715 16.001809570221127
Zn 14.570751377076958 13.382539369308285 10.152948396893875
Zn 8.647212088655229 12.021226674021602 13.3696247038172
Zn 12.350240268712009 9.437317943435044 14.369995205712659
Zn 10.83220006730403 11.574904225869043 14.82492840412121
Zn 12.304989406748376 14.097565301513834 11.419418918944087
Zn 13.767742411325896 8.91789838662585 9.574863213146935
Zn 13.870638913135435 8.749718582238577 12.389707540968349
Zn 14.603810018079155 13.500264343664988 7.632324243183904
Zn 12.348764094422112 11.531450401982513 12.540612094659286
Zn 10.057894172926066 16.123473884491442 11.639607193769017
Zn 9.81919251837717 16.12165824057304 14.130901159601018
Zn 9.934313201646624 9.769054199410135 13.156344337678414
Zn 11.432138571656367 7.5772064605423965 12.860753216321687
Zn 12.434136429311586 11.776770133338555 9.926512005417333
Zn 8.437648412301098 14.095291461660231 11.845910903296062
Zn 12.294662295412062 14.173335475785903 8.701651378918935
Zn 13.010800822109445 6.833416669315155 10.857161098357981
Zn 14.494387037942797 11.027970564792861 8.361157528410054
Zn 11.561288303217488 9.631769802512185 11.037290391405808
Zn 10.234611572655762 12.00234598835691 11.184543835939548
Zn 9.97229068883913 14.34886149699839 9.739085388938657
Zn 12.637040255445786 12.268087407642698 6.68500214577286
Zn 6.652060317147063 12.39823007528761 11.415874731933568
Zn 8.065852820013047 10.307657531532898 11.28061327553841
Zn 12.02302486314361 10.056088708772116 7.858312266491979
Zn 9.315306981679822 8.159764824242371 11.034677640134017
Zn 10.662421311443934 6.09390184191591 10.758559562877387
Zn 10.431999966358422 12.362694295182154 8.091178394713715
Zn 11.29676868682414 7.873062240665351 8.97591523964824
Zn 9.653025963066717 10.062543316724966 9.101711310742921
Zn 8.21064974566847 12.347934499311949 9.4124565439542
