38
Energy = -24.6967064 eV
Zn 15.692924322900371 10.823624635302915 9.386010784517278
Zn 11.12201395497859 7.833205659864221 13.499033490401418
Zn 12.400887337065377 8.538344424407285 10.920169225841274
Zn 16.471131414740245 13.249830694601895 10.122036760225935
Zn 13.50069704571075 8.426584931246389 13.363110630932997
Zn 13.593933870397262 9.603344199662134 8.636627290044931
Zn 14.739518610236795 9.502894654411094 11.415590212840177
Zn 13.948797593063544 12.2667991051767 8.1502039819061
Zn 15.647192770192673 11.876443489853726 12.052190361276311
Zn 9.984212253893613 7.6263087455122776 11.135463019248308
Zn 11.17171716250922 8.626636669480703 8.590175412075652
Zn 8.747641023580158 8.521467245435446 13.241810470299324
Zn 12.177972996281596 9.400576478392425 15.42069888672974
Zn 11.467500796697403 11.20958435573878 8.193120327194112
Zn 11.410362506057925 10.434672090975319 12.539246632555908
Zn 13.949717610273506 13.800782156888673 10.19818672786393
Zn 12.856661465767504 11.30504704093272 10.58410639290527
Zn 13.920768815880596 10.864035994669363 13.754894260199764
Zn 8.777634240016827 7.693386187008219 8.839027389367665
Zn 10.007079256575132 10.196314701039311 10.445587933555927
Zn 13.125803654579737 13.01634657922823 12.625778059425473
Zn 11.771154738524485 13.715369646750107 8.861239497654335
Zn 6.709777491165059 9.140312177314012 8.763800798637375
Zn 9.87127431339692 10.24058388642382 14.78336472210684
Zn 7.4014106315081225 8.659231380209324 11.150477930369519
Zn 8.99785523154738 10.206153970591762 7.926549088319041
Zn 10.710035788663586 12.546450631095988 11.301886374128728
Zn 11.762480559052996 12.002529394160042 14.783919958326626
Zn 11.885472844996906 14.989070774425688 11.203114510147875
Zn 8.417402846822604 10.934943825719042 12.492648843609684
Zn 9.37528074910903 12.64907824759626 8.87353518185258
Zn 11.3229552579726 14.45293220002006 13.753923874883704
Zn 9.375733233057403 12.878132215345312 13.745817141333564
Zn 7.561925626267513 11.211975548468368 9.978960129065406
Zn 9.688717513830348 15.00641506887298 9.880730388686128
Zn 8.140103866698837 13.333666198947226 11.291700466905983
Zn 11.910083483347112 16.859395692338452 14.575059848492295
Zn 9.363385888465311 15.296263823301487 12.383347825802472
