31
Energy = -18.35583301 eV
Zn 14.036040401085614 7.851546362616824 12.026629460546191
Zn 11.558276875760283 7.971315215196322 12.86337853256529
Zn 13.289456374898556 9.336650421464059 14.089030872751831
Zn 9.63442048199235 9.591364580534398 12.503735738218518
Zn 12.263807874698102 8.721380424037738 10.296784008680648
Zn 11.086552230571517 10.68759449363305 14.236222438712746
Zn 8.840662624602615 12.132932960038838 13.669158530548268
Zn 7.255409916698679 10.13886029078242 13.398386206558135
Zn 9.849307052957393 7.953643040521461 10.496149381061782
Zn 14.888369734592626 8.594256551880635 9.690259449905836
Zn 14.216302278306593 10.442171760042783 11.620207231973556
Zn 15.239031833570422 11.103503474171864 9.142802192561518
Zn 7.395717353593739 8.95449597464719 11.127224471011868
Zn 13.278113280981968 11.8431336167087 13.531810695913443
Zn 11.674360614881216 11.124801705086785 11.444926281953807
Zn 8.043600758252813 8.11423843597016 8.795720473677559
Zn 13.738954399958873 12.683207892710756 10.329024605522878
Zn 7.234469848859072 11.813720632247001 11.457478059396898
Zn 11.046894073680239 13.337981684149561 13.386843983318936
Zn 9.454528852119727 10.864485068254831 10.207433518377588
Zn 13.149506557634513 10.054834581872862 8.220669393401192
Zn 7.009775826801414 10.571802437459116 9.07620759744095
Zn 13.281035033092136 14.115502947465613 12.416651426754163
Zn 10.579603379098787 9.416343095148552 8.327029872587222
Zn 9.330289131659846 13.40333905558886 11.38290877593822
Zn 11.556384133687606 12.021705429000333 8.906947993190126
Zn 8.359953536682568 9.686435148605709 6.908980349622959
Zn 7.613221404622096 13.122721079787205 9.323926745444181
Zn 11.603051982526493 14.232371932729246 10.557458064014318
Zn 9.284666371708058 11.895206859772934 7.608590453883994
Zn 9.831798169874011 14.130207867946165 8.749488797898982
