36
Energy = -23.77529911 eV
Zn 10.973174710168882 12.696894626479938 7.932005413597113
Zn 15.660682140806268 11.255089142383639 9.1531286201049
Zn 13.549333070945092 11.03572092952286 10.926007764026943
Zn 14.59061147731943 13.506382477895034 10.25185897105511
Zn 10.538325322205123 10.507679184623154 15.478911756372051
Zn 10.945226391114202 15.471116675507067 11.62363870600164
Zn 13.11983249916814 9.499426244439816 15.083884459371804
Zn 12.154404220104515 14.134789914296947 9.794274058920664
Zn 9.32433674744907 11.086850362930054 13.02403595957143
Zn 13.51633559090563 15.17403424383257 11.902568283819198
Zn 9.973607531419335 8.578040134644281 12.856683963785233
Zn 10.139058962883507 12.877068978816263 14.824109524155464
Zn 12.61102369953947 16.286868490217365 14.019583233308738
Zn 12.76236113688994 12.033679285376511 15.329618303574826
Zn 15.758345605594931 13.850718547144654 12.518417658200429
Zn 11.920273376314576 14.502971296247145 15.72369225045653
Zn 14.088279958909078 14.114696680642956 14.369682426161507
Zn 9.302344595160568 13.689780639206727 12.436755457512191
Zn 9.530973103813336 13.979561376731972 9.72403699403044
Zn 13.099037037397698 18.79025581360005 14.483474810943022
Zn 12.036475496581865 8.824817457406356 11.051549166393471
Zn 10.806424442625405 8.065831841577099 15.243631456894754
Zn 16.093703655619912 10.283654572178682 11.542731434513128
Zn 11.096355935735035 11.988927725353019 10.944741860864092
Zn 14.586395907781746 11.644171235476435 13.391634698674764
Zn 12.120760183633417 13.160594668385198 12.869304341959054
Zn 9.530656641629818 9.758774374774452 10.606454711665156
Zn 13.383044594800296 12.101502385061343 8.412021817069684
Zn 8.268619898284427 12.018582787957014 10.795704722998758
Zn 8.94786622130041 11.403308452168753 8.507000743399246
Zn 11.93344168989835 10.648172872502093 13.014077835931724
Zn 12.3820480148186 7.608419068655775 13.356642265603838
Zn 10.217297849658749 15.458697397481899 14.095078311348791
Zn 17.066029295259625 12.506422030720595 10.870864267943071
Zn 14.317937735187192 9.049320587212119 12.758618633790682
Zn 11.55381209700646 10.305614336480776 8.98201195391091
