38
Energy = -24.94173141 eV
Zn 12.157239406174567 11.071043970259225 6.634111441948871
Zn 13.481916542909776 12.869076768036974 8.076105242549033
Zn 9.877761217732031 9.907121833522442 7.299959462508579
Zn 11.81685245653578 13.844105106984493 6.522633733566698
Zn 13.405750696357718 10.50638465405074 8.949472892213004
Zn 9.765244131542296 12.320227168231312 6.4796562682459635
Zn 9.16794447862578 7.958556434598744 8.792378533516077
Zn 12.086236377923933 8.405755264215108 7.412953494736653
Zn 7.410820800922171 9.874260830070533 8.194844007605594
Zn 10.887710059081888 11.818737031748501 8.997146568507384
Zn 13.37949475541739 10.110543471023693 11.583059397931809
Zn 13.304314089343356 12.57012602110325 10.69826151975842
Zn 9.783638533062204 14.478583992747724 7.915312284252465
Zn 13.509578031390385 8.033096239493673 9.502700755788377
Zn 11.814833752055545 14.31879029741034 9.489983922239267
Zn 11.125241736795326 9.410865734160987 9.752500819487446
Zn 11.440807762507156 6.586087464477471 9.763251639627107
Zn 7.024839847961125 8.575028578795369 10.383323807568132
Zn 8.114287194123525 12.291975334525324 8.542344985533957
Zn 8.949219072425599 10.534896979988968 10.451403507482933
Zn 13.046919276884463 7.586490307000225 11.938297107141873
Zn 9.24663544418169 6.86325517004827 11.066855860088111
Zn 10.737673306297742 8.900082906694093 12.17278792305541
Zn 5.775903713861973 10.822650388230235 9.99430064562003
Zn 13.27235368353763 12.291810201093117 13.262527975713349
Zn 10.989356938794069 11.441708596659952 11.575657753687993
Zn 9.537264941854266 13.553593189809254 10.46207893290468
Zn 8.261992347058383 8.627098808086673 12.652340121114058
Zn 7.132695778251565 12.799570927368219 10.907613260554061
Zn 11.416873335589386 5.621559849116822 12.312920428809807
Zn 12.118688698924217 10.156878303213578 14.020910185365185
Zn 11.55894525734646 14.021922615892969 12.253594448789185
Zn 7.075922364439148 10.847170960468324 12.42589349363037
Zn 11.677509731385458 7.450575284037551 14.340437630865683
Zn 9.421739090793933 6.365264408774174 13.756160581292628
Zn 9.48797037292756 10.673739581811803 13.720481671730859
Zn 9.011399196559344 13.02184072076381 12.890065600427372
Zn 11.078581430824816 12.693568823729905 14.460096379416228
