35
Energy = -23.28285547 eV
Zn 9.968402957860498 8.099151519049984 7.737410470738376
Zn 12.279699877046255 8.947283057125617 7.1180088576763065
Zn 10.47789605786899 10.923125887927048 7.5004577841037525
Zn 8.145654445200188 9.706452888410537 7.009350673135688
Zn 8.067008799407326 12.140169225584133 7.623774925148831
Zn 12.435268423940679 12.559274853104098 7.968698062638636
Zn 11.789399512825247 6.517062568399209 8.580164933104312
Zn 10.10185799280469 13.744208147720501 8.136714397429657
Zn 7.614225771165726 7.86679303917188 8.859717432646926
Zn 13.944610908956024 7.847776676494877 8.78932536621273
Zn 11.438428651844317 9.5306375809043 9.601474817513955
Zn 5.867093194239354 9.646541350514761 8.133903556306896
Zn 8.889168206964207 10.198485456874009 9.624835949584211
Zn 13.955700185492406 10.4583595662402 8.277608384709684
Zn 8.39518122994838 13.160190495429356 9.96704637179938
Zn 6.331270447260833 11.665822713095304 9.528550562338728
Zn 11.989634335950198 14.847809666855422 9.484899769974994
Zn 6.367292435616471 9.243409321138959 10.653034763310021
Zn 12.493224671108194 7.080621286948789 10.921226338956489
Zn 10.773372580295613 11.943965398754399 10.17807466702625
Zn 13.498215782793055 12.234784360902696 10.198707193082779
Zn 9.771307520264862 7.628043445080908 10.335510882871196
Zn 7.735170991594783 11.261190194206335 11.755154777600824
Zn 11.938499251093107 13.906930174621372 11.802296942515042
Zn 8.148849991232208 8.72017614805392 12.398378610167432
Zn 13.738744715518152 9.57198309116463 10.756995088733165
Zn 10.327299297680332 10.082407215335822 11.842271414389595
Zn 9.46172790916233 13.11775606406781 12.24670868001223
Zn 10.467773947383058 7.503509812643871 12.793584349242003
Zn 12.647946498102536 11.278713502444946 12.383250859056046
Zn 8.984697507391836 11.06370436133508 13.995769146153693
Zn 11.18101138273343 12.601689001162079 13.997263714184356
Zn 12.65837352692406 8.729796837277224 12.892427513201655
Zn 9.27295434402071 8.61176528475944 14.817282788307553
Zn 11.347708068328286 10.065081227218302 14.59479137614544
