33
Energy = -21.49949128 eV
Zn 8.290580224951235 12.59514337738384 12.511693208755808
Zn 8.997360527001458 11.352435791687242 9.013469520230455
Zn 10.167629837251534 14.32320886153756 12.560815006989992
Zn 12.108762527538971 11.61462201651703 13.24303852072217
Zn 12.957268734713043 12.38022489938396 11.02565567767134
Zn 14.981154387329225 10.388454418566475 10.74391220105412
Zn 14.888207675397917 11.665937790542689 13.060908719622164
Zn 11.034728193222309 10.133694546496045 15.287463190458682
Zn 11.90718990890365 12.347815537332853 16.282321798168688
Zn 10.533552847803657 11.74389799112815 11.270243849900323
Zn 15.547736936489736 11.722905576150911 8.410068670180037
Zn 11.454440930813554 14.565146864609579 15.06513702096503
Zn 13.775779917038028 13.342039939080573 14.7614281938539
Zn 7.821265175265574 10.39845208432144 11.22901296272393
Zn 11.640274488177537 14.847376220758742 10.27862474186023
Zn 11.26763011359338 12.607130072124113 8.885823587283902
Zn 9.876655844653056 9.010911226879006 10.892615043322081
Zn 13.210052364137312 10.852603812919105 8.651553390701672
Zn 11.404145847167442 8.781020790717454 13.04958473850119
Zn 14.180914474765029 15.223008812450468 10.532781909874299
Zn 14.050354675267446 9.256457581199149 12.954146634949101
Zn 10.930258825582792 9.77467555221582 8.67460322326583
Zn 15.555192042793562 12.939503044031678 10.618979067994122
Zn 15.091275284573463 14.220911170169481 12.729353512218122
Zn 13.667562987678306 13.586367999592444 8.661557803011645
Zn 9.306883794328334 10.246564394199774 13.333342868488408
Zn 12.467833152873878 9.624917187180817 10.842324241463698
Zn 12.95662210208395 8.285669217478654 15.07759922426227
Zn 7.133185364031129 12.629038265756716 10.155932048656176
Zn 9.914010446995668 12.480753476264804 14.549558310295994
Zn 12.601162467865302 14.818444691884658 12.70093841562301
Zn 13.696665238403943 10.748635198443337 15.297416671455583
Zn 9.296314471749206 13.944050093830887 10.091308127355207
