37
Energy = -12.96896804 eV
Zn 13.792529201751401 17.883260582514524 17.63707644826892
Zn 1.6274972595559383 1.5003743007678252 21.391477195213284
Zn 16.56701115226003 19.80982098067638 1.732912622625349
Zn 20.678948327483358 15.62679552129377 17.275867766775267
Zn 16.440333792302106 21.634161582756594 16.103646921673764
Zn 20.118566810447327 13.473692618180035 15.694989980113506
Zn 21.617366207659483 11.397513083541458 16.320859892200588
Zn 14.766455656924162 -0.7934831786344377 17.890231262608072
Zn 19.07444221042349 15.730253710225698 14.999964437078454
Zn 11.727329751814873 18.611389554114325 19.690959954695426
Zn 21.734812536156333 21.50155516972639 19.222085995737487
Zn 0.6599627932529912 22.34996555221561 20.557212396747122
Zn -0.29409363384903964 15.627354869929015 18.779796696127868
Zn 12.7523356884459 16.17918128093146 19.331967476527527
Zn 15.362951584805623 18.36622888363675 -0.3102860083341767
Zn 17.33608127617503 18.819329605730363 12.065031070083053
Zn 18.74735973256974 20.665550774902858 13.438904087616114
Zn 20.018559253841907 18.028014173539646 16.30397637503788
Zn 21.247280735551914 19.213256012729996 18.207816710519392
Zn 12.123612876732906 14.242745838448228 14.507851570456383
Zn 11.151019617864065 13.787704862265533 17.16768503989072
Zn -1.0599551438722423 13.308486005391902 18.044609417182837
Zn 1.4002219357346692 19.843289798373487 20.652215843395243
Zn 0.27785990117046494 18.04357797691792 19.223255647094344
Zn 11.258958147138319 11.634297280743954 15.120387220416118
Zn 13.719355041529083 20.194246938302623 18.820204748068697
Zn 13.278420548643616 15.59404441081051 16.694903388292218
Zn 16.08984067215957 20.144118788794405 13.95822308851149
Zn 13.168729299624552 13.565759255274468 19.121826960840966
Zn 18.981572412948758 18.07504183430898 13.92108091953702
Zn 14.059611240669069 18.230980453135977 20.564627901104647
Zn 16.57066987195166 16.928336382380735 1.7406428187040754
Zn 17.90980145761733 19.448827969427775 16.089937419890635
Zn 22.575444216730286 17.41191715257343 16.811523574480894
Zn 1.3912538109657662 4.289882554188442 21.74889728566953
Zn 15.326513968858372 19.23621698440486 16.25529315722945
Zn 13.452084493487279 12.806273998089603 16.45634108343795
