38
Energy = -25.2370313 eV
Zn 15.859890931328337 13.930586431200226 11.984879117799444
Zn 14.408333692595109 14.529372091474071 10.054216444684702
Zn 11.899622066057892 14.831983083341644 10.668592391483415
Zn 10.26907584966094 13.494621237447214 9.098716978716679
Zn 15.152411362246298 12.084232931605563 10.024307801060141
Zn 12.807654225116925 13.055001184359579 8.750581700386054
Zn 8.561647281010794 11.670303501002108 8.370987077157077
Zn 13.51855390968199 14.879043227286092 12.709864543630408
Zn 10.885633161644495 14.451141646377836 13.169869417484923
Zn 15.94436367121665 11.460168750018427 12.491219337294918
Zn 9.439012746136116 15.19876463585485 11.099200554889938
Zn 11.134431719631527 11.375277874320451 7.657225162601444
Zn 12.68369057677798 10.563473146183048 9.587564121439408
Zn 13.094537520024037 12.332311551656794 11.692479909184355
Zn 10.534836596200044 12.341494661483884 11.407414176852873
Zn 7.913388214938193 13.288504859270212 10.368207056223168
Zn 14.647343642409073 9.718745216586743 11.15212582336504
Zn 14.633446914332177 13.024554098296015 14.0768519715485
Zn 9.441820551304273 9.581806305229488 7.052409734053181
Zn 8.14329040044826 14.121255126353006 12.968712116885595
Zn 12.717346688823447 8.016287937994665 10.528516964526938
Zn 12.106847829046112 12.41436807196265 14.227972371243146
Zn 11.672851974654405 10.140283994769224 12.070591491337064
Zn 13.7363165205177 10.514664825324436 13.750847219296901
Zn 6.526700824975885 11.146597733063192 10.018278247618026
Zn 9.853974433556509 10.247598529099262 10.19372316232687
Zn 13.73219925407715 8.05147771203493 12.844817052808741
Zn 11.339125834367916 8.527267005250065 8.464960512754311
Zn 7.880805245603997 11.40973930241214 12.247332890785694
Zn 10.173704362262669 7.6588650266770895 10.87908488576671
Zn 9.562479959183813 12.229073743055615 14.016963092528895
Zn 9.229636594069733 9.332869480575178 12.832420100457107
Zn 7.1861930586905185 9.43958886148221 8.287098987819126
Zn 10.861737570021269 10.133562620559452 14.734090684254717
Zn 7.578774811482817 8.918697294374693 10.853414705834423
Zn 11.145798911019742 7.521613998798854 13.204496648275995
Zn 12.571029551662106 8.365906721507569 15.119188173823384
Zn 8.847993064916972 7.645023648323498 8.721759347628646
