39
Energy = -26.18521847 eV
Zn 10.756764308478981 10.155552046555888 5.301108527206871
Zn 11.911355127996767 12.25604000271824 6.006251970355458
Zn 8.67357831179859 9.480377768620624 6.66940188477188
Zn 12.734067902752095 10.05904617890953 7.195171612600011
Zn 8.679175315992856 6.871471722834537 7.004258376730911
Zn 10.960896201520962 8.091773841858867 6.782010938357508
Zn 9.398063931761106 12.093138360724577 6.9473180188295975
Zn 10.997015108132093 13.965080542755553 7.590553630279161
Zn 7.9480138001414895 11.358210347488441 8.910072677670454
Zn 10.450274221544586 10.207711577772114 8.596158598116405
Zn 10.214314818366145 7.50794587609314 9.229068033800997
Zn 7.768389797982157 6.158509427259609 9.216834110188055
Zn 12.876707641136528 12.378659062703301 8.455179992430045
Zn 7.470064944000498 8.76450719352974 9.00743386704888
Zn 13.947864145547285 10.237263887215018 9.512071109218695
Zn 8.926562124573449 13.801777525714318 9.07452209132064
Zn 6.496505355973257 10.448980479819541 10.799539532821507
Zn 12.69282957309378 8.056902441295161 8.813158515069222
Zn 11.491084729258523 13.9831914283317 10.045678080827315
Zn 11.582655863230885 9.632310329718464 10.81527715960412
Zn 12.96403771534289 12.10502669074915 11.114861083934127
Zn 10.038847112365762 11.717008633791004 10.617741501211704
Zn 14.224268124616167 8.068460593344533 10.925225551910442
Zn 11.931912737464643 6.8854385038605095 11.087270432693403
Zn 7.406066931469637 12.980570169338794 11.012198925490534
Zn 9.267317290457289 14.62004375031756 11.47349451877453
Zn 8.991384676256928 9.401808294043374 11.077145699352577
Zn 9.38950246870951 6.528651334954612 11.430773778626115
Zn 6.709961700806299 7.181670879428501 11.254559741706426
Zn 14.356802068962699 10.310504345548022 12.244707669356133
Zn 6.230417415320756 9.046707311654497 12.95479943277182
Zn 11.304797908587487 13.452520368649642 12.515288027654597
Zn 11.414012335861207 10.808891636148678 13.138759921160865
Zn 13.047482867521625 8.419441178881637 13.168914308637794
Zn 6.764662890618808 11.536293362399999 13.006660860795574
Zn 9.179752628142284 12.334551673635739 13.145623988151694
Zn 10.552883576724428 8.198521702561525 13.107478962845319
Zn 8.117699619905963 7.508334530682203 13.428951004605421
Zn 8.707902847296996 9.963001137806062 13.900372002787917
