37
Energy = -24.39953134 eV
Zn 7.43768368226091 13.695966769551323 9.222650977616517
Zn 9.210598147376647 14.784220112694637 10.650194414356482
Zn 7.913898061183757 12.711430464466865 11.794544171751241
Zn 6.715180940349302 11.299978067358241 9.989764544372184
Zn 9.979261088294159 13.672884581295815 8.358210946256373
Zn 10.370988133202967 13.222970146997815 12.401534264428523
Zn 9.099643601748614 11.292646691068574 13.789346028107007
Zn 8.122883912560377 11.610879538254371 7.870549918187482
Zn 11.713487378966356 14.526716138662582 10.26065207997845
Zn 9.796218967052267 11.78358848488079 10.14562496267489
Zn 6.452815339693672 9.350110101546727 8.357246662150082
Zn 7.015836621160705 7.054109403071471 9.131284542368629
Zn 7.720950552118327 10.060157674202134 12.022606833624586
Zn 11.516389919787454 11.996282437200326 14.40963757163869
Zn 12.40568121092828 12.50404310085997 8.60118154302147
Zn 13.669606853437298 14.55095270282774 11.880589421564249
Zn 9.121619786800085 9.367816656172785 9.973735555963643
Zn 10.677025933700378 9.703745192197516 15.153060524080667
Zn 13.94179072083317 12.628344542965477 13.453496418711413
Zn 7.791314192878207 7.3064009327535695 11.524883615644761
Zn 10.61698532804676 10.119086982240807 12.003990602458556
Zn 10.571030027090446 11.103571568815005 7.446783132312874
Zn 8.960689955291464 9.085736319274599 7.416167711630216
Zn 12.968388657190642 10.158483967537006 13.300619596336656
Zn 14.74625477286082 11.227441475535004 8.60338639741171
Zn 14.19476038322987 10.33652363747375 10.897126349639137
Zn 11.644757463204135 9.942077426293839 9.610536802843393
Zn 9.017645648965523 8.376446417878716 13.559057227627584
Zn 12.284450086088098 12.011215931598038 11.160917833162152
Zn 10.431129138860458 7.4393612050607665 11.372063830704834
Zn 11.576690002720332 7.911637942562388 13.709486253926194
Zn 9.609631472017922 6.9377910849847195 8.861524350709837
Zn 11.46898561733946 8.443265359214418 7.297566892667685
Zn 13.054188000644809 10.44567374202111 6.937131146414578
Zn 13.966589630536784 8.722549061447733 8.711612556423953
Zn 12.853274823417552 8.280175122206979 11.475814556260344
Zn 12.107966053162759 7.061021991151058 9.344468487099283
