30
Energy = -17.48562435 eV
Zn 12.90420101429772 13.430490225287661 12.054478258008999
Zn 14.251199206735896 13.508533528092205 9.858520368800846
Zn 10.533517903961018 14.52974569575149 12.06709034043347
Zn 11.721534229048027 14.211170031303638 9.856983639175212
Zn 11.157471312462821 13.209512111918965 14.132294178996752
Zn 12.484976046575191 11.190728201588108 13.005866005776014
Zn 13.448398672955342 11.147006726621836 10.638080193368955
Zn 13.720602437046171 11.947393862522533 7.999291599173047
Zn 9.388918332385751 13.128934422554865 10.234986299255425
Zn 9.18271021754466 12.301990328044287 12.763864902550008
Zn 11.044894824949182 12.292875434444218 8.351498511817224
Zn 10.43913687127454 10.787448350870445 14.62819036379349
Zn 12.282821811656596 10.662703436013775 6.403896788460318
Zn 12.33544843960727 8.955579541463008 14.070854566061461
Zn 12.322222218138545 8.865114485020488 11.36162251150456
Zn 8.31813552898084 11.700410608581256 8.365566858460813
Zn 12.527854584150127 9.541020108909887 8.837632845013452
Zn 7.862027191790562 11.05684897766116 10.894800438944944
Zn 9.778326957838566 11.25202348429472 6.301413618554409
Zn 9.960286089461942 8.270057801875232 14.73627035161415
Zn 10.563125987694626 8.824550126754593 7.221025679219997
Zn 9.760085998987371 9.816687526351945 12.235277758846987
Zn 6.773985528376951 9.63385945916017 9.061638670765058
Zn 11.31597891673975 6.956714988713532 12.823596027734725
Zn 10.062543260120442 10.025808098747639 9.593747436705232
Zn 8.005070333525117 9.51377577871352 6.864555299721731
Zn 7.523119950381351 8.354516364060563 11.132808007072196
Zn 8.50584303648733 7.701258518052544 8.61221259445418
Zn 8.794821789516053 7.064432560066988 12.819870717665195
Zn 10.170741267298437 7.562478391936326 10.568428880336644
