35
Energy = -22.38962948 eV
Zn 6.395490865512563 10.721567423012159 14.076012816761722
Zn 6.844309050517333 11.278254516005385 11.51885788160581
Zn 7.220306050387219 13.050835725594442 13.443908016735529
Zn 8.594726805901129 11.50258329680009 15.005567853906854
Zn 8.334511286104124 11.745925400386419 9.497201743930068
Zn 7.865510792150452 9.122207392662274 12.831473202084837
Zn 8.114593628676655 9.16943404488674 10.283366193623948
Zn 11.842520328330265 12.602544926452369 7.2647026781788036
Zn 8.72287515790429 9.647396490585308 7.859152860286468
Zn 8.343197891711888 13.707726773002666 11.238182747479156
Zn 9.861165740079512 13.403410736206977 13.531615826389988
Zn 11.151940573865378 10.061935309077551 7.170312283348729
Zn 9.397903763230914 11.998402936243728 7.180038527440028
Zn 9.476957490885594 11.1948358394706 11.940762731136804
Zn 10.282065160003496 9.620977396159235 13.9958845556694
Zn 10.117956965411265 8.22455849522858 11.774589046152254
Zn 9.891434562447545 13.787145951786657 9.066010471471126
Zn 11.143037146780296 11.754605718742159 15.163102579952376
Zn 11.177163283410657 13.390168662581704 11.365685524003695
Zn 11.149608365827962 11.172005683306288 9.633951960092869
Zn 12.470046142053238 13.976159670325295 9.2857293612744
Zn 10.560223977396285 8.46380704842753 9.273434217994357
Zn 11.87449204960538 10.605062836900727 11.931149356353774
Zn 12.6788594219988 12.80364882789492 13.438798807586297
Zn 13.540967989224628 10.787109731261477 6.359767582162587
Zn 12.141463412521437 7.890158054430495 13.439928619761572
Zn 13.879968332073183 12.93778860573877 11.131561937691945
Zn 12.971872397826946 10.203231528400659 14.334228086543996
Zn 12.565503783498349 7.966631515903904 10.82368575361979
Zn 14.21574254205562 12.224694006520089 8.460883816254208
Zn 13.02584196268478 8.7109152045821 8.354043315128257
Zn 14.81637398866764 11.29028043664349 12.808929805960476
Zn 13.877034416303271 10.34615615690986 10.314607767207075
Zn 14.323181981693434 8.846912797446093 12.49605511452223
Zn 15.273011359065453 9.886929717562602 7.89360016091813
