36
Energy = -22.66650829 eV
Zn 12.431330062589778 10.258670060763603 14.946737603990679
Zn 14.567593456116981 11.597651617093115 14.413661578273233
Zn 12.509580648897444 8.51711198516378 13.099709590917389
Zn 7.964985980170004 8.30426744630784 11.468628327018514
Zn 10.104642901870848 9.507843281479994 14.381664551984919
Zn 12.179763184025068 7.57120066374393 10.746897428563829
Zn 12.32542335150997 12.758948231347649 15.219338476604287
Zn 10.06527573155653 12.039517237954273 14.14277638872254
Zn 9.757145340096983 7.705491995456984 9.666109362068653
Zn 7.5076333180176835 8.836368295705615 8.915187897866396
Zn 12.095556115774336 11.2129000558833 12.436418766405996
Zn 8.202685301995677 10.76992425775741 13.00991906729884
Zn 14.944885333028356 9.442233381161541 13.150972232244532
Zn 14.152841993847883 7.73584110388485 9.003154066793106
Zn 13.840169200598533 13.836696855958438 13.355954877071166
Zn 10.309717355489532 9.205351619604587 11.847785335844227
Zn 13.838034024488895 9.709735091759553 10.750207370458876
Zn 11.255535700230048 14.182127383970556 13.324793106104178
Zn 14.631690211141985 11.937332773696314 11.799916275790398
Zn 6.314023463286882 10.184616724195747 11.367535611262005
Zn 7.288551526929902 12.502109409122898 11.003207566532833
Zn 10.091973819043083 12.762775708519337 11.556684391177633
Zn 13.720471289928645 9.951977629843812 7.756808608845881
Zn 11.834034903786955 8.209473711308645 8.128652342390842
Zn 9.87071443374624 9.748079489202313 7.753626074593222
Zn 13.726328981210369 12.05593766821634 9.277368158936941
Zn 11.50814336781481 10.530503743474071 9.935258242765205
Zn 12.634291489915302 13.586788854409738 11.114368634429727
Zn 9.008990538670641 10.88056982231075 9.970795840888194
Zn 7.497862456158418 10.627011461031916 7.071668031313389
Zn 12.0735085073188 11.669675254665936 7.0322924896054895
Zn 5.749260302509022 10.776393590862762 8.97901770449832
Zn 8.879926694808502 13.829058661398376 9.485282853606481
Zn 11.350074537382438 13.287455777179508 9.012832816608556
Zn 9.556199006375305 12.290839247407469 7.401959984000004
Zn 6.982294884672331 12.899501588449946 8.169786921924807
