38
Energy = -24.4958876 eV
Zn 9.745903205667965 13.434612215526707 14.44120438867125
Zn 12.278169501927774 13.114400519443036 14.163152638877479
Zn 10.676878761825067 11.209565625502021 15.178430596305546
Zn 13.22676014625574 10.891558373058636 14.840164801029161
Zn 10.791613426111695 15.080374990935846 12.766222290389624
Zn 8.491966897602769 11.344720916991822 13.572873967846828
Zn 8.736862616681666 13.475896666653243 12.09724481708063
Zn 13.791506063464393 11.733755107458354 12.298533312953898
Zn 11.566141265997697 9.377575731837528 11.751767780081138
Zn 9.383120233711212 9.048152623164263 14.404157842339062
Zn 10.905042603109052 11.824072908818515 11.728518792758557
Zn 12.980477610441037 14.168304323404133 11.938607835187673
Zn 11.841510425937276 8.807657437110796 15.079453019712359
Zn 13.794669811435814 9.183026666093381 13.10189228559559
Zn 10.877227933758245 14.291538900416816 10.280338233598743
Zn 6.374911199984271 9.376012590264315 10.219014043964686
Zn 7.8883181239643285 9.10456115615528 12.391447774143117
Zn 7.19313041990648 11.577605168600401 11.387934999163852
Zn 10.79566961149233 7.126218559009487 13.447261178729452
Zn 6.84652492039598 11.404582700707873 8.836134379705475
Zn 12.989928680651461 12.677146622396284 9.92072206128069
Zn 10.553851011426291 7.172174614214016 10.928242503895444
Zn 9.358289944700918 10.226800574201624 10.345962745785767
Zn 14.162336826097194 9.733354360654381 10.632250381626086
Zn 8.827293043021726 12.876764767825875 9.583276316135033
Zn 8.212111387850921 7.757355160939061 10.200958647159005
Zn 7.640396772036656 9.061798933548465 7.9047974403604595
Zn 11.615760732064478 10.54592486559429 9.194775520873515
Zn 14.845329771524865 11.466522479050305 8.833540876506182
Zn 12.523756830118675 8.013724312900031 9.430405258124178
Zn 10.079490680490919 8.267845696065567 8.467179273951723
Zn 11.029832690611446 12.887911026160705 8.10064116294075
Zn 8.802661782842979 11.489367488615548 7.3011658432579924
Zn 9.443579678424697 9.273337096985998 6.127790682463883
Zn 14.115247600379977 9.268256773019413 7.915518364762782
Zn 10.910304843890009 11.333629854865357 5.901542686923431
Zn 11.931871859460182 9.028836702613866 6.708415997515191
Zn 13.149122083665729 11.727533998350573 6.963180265012407
