35
Energy = -20.32952409 eV
Zn 6.081042526612541 13.954022324186363 11.254665501011543
Zn 8.26860306074663 12.720043065798121 10.56319502691001
Zn 12.49416563782085 12.14104100281882 8.875461186934578
Zn 12.61613106938966 11.086807595084675 15.005288791392301
Zn 7.8892698492555215 11.768140504534076 7.448009954483616
Zn 9.936072922445666 10.68560409527894 12.11238279117755
Zn 9.746893916129256 14.507192985605613 13.750126795285277
Zn 11.511444238109263 6.718055987481189 10.088639778185623
Zn 8.161469923695986 12.483987645551649 13.082937622689611
Zn 11.739109079587568 15.512740705775167 12.364346592447742
Zn 15.044954821687035 10.60277101877265 14.228527529519683
Zn 10.328249124008689 11.280943135264126 7.875904263891656
Zn 11.465199386925338 9.953481798551278 9.970581876800818
Zn 10.324586068646411 13.51903867153805 9.160561147331293
Zn 15.153715947602873 10.165939188797383 11.664048875339029
Zn 6.225733951758478 12.970240860836268 8.870757817815194
Zn 9.953071809582639 6.023084357032399 12.203238283150869
Zn 13.23181862459818 9.09855762167887 13.361698630957012
Zn 10.797599588442534 9.37844188246562 14.406146137827122
Zn 15.869356949645478 12.483236385988603 12.620758948600367
Zn 10.026203198859637 11.771515850429354 14.637462190284806
Zn 12.406995527564913 11.550581221904846 12.038152402202638
Zn 13.939400398234579 14.189021427745583 12.369083682834725
Zn 11.1601606799606 8.27256573864405 12.165486801536272
Zn 13.423280363664322 8.387040282833736 10.897657083301901
Zn 14.167887530859685 10.205151324728249 9.2370452638897
Zn 7.3955108288636255 15.031239220328985 13.028632469992777
Zn 8.851726024630485 10.408978717639771 9.715445537747481
Zn 13.670662710812168 6.782037356385828 8.716587221972311
Zn 14.429791136085234 13.034512051831483 14.68372768615205
Zn 15.486065293308226 8.45416572056538 7.95752733047349
Zn 11.980590381192131 13.350465991808864 13.921850494060951
Zn 14.40547363097133 12.46391562926595 10.536762207833767
Zn 9.580541999700742 14.901543455643003 11.169904707986383
Zn 12.497526839351371 14.367607783096165 10.242064897027323
