39
Energy = -26.08548926 eV
Zn 12.099319490975113 15.058574459914276 13.383573121261042
Zn 8.105553132757281 13.270214058056382 14.121094778912193
Zn 9.83366164505555 14.413213997249157 12.219641662796022
Zn 14.23295923536803 14.908477442616388 12.216402821676434
Zn 10.683313792251019 13.141882804960394 14.307761873146756
Zn 12.000738747541098 14.300854818075956 10.325874136458031
Zn 14.844641777907158 13.844709495026898 10.095959054550645
Zn 9.493570338595422 13.605614896720152 9.772307094745651
Zn 7.675676797696269 13.038597982486476 11.618085623263026
Zn 12.515630429040149 12.372197080287952 12.149822541842925
Zn 13.379794991623726 13.712262370834079 8.058983499238595
Zn 9.249370864763403 11.064146912407837 14.81839479321481
Zn 9.905584532395647 11.607153699057786 12.001689525691962
Zn 10.963980897695132 13.93054380214854 7.710432369185644
Zn 15.270988285648881 12.321286211127846 12.067018959136032
Zn 11.720934532350839 10.77157220227373 14.200888611194458
Zn 9.383695680430629 11.960551252940665 7.596633646433333
Zn 11.283306072198418 11.66542253381078 9.790634483550138
Zn 7.82376623550951 11.32868229472711 9.731203199271402
Zn 14.05985597133095 10.41101103798435 13.243775748421122
Zn 13.945599825186195 11.5272950783125 9.388897078806398
Zn 7.9957689551884155 9.902954780598595 7.560993635122257
Zn 11.897522928811982 9.840759075717783 11.519606130238587
Zn 7.26483167466107 11.000678651993756 13.164211097363339
Zn 9.661641893873501 9.6139074361795 10.311403595746215
Zn 12.196024403661957 8.307416953780772 13.649389293003317
Zn 12.120334666855326 11.57043552021185 7.272718262696965
Zn 9.608242319274261 9.174252331534177 13.03414031251384
Zn 14.59485698396331 9.513668080395654 10.817287032621241
Zn 7.0686775486705145 9.015607920962413 11.744148873151838
Zn 10.567077257613796 9.489761731718813 7.576184042807819
Zn 12.75434449697249 9.297474181523397 8.920324270667157
Zn 10.695180363345772 7.007151113121887 12.047759735357458
Zn 8.547369867860162 7.006722163159454 10.694735001901542
Zn 14.55683823538894 7.90462157470453 12.824230209383296
Zn 8.763946164336037 7.396573173696373 8.050627920461688
Zn 6.883261304149937 8.528609555363087 9.319681107094757
Zn 13.004166324365826 7.311193202014727 10.906520962957298
Zn 10.96443597218664 7.480170998812178 9.372185163460026
