39
Energy = -25.53551356 eV
Zn 12.913719127453891 8.190022855820832 8.256263253370824
Zn 11.078257296180913 8.877894418466745 6.612942196529532
Zn 15.061429279871515 7.740549951215573 9.6720198679665
Zn 12.689569007756118 7.318232833538723 10.740182172456938
Zn 8.892237780845887 9.904106793123255 6.129852348203251
Zn 10.383963247711234 7.999539957328468 8.952114797834799
Zn 14.526023439274535 10.16734004532029 9.484565909106468
Zn 12.61732115416453 10.771229601132411 7.790713606353516
Zn 14.760952779119942 8.917009298928877 11.908810940084873
Zn 11.689495909757849 13.132541948942084 7.911985541307695
Zn 14.034000789606338 11.451063914484905 11.791364018173375
Zn 12.392551669563598 8.510230337662266 13.20401718201895
Zn 10.378668430448437 8.190666664884828 11.580093547834846
Zn 7.580190408425152 11.216572136883762 7.787514983080407
Zn 8.163650381953726 9.188858345253985 9.57585746818966
Zn 13.80149509073371 12.638212422906806 9.42878982297506
Zn 14.322244885381632 10.06171640610384 14.164964903330338
Zn 11.988992389816842 9.950621038950118 10.480830558181864
Zn 10.133481490776486 10.807998628314548 8.790220077647588
Zn 11.388979493398631 12.499310187724372 10.619169133599407
Zn 9.409106463115014 10.852337874430239 11.423441822233176
Zn 13.173352139738414 15.011029415371402 9.891589668655428
Zn 8.030541092809683 8.574751364152934 12.162903675561115
Zn 13.396233175052888 13.911725765837925 12.228036480077293
Zn 11.547440915377802 11.084028424975948 12.778789744157804
Zn 6.3923545585231 10.241406747465998 11.294630456634572
Zn 9.886708790264613 9.450565045837367 14.035796571836245
Zn 13.336213993211983 12.391761122004173 14.406299982630122
Zn 7.393318111677092 12.235884214479512 10.12927924726317
Zn 12.064689749093613 10.015067885330629 15.388622759525184
Zn 9.31807337623716 13.37647543506407 8.967483481455059
Zn 10.884674195826548 15.382786534885604 8.859887259457118
Zn 9.121975006508563 13.572922045192783 11.693259383799177
Zn 11.152053891076646 15.211578986232551 11.42043647675386
Zn 6.816085729785759 12.470563310892626 12.658428503305439
Zn 7.423011736018991 10.295115681903635 13.861954098451967
Zn 11.130374067835247 13.64640255609409 13.480789177795824
Zn 9.082091901334142 12.207814314122485 14.041323759775207
Zn 11.010985724082017 12.258414971471018 15.842814185985208
