32
Energy = -21.20804097 eV
Zn 10.355422173512878 11.46764149363292 6.318036005006004
Zn 10.198147609381284 13.651691707765044 7.554803105509222
Zn 8.031358294533788 12.270161607497146 7.162626665544729
Zn 12.249679906581882 12.014570580582946 8.142503908371658
Zn 8.783450893580623 9.71802978898101 7.4112270437396655
Zn 11.403359497244333 9.490968647563284 7.558390485313649
Zn 11.054880792770218 13.576597833751652 9.978437207387953
Zn 8.485815400116563 13.427489403245575 9.49152599466569
Zn 9.88373208400231 11.12850013973167 9.382508592731158
Zn 12.63174590296567 7.439996328934754 8.515610117337008
Zn 7.080425991519893 10.972308102219952 9.1564851211912
Zn 13.232443280768026 12.237188180738139 10.570163790819251
Zn 13.289475722155887 9.917537714512898 9.295688658666252
Zn 7.532073539391198 8.411175364555021 9.243793118880973
Zn 9.906877014234006 7.57604767821083 8.494019211810139
Zn 7.311703037449652 12.231947683456585 11.417322257966692
Zn 9.490108852252733 13.570976505852363 12.01417886538956
Zn 12.2468345881552 13.949284168121569 12.267738774889411
Zn 11.22984962904165 6.008106711542158 10.08655277486905
Zn 10.835181816895615 9.11044141973126 10.464693059165507
Zn 8.17062309698115 9.799686989203655 11.341449632020087
Zn 14.051188237261465 10.068802176571456 11.761174144326798
Zn 13.12816327313996 7.680634817475923 11.043631486740146
Zn 8.896656469487299 7.146696176744206 11.007522304900647
Zn 10.815705641382726 11.250086597848677 11.683045426575088
Zn 8.657171032581617 11.434272055497837 13.466028213723673
Zn 12.908264894554588 11.689457248360947 13.424413908274593
Zn 10.801022220569175 13.10590086848412 14.194099104851325
Zn 10.97928524673254 6.896174377778033 12.406024100109208
Zn 9.360174624007039 8.761461384568477 13.336548848705464
Zn 12.011451322662616 9.13370969211321 12.991416649334598
Zn 10.783511850063723 10.643833788812982 14.608868630863363
