39
Energy = -25.53895734 eV
Zn 12.360384092143189 14.60058056814862 10.037658453552
Zn 10.934670508507228 12.928967489013495 13.710827460504213
Zn 14.801301117905151 14.270624209063698 10.933477236472688
Zn 10.664697850067576 14.859528387268194 11.911680980498492
Zn 13.240384110947325 12.223177741328001 14.585040633830733
Zn 13.231521588349736 12.118410861684406 11.733433793885613
Zn 14.126147535182435 13.679035103371229 8.521325132086133
Zn 7.51219727309258 13.691573278311319 10.156730614615574
Zn 8.744340830669419 11.383389252290385 13.81029738311464
Zn 9.403103366406594 12.705398225128288 11.675882544355145
Zn 15.09707853108327 11.57056758182674 9.619621074740863
Zn 11.4514965953309 10.278108280035918 12.135420684515191
Zn 6.985659100526626 9.862694234349483 12.449500521552158
Zn 13.56687625869534 9.611219109551033 13.980207354641722
Zn 6.76742900507396 12.36614545777027 12.245949178596065
Zn 11.668757940782566 8.001062624892823 14.030955673421099
Zn 11.171938658055907 10.489106033870698 14.80090694747129
Zn 9.841727411211865 14.53946539433528 9.448498552579945
Zn 9.292188950842974 8.902830185199267 13.637112257984707
Zn 7.879368711378388 7.5507958828012995 11.91691608000471
Zn 12.947069838150039 14.58509305872884 12.92204471587864
Zn 15.507430769819551 11.246522365029149 13.890887215958916
Zn 10.513619903438409 7.568176717403522 11.695282820958964
Zn 9.227866901040798 10.265288802407154 10.852233356593633
Zn 6.68621596688798 11.295949744357268 9.848647219235572
Zn 13.070124061435239 8.10666549868547 11.765222718242299
Zn 11.37852360514663 11.803745108142497 10.095443924196283
Zn 6.797400397564008 8.78904069419135 9.96085481314077
Zn 15.161839714411801 13.73829458620209 13.524931629584149
Zn 11.437357961228647 13.29430877715107 7.838807456415532
Zn 9.040673443588389 12.158542125989758 8.686069633377961
Zn 14.968609346536196 9.920416289147465 11.706325816919906
Zn 8.945764687971787 7.407238802465156 9.592615091129394
Zn 10.864934615880097 10.665735963732109 7.521230776128127
Zn 13.255318495611723 11.412989897712892 7.8216865763152885
Zn 11.12085786194486 8.785224748757518 9.409453209932671
Zn 16.317149226323096 12.219540881243892 11.694503887737019
Zn 8.61481174712374 9.582059656228543 8.232975494093282
Zn 13.452892091800923 9.57221645434023 9.649071157894507
