39
Energy = -25.08684203 eV
Zn 14.465646035504331 11.432980889000884 9.05432536066982
Zn 13.605449790740584 9.068409327160847 8.5860126903398
Zn 12.011156233746194 10.972490750321265 7.970112946650311
Zn 14.880954012869825 13.94186346989042 9.464221373768178
Zn 8.714279399063965 9.303263364910435 7.998816564819228
Zn 14.729659165940223 9.600428949250045 10.9243167805019
Zn 11.058900773440381 8.658484391046715 8.947299066438388
Zn 15.073413446959755 12.112354090462052 11.54243679518934
Zn 12.991957775069762 7.60764463819046 10.539265619434753
Zn 15.062409774920953 10.468263275182279 13.570757763286403
Zn 12.976594726605125 13.370935425878193 7.992836041486753
Zn 13.376226804446395 8.679417578054926 12.879667419106356
Zn 7.646111252830616 11.768899902458076 7.877553391903376
Zn 12.268116491502875 10.826557795899014 10.66560223318417
Zn 9.671266908081067 10.537919492169038 10.240647208899793
Zn 9.872350880556755 11.312189831844659 6.719218152135142
Zn 10.713577638820793 12.861884835348421 9.222334897361835
Zn 15.695961857549054 14.595387400151264 11.765458267173281
Zn 10.900306798437832 8.601632833120284 11.563618982172866
Zn 9.21665760769035 9.945759246884752 15.525275249519467
Zn 12.633473760886414 13.478940879391331 10.99153904588035
Zn 12.747366525206466 11.816220526526104 13.01550973825018
Zn 15.073913047341343 12.988374763155445 14.077971278741078
Zn 13.475683616004865 9.513761128048806 15.454535593992203
Zn 6.847515655063256 10.15297081675548 9.738081667856928
Zn 14.306779855926832 15.44486291989305 13.589482316489764
Zn 11.26182457985004 9.652498940696526 13.902350971038041
Zn 10.316808861537918 11.894782329116042 12.270343233072733
Zn 8.22921721467981 12.999136206427488 10.052687590892878
Zn 13.642265535350987 11.890736324897198 16.046793184567928
Zn 8.837077617755448 9.477487482526676 12.88730262501244
Zn 10.027491249895384 14.439834340107474 11.255832679035825
Zn 12.632147317699538 13.891560685330981 14.840268505839028
Zn 7.407703491221538 11.295575622386478 11.904106740951066
Zn 11.905135952778643 15.30445370980613 12.76393865244835
Zn 11.008522532246175 11.925902133811357 15.189139616167932
Zn 10.049627501188857 14.061038074636263 13.947893210424763
Zn 7.866321021686457 13.752191300315388 12.458205922409233
Zn 8.461370567280564 12.014147607325441 14.225483901265811
