31
Energy = -19.02285854 eV
Zn 13.115916009187528 12.920872016856883 8.594627845557191
Zn 7.959813228196389 13.080274264840595 9.412723249194807
Zn 12.881665749492807 13.596164746788629 12.903803829523902
Zn 9.678895293398162 6.941177659726768 9.975344512444034
Zn 11.510213289176463 11.63223454328478 7.102734796497786
Zn 10.168405410572147 9.507320086072054 10.540786995024733
Zn 8.422772424531349 7.786071757938818 6.430604887687739
Zn 12.293596685263436 7.671703450431234 9.338141941536591
Zn 9.267474876367052 7.04265647208929 12.539905090899616
Zn 13.43657059546926 11.913932045847138 10.981113617897796
Zn 7.3762263492181255 7.870829263108789 10.876741323236482
Zn 10.76631975671925 6.458882509554524 7.651960636849935
Zn 10.408302745770229 13.638517472969319 8.412243283054726
Zn 9.573099429437871 11.254910702002938 12.850419447483127
Zn 7.9592315697663745 9.19774019306753 12.932590157534987
Zn 11.960611142398777 14.238968386796868 10.532796376492822
Zn 10.643343748972676 9.0489586117829 7.670254114880513
Zn 12.980717934440035 9.224714008395068 11.440868293467103
Zn 10.822640557260728 8.979452789070525 13.267740541841535
Zn 9.426420977182222 14.844270503543136 10.5054476747893
Zn 8.12676084773426 9.012995389369314 8.758407011846995
Zn 11.699825699763599 7.024468357489806 11.750864352297365
Zn 7.699497591145215 10.775599548419391 10.784753184101135
Zn 10.722264255015348 11.901655418679672 10.613472067962794
Zn 7.067682996769783 6.524196388652653 8.624950005684894
Zn 12.490891776892951 10.301648977902818 9.163154066597357
Zn 8.613264383192114 5.307089574261733 7.0503734639753
Zn 7.971195648204674 13.163666781878476 11.957141553674724
Zn 9.380120379933034 11.224038963051692 8.48411121047954
Zn 10.375880127200125 13.761506432771265 12.683207681018189
Zn 12.164204283278274 11.117308445305198 13.132542548415913
