34
Energy = -21.51903282 eV
Zn 8.066745744703313 10.986959429682663 7.473057138076878
Zn 8.433247848844138 8.946608254943664 9.060243708591399
Zn 11.987632079885067 9.08902020020089 14.201825028512774
Zn 11.842952292959053 12.232191754766468 10.786995188981393
Zn 10.978431486603403 7.505333144667426 9.278148547312945
Zn 7.848979713240555 9.664805949694259 11.884353190093963
Zn 14.611353450653027 11.271468770022294 11.666491296775426
Zn 9.262424144612634 7.719968107909247 11.125737408232942
Zn 9.544500080647406 8.546260627566829 13.553472162463732
Zn 11.63463565702957 7.6117373377781385 12.03922104858343
Zn 11.974943069430948 15.024190667699767 11.07020386838165
Zn 10.172198224462404 14.731092643804036 9.287759150304467
Zn 13.913302562277638 13.700164794596612 12.067588947650057
Zn 9.677401065359652 13.66957672964443 11.615155005756346
Zn 11.639349190882363 13.68412905014183 13.333865235921706
Zn 12.418583204270416 13.843756642421278 8.563736963301197
Zn 14.405311017792274 12.692653799858952 9.614299440308155
Zn 13.559558638172952 7.243980869077321 10.102702697195872
Zn 12.791052305291025 11.37373484800929 13.437820985467072
Zn 13.781580186257367 8.943787209898945 12.202876250387583
Zn 9.346785713467723 12.643688871203366 14.027939800380459
Zn 8.205432991516247 10.403973545466114 14.638192183148092
Zn 8.184026770821175 13.101365010369477 9.394961100059135
Zn 6.77574025901346 10.991190111103402 9.694857664006452
Zn 10.285519052711113 12.411509728571414 7.818669956791657
Zn 10.512100669919038 9.793527132603812 7.7295804826265675
Zn 7.723087899767049 12.119807577745016 11.959641860229207
Zn 12.836779815293363 8.556908460849629 7.98525985166953
Zn 10.696792512462888 10.962119078728922 15.421158421044302
Zn 12.58731161657997 11.235233802601485 8.333125077165384
Zn 10.42505793905545 10.769806183791232 12.449406056538258
Zn 9.682669041319127 11.032079353049367 10.09909214928142
Zn 14.403289149148028 9.766278996411689 9.596428766374432
Zn 11.827727765540907 9.768210952619647 10.51977389594105
