31
Energy = -19.64277153 eV
Zn 13.023355264435164 9.389708328493084 7.833260951987481
Zn 12.025072881212163 7.095441294926259 8.642044084449772
Zn 10.531743037088688 8.816550385961854 7.159053586408783
Zn 9.575634283020944 6.482453322759912 7.987570472177941
Zn 11.410529380828216 11.25897774312222 7.231560326754941
Zn 11.627978663021455 10.920770476005822 9.917038663401849
Zn 8.858799942585062 10.949725588463203 7.228585641890522
Zn 13.319925778542714 8.81910409287422 10.232401291090444
Zn 12.381835290718579 6.580114081087346 11.133744908501436
Zn 8.169294517057809 8.642876355821906 8.233293920235013
Zn 6.443888345329076 10.61882241245747 8.077537360687176
Zn 10.324483609764833 5.475918064220372 10.150706996011465
Zn 10.407940878945041 8.696649110864438 10.067445483184894
Zn 12.357791441802283 13.274947831015378 8.64385368264526
Zn 10.041326371841183 13.37251219696357 7.675985371390646
Zn 8.238356243395952 6.9795913659528335 10.284039485878033
Zn 10.137682917286902 7.100705557005556 12.279498439769418
Zn 12.255014635166729 8.693157836023948 12.627163157432783
Zn 9.074402862179385 10.766962737156456 10.089644903258408
Zn 6.693896484841535 9.169260438043082 10.33627930491129
Zn 13.374271355112603 13.16585091757162 10.87968398656633
Zn 13.559778502812833 10.78653493873269 11.83599367356163
Zn 10.262142778514082 13.26227908040993 10.441448710856296
Zn 5.936277712386526 11.667206701717431 10.317403693872567
Zn 7.858761121680862 12.803603059792911 8.802396705662364
Zn 8.049327164006042 8.454553640683763 12.413142270321611
Zn 10.13010224125501 10.074551733398796 12.642056669503646
Zn 7.491256381736372 10.901776123013427 12.392282298051102
Zn 11.83511338003236 12.398931917306491 12.79120532863821
Zn 9.399169149798412 12.538620058214825 13.018109592101242
Zn 7.708989502255383 13.22659938703291 11.291036884775282
