33
Energy = -18.61661724 eV
Zn 12.042238232362324 8.4942578843275 7.888231927120238
Zn 12.954434281236116 11.668484567436831 15.846037745221972
Zn 9.037614501123196 12.711468246729021 12.56555009295279
Zn 10.412572142728468 8.522726575362777 11.329292289955175
Zn 15.493475017165489 11.06664994646305 12.455315330443025
Zn 15.375407435462812 11.952700088725575 9.841735080323696
Zn 9.177735464776738 10.836060286627959 10.87146961299144
Zn 10.113712501134293 7.397247395514079 9.061532050400293
Zn 15.142340410820575 13.623999007174223 11.951072469424425
Zn 12.753135067336475 9.788217151494775 11.30561738413701
Zn 12.781253853010863 12.478838010269833 9.276992430574964
Zn 10.55688117405434 13.141389991118741 10.495487043041651
Zn 9.154658129731772 13.871862636927707 14.986996059163658
Zn 13.692885309153535 10.113884787819575 8.802050481776982
Zn 8.799221061972265 17.214024237902787 12.416386089470627
Zn 14.653878297944907 14.41199294335357 9.62248921084276
Zn 13.516859865843898 10.085826907532272 13.949877693785973
Zn 11.060261420774358 10.590567501220933 9.218600905082974
Zn 8.149543233230087 16.16349482826288 14.639551090884241
Zn 10.454576143285474 16.010784177225982 10.81233667267662
Zn 10.38805479375742 14.807271487541792 12.96294440563881
Zn 12.474827364355122 7.064072318594496 11.809820051323733
Zn 12.563319742110481 12.356657347351456 12.07559360582516
Zn 9.310665847477654 11.309998318336442 14.757735976584526
Zn 12.197689540034455 14.985326944576782 9.432629941914827
Zn 15.484171331431078 9.492328014096794 10.474484625502386
Zn 12.064644517629162 13.742653894337973 14.491583591206343
Zn 10.969269820686376 10.501636194798955 13.036249627462015
Zn 14.498132975113467 12.746604242244455 14.174403195923722
Zn 12.93002834607494 15.010426129409582 12.075472535133404
Zn 10.67538403375191 12.399134864844436 16.565863156397945
Zn 8.028525241478825 8.750347417953265 9.815177008683808
Zn 14.65762016774042 8.254082919212085 12.556437882921486
