34
Energy = -21.33094943 eV
Zn 13.503459861602938 14.166601702904813 12.187675828757353
Zn 13.27376891994044 10.348678262481014 9.595526295842314
Zn 9.404777890121524 10.470600858952196 13.840599221057586
Zn 13.06168381020906 11.54930468310844 12.086128713618992
Zn 8.558716885643108 12.414143000655804 11.702693688404239
Zn 11.649620921584805 8.302719248928835 9.487051240015575
Zn 9.185282209223839 14.509342556446132 9.672228164058703
Zn 11.44255309699442 15.191241243694835 10.707284966170427
Zn 14.88727304640834 12.4032481018861 9.743697138814246
Zn 12.46564744568595 12.65573897459206 8.550032692147173
Zn 9.866918819479046 12.72024663523616 8.08526858587309
Zn 14.622239844393036 12.130249342406996 14.496077888564766
Zn 11.073678769411748 10.450272445156585 8.235814882454669
Zn 16.409896224029037 10.661941303320567 13.401092452639533
Zn 6.138426553160583 11.189967371449526 10.380088636134133
Zn 13.296132042586478 8.5832991117155 11.578938273897938
Zn 11.202819771036902 7.0789814851661985 11.714909690814707
Zn 9.040060146483246 10.740413291178974 9.757444857994424
Zn 9.236367383604271 8.213092887086727 10.375842152674375
Zn 12.62199388930316 13.530348812664142 14.644167094803334
Zn 14.073027330109564 9.628211448680077 13.772146991637868
Zn 10.303573652904564 12.812569971477913 13.617711564144383
Zn 15.425479048855994 10.109880257482686 11.125201676536348
Zn 15.693699350200689 12.762662454767137 12.146675743736028
Zn 7.236916165352214 12.931620439962206 8.90781583016833
Zn 11.104211234497463 12.583444891228234 10.882650294680216
Zn 9.265133171447285 8.08676959604495 12.93326485985527
Zn 11.902980906649717 10.990513760177441 14.587345122302477
Zn 10.974877020541548 10.163523562389225 11.58463080755799
Zn 13.646997780632823 14.606446451018428 9.636638756510047
Zn 11.313020068661189 15.282452347058015 13.376040017370867
Zn 9.156744745455937 14.846764150189227 12.19104137250828
Zn 7.7513566404487575 9.856198088703398 11.896534642941468
Zn 11.694433250515663 8.539890551654784 13.764799375907337
