32
Energy = -21.14207292 eV
Zn 5.740950933776245 10.627868848444711 8.1107339757282
Zn 11.103392554132476 12.230440801462827 12.68070797043135
Zn 8.91000541804439 6.92910915313292 7.088341005994081
Zn 7.3787826161006445 8.782954752072477 7.589690131834585
Zn 11.111602591033378 6.509523016821181 10.542347387895692
Zn 11.422010332928364 8.170156243279008 12.47990314750509
Zn 9.28145112707281 10.208072201591609 13.255957490132198
Zn 13.221773986533423 12.7736471265632 11.268544563448826
Zn 9.004177087889998 8.183916750480181 11.487354254984794
Zn 9.838314191527227 9.348363646463435 6.297774048530785
Zn 12.337748740156243 9.374624721850402 7.430404935322284
Zn 8.773126160285795 13.015342045401184 9.034425443346281
Zn 12.638307376230344 6.9355941653565365 8.313552769740648
Zn 7.08817515278862 10.013154434638272 12.082971787837863
Zn 10.141619913792809 8.526733880090243 8.937812711256829
Zn 12.7303780713641 8.625847154899322 10.141232539769645
Zn 11.65693260009119 10.149498070200877 14.115929244681928
Zn 11.320145051929615 7.224188518915736 6.217086066646724
Zn 8.786033516499277 12.237358996695871 11.57221148620034
Zn 6.839422895474889 7.87157158360728 10.079013483115027
Zn 11.027662277989357 13.096395530298274 10.073992839586863
Zn 10.574215583723818 11.260144091856246 8.07476263471439
Zn 13.094885027253477 10.3397096253271 11.981670321039088
Zn 8.652807787065868 6.131094035969246 9.6764636233877
Zn 10.612214143977463 5.445117194955924 8.193492890434507
Zn 6.551797127615706 12.01629346124195 10.326817783496972
Zn 8.40109603560813 10.252278279612698 9.53900481726624
Zn 8.197132188643357 11.234797819587767 6.865029387943327
Zn 5.1633736534820045 9.786609905783218 10.422002782126649
Zn 6.563585547863546 13.003577952771328 7.84249147997713
Zn 10.62628340633386 10.299212833542567 10.726097669721778
Zn 12.932862000227534 11.119068254521723 9.274444423337165
