35
Energy = -20.22507277 eV
Zn 8.532996659095797 10.496510435661095 12.172808228790435
Zn 8.79637745213155 13.282438284844105 11.424910455969671
Zn 14.848776004812635 12.493971870961786 10.574587958715892
Zn 14.11075104199266 16.420460841666475 12.303042190738799
Zn 13.994643558587928 13.12672928634806 13.072504435650217
Zn 14.990965923018445 9.000812619002012 13.252773988364325
Zn 10.009955263441219 11.406875956897782 10.10567078482189
Zn 16.17451445636737 16.2976530442963 10.581276852265283
Zn 12.663908650262314 10.744932568971036 13.368606319214663
Zn 16.474070917612124 13.996936669919405 12.282380399590597
Zn 6.106872119212577 13.847107583976422 11.685633145272766
Zn 13.032676053963295 8.758150546500731 11.710705321892016
Zn 12.684436758569106 11.018293125276253 10.391028280393455
Zn 14.112443910876403 14.70983860416132 15.212746409549117
Zn 10.224309549994025 11.550935783993868 14.09635279477166
Zn 16.932234886279712 15.133996246004093 14.991156597358811
Zn 11.766013223959945 10.880661272721435 15.99181236271646
Zn 10.60306219078232 9.25274601324664 11.44409502661714
Zn 14.019045760977475 12.109814653466518 15.929572751140043
Zn 10.331630338464159 16.416037646576235 14.622812360634768
Zn 16.33062936277691 12.794370391838749 14.835584097681771
Zn 9.625062332252751 14.134554365320652 13.768536791088371
Zn 11.585418049001868 12.79263032371825 11.96993112874751
Zn 7.669271463731225 12.43791529849817 13.628808686137655
Zn 15.069833149089332 9.941218047159332 10.743312874477967
Zn 12.912934954724351 14.68036865853216 10.513262715224217
Zn 16.92924559926797 16.540017738030716 12.900357189403518
Zn 11.665409577760762 15.440954084771564 12.582994885359808
Zn 11.928747244026646 13.407919057768119 14.885089108380912
Zn 12.754770640002851 16.8895785696101 14.594877781494294
Zn 15.063844248507193 14.580966778243502 9.221760961551754
Zn 15.94482497915009 10.364637259282004 15.089221862452158
Zn 15.210802247051502 17.03165719445206 14.720122372624063
Zn 16.101366113136827 11.424674109272912 12.589661084785003
Zn 13.623963485130606 9.281103314616418 15.4534473518921
