36
Energy = -23.29330211 eV
Zn 8.794631188102151 5.992088792528045 12.060813863117827
Zn 7.738784125416377 8.317352433684327 11.101050007415552
Zn 8.241026154034332 7.9930871863564175 13.616019514109835
Zn 10.081282659690217 7.225505392690583 10.306976796723399
Zn 10.80038083762461 7.511679127244785 12.891954966517547
Zn 9.014582894024933 9.16722775939846 8.950709355053293
Zn 7.379703038509771 10.804254305182694 10.329245217898228
Zn 7.5096760105678015 10.325814740499432 12.898105850236993
Zn 11.469820137311935 8.093766171804987 8.412792238524501
Zn 9.90484708061215 9.93365756880274 11.501493577330656
Zn 10.07109586385155 9.706985247222681 14.177617564565898
Zn 12.260278344916445 8.659858161863276 10.942927152213715
Zn 10.438179288147976 10.084281795553746 6.932582268111721
Zn 12.905241815550447 9.124235710755844 6.621405943168405
Zn 8.557530191428581 11.60160082913609 8.29963833534115
Zn 7.33529623735463 12.77663438454909 11.952123513738307
Zn 12.639073686461526 9.223668594207624 13.480584093931709
Zn 7.5092322643696665 14.78824591999133 10.48103427433282
Zn 13.813640205670689 9.476432009900847 9.004249109260407
Zn 11.145582351315173 10.836222458115508 9.494581035898614
Zn 9.076372698731621 14.073332363666767 8.656637207925316
Zn 14.3997462571958 11.0082357758732 13.948469411914516
Zn 12.708107869265179 11.535374093106132 7.374862667457225
Zn 11.817637959937358 11.597132894785775 14.4096056613039
Zn 9.49591005347462 12.069634480888388 13.32159759052648
Zn 10.411214166295016 12.659674574563226 6.89747576617318
Zn 14.539279870252324 9.73085296383308 11.589202588342697
Zn 12.065356906794515 11.353553163987696 11.8270111230338
Zn 9.978430004093038 12.930810987921902 10.90527977096302
Zn 13.74987509095437 11.960984402802342 9.704288505632807
Zn 11.69631195582891 13.511347930179557 8.978789888992718
Zn 13.45850222873554 13.458433030058428 13.79049415233155
Zn 11.005145971106487 14.173962258452597 13.137869505429494
Zn 14.886763928879212 12.30209534747498 11.888033210958422
Zn 12.767406886288775 13.927502014655436 11.23649598759039
Zn 14.179558915318895 15.94687846125874 12.754521758734192
