38
Energy = -24.99179885 eV
Zn 15.857297845060572 10.998512398190062 9.19755769623541
Zn 15.382430097988912 13.519037025707632 9.07137264919751
Zn 16.3450493813985 12.72802763102338 11.308313263837292
Zn 15.438400508937717 10.31406896536613 11.612812687059462
Zn 13.866163917325894 11.819920003232811 7.8105225821815365
Zn 13.793764890313627 9.374247045067296 9.564792430042784
Zn 14.34390078744317 14.323962689272793 11.324060944220312
Zn 13.32516900768169 11.767704967818489 10.67454324824687
Zn 12.787074476278157 13.852528981960749 9.077313880097508
Zn 12.416530577942186 9.805764089810568 7.313678968244445
Zn 13.987221042524707 8.227928482657443 11.898415044156877
Zn 14.041066286764806 9.76824851578842 13.933856985479482
Zn 11.240835287419808 9.936008813729572 9.810592083686272
Zn 11.160801136846958 12.077450380372571 8.084501684334695
Zn 14.801671023726492 12.259496217683587 13.246135129665193
Zn 11.722783509264307 7.691851612826033 10.905180913698866
Zn 11.854169870371273 15.146445323223608 11.227386985411623
Zn 11.90993801475137 8.071314258191087 13.439618064847265
Zn 10.60780448971866 15.116393660090294 8.959351452579956
Zn 11.88280616507476 10.579248688909324 12.393478133173414
Zn 12.443763377201215 13.358665322276346 13.046178185004628
Zn 13.022533727779246 11.851236202756969 15.083959482437377
Zn 8.887637363256117 13.292540536210666 8.794655287518875
Zn 10.899258935807405 12.5715606917088 10.79784749789391
Zn 11.75248768498357 9.735658535730577 15.375506334175801
Zn 8.938440657980252 10.766367170136782 9.176373734042897
Zn 8.965042675688183 14.49326200420422 11.067726955402252
Zn 9.367762844186142 8.466863086448786 11.295858020880223
Zn 10.121452541552966 14.358671020660251 13.322961352438208
Zn 9.661211802612138 9.059794509522488 14.009669620516076
Zn 9.403888852993973 11.034601244751427 12.111619656490872
Zn 10.48425726669583 11.902276699147679 14.36469323594987
Zn 7.463017367295394 12.401488414082719 10.774763986718058
Zn 7.036046298429371 9.80505639871681 10.675386535747784
Zn 7.942609372629912 13.102408557574421 13.37282692487793
Zn 7.922435523781819 10.8360240933378 14.609981708668224
Zn 7.359473689416798 8.829223932140126 12.945540713759895
Zn 6.247659201049999 11.268172638113723 12.712465740077063
