32
Energy = -20.81542632 eV
Zn 10.651775575582471 14.083789135179616 9.235051128205221
Zn 9.250438528458437 14.132852099354857 11.37114068662949
Zn 8.373914306718353 12.846304094371439 9.245477249198007
Zn 10.375215699583288 12.262816996655834 7.424620622725704
Zn 7.928807245141532 11.482935311791259 7.039581331345421
Zn 12.541669459003092 14.0641389956914 11.000669443977724
Zn 12.272471891184432 12.015338659568073 9.284879852451063
Zn 9.821223773192179 9.845738374950022 6.336037620790719
Zn 10.322907801034361 11.705240080769368 11.26778464513692
Zn 7.447126285963207 12.217989457297081 11.59913330455378
Zn 12.067189921018711 10.150339328541898 7.471614822330451
Zn 11.337127294557309 13.867799407415598 13.138379854881673
Zn 6.969061336551306 10.682830181558515 9.438823498531244
Zn 7.6858542134709955 8.960468043828195 7.328152490457155
Zn 13.050060963587953 11.562836465897412 11.803700725576707
Zn 8.922249520725845 13.582217335595907 13.822032036518447
Zn 9.658973898778392 10.411724483633291 9.27162347422682
Zn 7.54296628018582 8.139651825914319 9.645102092147416
Zn 8.238304853435663 9.695975268170116 11.618686540078476
Zn 8.733463197018422 11.103530109832507 13.684806443595253
Zn 11.309713949243555 11.339017612491759 13.742090941290707
Zn 13.82243172653121 10.022761267215973 9.486130446894459
Zn 10.008632187293202 7.99069993996445 8.438383673700189
Zn 14.882336702261453 9.64186510686864 11.76090358033834
Zn 12.580341910754315 7.952723511292802 8.655102216318362
Zn 11.34043677161968 9.426399932609003 10.77078150078547
Zn 9.295301007301052 7.354713252620623 11.3304302240754
Zn 10.084655654197936 8.939673343400974 13.31883693282497
Zn 12.678566265556908 9.24476786820182 13.118719362284885
Zn 11.328986143350493 6.397837017858965 10.201194916523095
Zn 13.496123885066185 7.608799101078406 11.084833016782104
Zn 11.582416408852849 6.927972517830462 12.694752905651152
