35
Energy = -23.79594878 eV
Zn 10.671575167588529 10.747331319653183 7.727173875339833
Zn 8.12056857615989 10.431924503832771 12.6556981558271
Zn 10.761007214388542 10.729222919487936 12.316948155612115
Zn 12.33760646636369 8.581222433071355 12.58303435246057
Zn 10.521728098176444 7.456583809288081 11.113283030482684
Zn 6.632110568820272 8.066783362215252 9.30914882708909
Zn 9.757344213698248 8.462714224042845 13.44987868151726
Zn 12.803709326740067 12.237452741415424 8.23916424956855
Zn 8.377973643501782 14.225904414625939 9.194045467369413
Zn 12.291394120816621 14.074855628340636 10.109837539507481
Zn 14.859836786026738 11.038757453778803 9.070558815412864
Zn 10.922115236601918 8.17058618564952 8.295491586109836
Zn 8.332066994339005 11.844171066744432 8.353630447599862
Zn 7.030847810641667 10.399350222189454 10.186907851873642
Zn 10.484571420480828 12.188046063389596 10.222398310003788
Zn 12.104900723026411 10.220483557345533 10.190376667486516
Zn 12.863108553253886 7.708524520790667 10.072730840718789
Zn 8.871692509058223 6.977469080295943 9.130576567899327
Zn 9.58839687592811 9.801675587906423 10.231087895477485
Zn 13.249553178257568 10.952947399116772 13.412493037985664
Zn 11.838413313306338 13.158687025668684 12.607618670170218
Zn 15.061184061515872 8.552632254206667 9.148931682219873
Zn 13.697326827358397 12.169114781909032 11.104386990111625
Zn 8.022898130286185 12.561714345917135 11.17792814071647
Zn 10.463220151377545 15.595646185984451 9.272077221571454
Zn 9.334789450889765 12.742869054706526 13.477107923058735
Zn 9.335938916276078 10.515463955155292 15.005609900237195
Zn 11.363067770276876 12.085298753242677 14.982402621041713
Zn 11.703368140553659 9.550371071151105 14.977947937039724
Zn 9.81208671960203 14.522516475468612 11.568616746078835
Zn 7.9456613208980515 8.022716620326324 11.564063593006994
Zn 14.492035796017658 9.638840784531746 11.462057810674136
Zn 10.54816620986065 13.42109473382363 7.825298883209844
Zn 8.417405796195672 9.309195494253895 7.861608263583028
Zn 13.061613786566983 9.517115845623888 7.779163137088063
