39
Energy = -26.15427429 eV
Zn 7.410289189668756 10.494060735773976 5.869709001298502
Zn 10.012548773802022 10.123751203919328 6.104376774772854
Zn 8.205805290764193 8.182573516726372 6.450772972607623
Zn 8.09172412174174 12.61316856194921 6.904347674148253
Zn 10.895531953043315 12.45103835711585 7.383830299069334
Zn 12.320554789877816 10.120343468332333 7.387830965229049
Zn 6.70641171529588 9.377773491435129 8.155467992703187
Zn 10.575422887381876 8.072373916861084 7.67813817287109
Zn 13.450819923178983 12.521807196926321 7.516927377612047
Zn 9.240136517451539 10.489917272368729 8.625800378125696
Zn 8.294860457259615 7.32830005895161 8.92389671758822
Zn 9.058422291773319 13.194847851958166 9.211035511689218
Zn 11.584437335448452 13.807514408734104 9.49718201790594
Zn 6.902748548207552 11.32565442909237 9.704757671235157
Zn 12.55560294291113 8.211682249101573 9.270913012425131
Zn 10.606673716594024 6.078160093372534 9.360212269680929
Zn 11.503702321546257 11.127247756138361 9.754789853686862
Zn 14.033072469481741 10.319672289447524 9.428623277878676
Zn 14.037710103458693 12.831416764568125 9.91923308420954
Zn 8.998788049583876 6.463025555633506 11.246825501190528
Zn 14.173812016318173 11.132873383379234 12.020022722629443
Zn 7.759865564441491 9.010880750990504 11.102499489903291
Zn 9.312865119845068 11.236962822268612 11.138815801955554
Zn 7.172235026550058 13.479875266426895 11.10892209058613
Zn 12.210746345175213 12.925135256514043 11.827667608849804
Zn 11.627061415479549 6.688290105092673 11.601814547012843
Zn 9.775720231992006 13.819789578579323 11.607199663155338
Zn 10.281969774844303 8.89376551331031 10.355347949310087
Zn 11.50475921422716 10.26981087120468 12.152750835164023
Zn 13.541914464504304 8.660522701646649 11.582784940674612
Zn 10.454761586071582 12.332212997311228 13.688828196984046
Zn 9.827647596666687 8.265197914416184 12.925312868444005
Zn 12.97802175132138 11.997226089542158 14.284632775056965
Zn 6.613205690520616 11.155490556268528 12.225425585587404
Zn 7.957397865497784 12.955621342176181 13.461414173521561
Zn 8.65250139784574 10.385472557623839 13.58912563110581
Zn 12.326059410108394 7.790544743823224 13.811776451937087
Zn 11.220791099095157 9.991159215678662 14.773070499452599
Zn 13.934629078588731 9.686067202904704 14.159145690306739
