37
Energy = -24.25726216 eV
Zn 10.250664789152196 6.382375255882193 8.671792629107102
Zn 12.650957177097942 7.71164764265854 9.277193963687571
Zn 10.864377322803167 6.987985530701707 11.105378968935682
Zn 13.87060767703429 7.4316210845488975 13.934188221733956
Zn 13.758716617879118 7.571316948156455 11.489456543779342
Zn 11.447891473854177 8.066041002558716 7.076933296345287
Zn 8.4748673236176 7.744683169516889 10.018061995812705
Zn 12.871689930837714 10.1088442383398 8.219984741245053
Zn 8.908057863194717 8.053412339909027 7.353666026645786
Zn 11.328808571624986 7.2282722433240805 13.766062454272827
Zn 10.604839708149404 9.522076957351686 9.62504869832778
Zn 14.488106616988356 9.886928302323087 12.9134302206071
Zn 11.747083921276689 9.41142864077078 11.949119788289641
Zn 10.366391586161953 10.378603870659532 6.979597728323766
Zn 12.183576458867172 12.434586292012991 7.586609000697125
Zn 9.203009782779214 8.410609415370669 12.497910051769635
Zn 12.69370127521707 9.417125123601798 14.839478628680215
Zn 14.24634836229371 9.883788408039605 10.368292166749411
Zn 12.300610575808234 11.60594883101591 10.459670696593433
Zn 7.213033427709825 9.699518969052749 11.307775603546453
Zn 9.916784384240799 12.772015289960327 6.235581177711781
Zn 12.547476265312826 11.610972425666208 13.415993919438703
Zn 8.041067834371187 10.007000236446508 8.721691488370615
Zn 7.585326391687111 12.29369819916976 7.472542230483517
Zn 9.727175363452275 11.025665097085998 11.497958867792098
Zn 9.893777510848107 12.054084772247403 9.155633473663807
Zn 10.37703285246665 10.125457310353479 14.239849625359579
Zn 11.9632805058979 14.131153749946934 9.890290753739313
Zn 7.787715972918896 10.09750769424697 13.891455188482496
Zn 11.08375616530325 14.754292757283363 7.596844235509347
Zn 7.345190965821776 12.063747688840884 10.127694084379439
Zn 6.709213941257785 11.930120140295296 12.645374992026563
Zn 11.123703770217421 13.31220372748349 12.174831705131714
Zn 8.546960143117108 14.609924079074451 7.342034747233091
Zn 9.177916181652613 12.32050187524047 13.886767631125954
Zn 9.39354261215886 14.650549784187234 9.752015012737802
Zn 8.55236785377519 13.625568835730933 11.824744980890015
