37
Energy = -23.92265798 eV
Zn 15.509285104775286 11.1322028927416 10.67095844274479
Zn 13.557576328361142 12.421073133634204 9.634164012922131
Zn 14.166663563898814 12.704081869765046 12.272058218942101
Zn 14.429591842549632 10.13339126625165 12.719468807403324
Zn 13.24012915910195 12.457400505001132 7.084104668214598
Zn 11.978532795533404 13.703741722987727 11.41208355022719
Zn 11.478005310035787 7.420277078216501 13.905270369281649
Zn 9.765616698510982 8.573052690362672 15.387458114543778
Zn 12.017534089457726 10.786875245730535 10.972644676452326
Zn 11.973525611494077 14.295955128332874 8.645165834396082
Zn 14.171955448759036 9.128743523916862 9.901270547436429
Zn 12.89562876810303 9.984718331319636 7.81202523412089
Zn 12.345250152592278 11.376271124941027 13.55621916784989
Zn 11.219994265619505 13.560660601046372 6.0807142246354635
Zn 11.503716336012342 11.008104634974536 5.836939687096016
Zn 12.72071810431266 8.44773112910406 11.973785077356194
Zn 10.551481296178524 7.201155007798728 11.258292878105282
Zn 11.612521574964612 8.422906160215067 9.314815891210307
Zn 10.290134063159883 11.10118023449847 14.992312486094706
Zn 9.281461861554796 11.819362855439062 6.692254093634868
Zn 10.27148049078062 9.637503638976089 12.665564118751464
Zn 10.014311133514637 12.42720592921086 12.568734430933453
Zn 9.601038808823498 14.43916219561964 7.7118484990261145
Zn 9.070980901725543 6.636051225015077 13.696893114633921
Zn 11.003280810152226 11.780721813476509 8.774602857495656
Zn 10.145442146420056 9.314961182005579 7.320542451352315
Zn 7.932346472932506 10.377290830605554 15.53114318349107
Zn 8.89830570605919 8.052603115661173 9.172666786864287
Zn 9.606547122107619 10.530749293927869 10.371118729990966
Zn 9.65346611203556 13.627509208991526 10.302021870338736
Zn 8.01152394237678 7.199657592484422 11.374090506409452
Zn 7.643287030585933 11.261666528596242 13.08305464327736
Zn 7.850516048399491 12.810445007564862 8.554555303600479
Zn 7.913386937103528 10.260861250869393 8.324850591099635
Zn 7.628419893440772 8.733843907489584 13.520612270250911
Zn 7.308088282135077 12.302087639141284 10.882560846793911
Zn 7.288627260639212 9.628641039361085 10.979172309742632
