32
Energy = -18.95962624 eV
Zn 15.721859355466869 11.73393068529666 17.03003652094733
Zn 11.036093502120293 11.969651764976101 15.570492326384821
Zn 13.550391242556994 14.629487161260194 12.537769145279913
Zn 12.550494504958696 13.769947461704005 16.61251314641329
Zn 13.93187459846706 10.894412605672604 10.495055160141716
Zn 14.168411721569683 12.716137922456145 14.743243125023769
Zn 12.688252426214374 10.025184824716487 14.639270335273684
Zn 15.019805548339162 9.884581239261582 15.51126356098912
Zn 9.23420827535273 10.989854776014443 8.823721819182392
Zn 9.933632227502995 12.711468817791038 13.07599546933536
Zn 9.896586932553134 15.126455667859926 9.640648899733213
Zn 11.481178627667282 14.404996128540338 14.385714777395108
Zn 12.680217152657326 12.692570329353938 8.471377570348137
Zn 14.377949442546218 13.430285962937258 10.234922216117567
Zn 15.631073920936673 12.205742040959572 11.968259899647697
Zn 11.712677319993146 10.297289590831015 9.432136530538955
Zn 10.270390146785628 13.176769872501836 7.971817814056883
Zn 14.749073491585605 10.015014725281993 12.96097305428395
Zn 10.757313775925263 15.034756655018 12.084635936042426
Zn 16.07561533294204 14.166178769804953 13.556377032656153
Zn 16.456560371169783 15.888531192325894 15.368411726407047
Zn 11.505332534689783 12.562573181592644 10.82612665996148
Zn 12.446158415344598 15.003119912112714 10.137776428530925
Zn 13.87988262722658 15.455431027359305 14.989220657732947
Zn 10.246994918051131 10.236161861476686 13.731130012984991
Zn 8.9090709166094 13.053643545336078 10.634793563540258
Zn 9.638296426955366 10.608137764882047 11.334675093580383
Zn 13.186673713988508 11.268243757852948 16.926604773551098
Zn 15.244970620902844 14.155596266237975 16.93323107625468
Zn 12.09918471069734 9.663741577980751 11.933232197641095
Zn 16.50743207017066 11.576711553372471 14.281068625111617
Zn 12.692768782660112 12.125433836308767 12.914723935965892
