35
Energy = -21.307876 eV
Zn 15.306584986400619 11.847457125730434 10.874515893755888
Zn 12.718030747559139 10.916325579881928 11.110464133565712
Zn 5.366151972032627 12.238023324312397 12.709813482090622
Zn 10.99760583692096 8.389104115772284 9.840986955853467
Zn 14.937636606756973 9.54207366008991 9.69852909812217
Zn 10.867526811811587 14.30514137244672 14.160960574874982
Zn 13.369318599213553 13.931559153816996 14.79877622975229
Zn 12.885236330623961 15.648032268604728 12.971548508380263
Zn 9.567242615613107 10.47659952202621 13.704394206390411
Zn 11.650793311400886 12.008543662560674 13.105386782164183
Zn 6.052400924902358 12.977997616521877 15.136075359839685
Zn 12.037841040078924 13.456527170055372 9.15762860061392
Zn 14.818479642215962 15.796453311252044 10.82184426336273
Zn 9.3886060998555 10.08138360147101 10.903153576668217
Zn 12.4863254881211 16.897798047253694 10.666765313715613
Zn 14.794644109438194 13.71375967813365 9.19357067870289
Zn 10.711208123885589 11.886183533970316 15.659239565777018
Zn 13.693968649824262 11.496415454814471 8.501581270909087
Zn 8.949431366853597 14.091386177355806 12.434715498689421
Zn 13.340208546986883 8.248774229339576 11.175450866704352
Zn 8.597494189520797 12.740585097600523 14.643555626278651
Zn 13.129008604085083 11.510410774876776 15.680025368395684
Zn 13.248448263544743 13.471100056742378 11.546095853546626
Zn 16.15005832091587 9.718039957427232 14.568229961248603
Zn 11.15034660310123 10.914569985908983 8.941996184382788
Zn 15.396560624721841 10.943805085980724 16.617800292933836
Zn 11.246333112522194 8.997052870182783 12.395384452131342
Zn 13.249146260580327 9.699711538674864 13.784227775117484
Zn 10.305068617690416 12.47840161559862 10.864270864636863
Zn 14.446001312780577 11.993259492891765 13.323138939220526
Zn 15.38626247624478 9.575155985224459 12.203154801010449
Zn 12.893247215393945 8.980621223395662 8.331655883361156
Zn 7.870944879988454 11.733063822398119 12.212854848245167
Zn 10.994067135898824 14.93439102737955 11.248904937190353
Zn 13.380536507395686 15.784835849032993 8.55850508203011
