36
Energy = -22.00137747 eV
Zn 9.040079001430358 10.169599439938924 8.959148411379223
Zn 14.403427513407305 11.110559779707813 9.057954537437348
Zn 10.345712888953768 16.606669425562377 13.585688536279608
Zn 15.997141423297784 12.654560934771965 10.529557400710058
Zn 7.560361269139352 11.642372738650725 10.541319758727957
Zn 10.575595123680532 12.299741994853864 14.527623805512984
Zn 15.129140395181441 7.911863582405888 10.081666234860093
Zn 14.503184899371234 14.33872009486042 11.802774385697274
Zn 9.398567890163312 9.718320955670443 14.043172823802127
Zn 14.667100368938208 11.80069242603544 12.588627912422155
Zn 15.960930314280052 10.15999357192144 10.928120619919268
Zn 8.122646138073726 13.903451399640769 11.566571357438818
Zn 10.688566436795462 14.671572892106642 11.590854256116453
Zn 8.616045873149893 9.475002744984973 11.495867936036507
Zn 12.775404507912187 15.74481597124835 10.386626573072226
Zn 10.54118456849837 8.40969104884319 10.134096570324957
Zn 12.679980394947897 15.789037844045591 12.912408090086236
Zn 11.858732658566856 10.32156361013207 9.098222269437924
Zn 12.81333533819199 12.298801212240438 7.475511271911129
Zn 11.255486926326748 10.187137620867944 15.957558686633732
Zn 10.934936039747981 7.837593031962587 14.76831874489377
Zn 11.668862172059917 8.383791787127869 12.455753066112777
Zn 11.303012955646166 14.799545207640866 15.098787533370496
Zn 12.758059029369306 7.2155303149187455 10.171720605352467
Zn 8.355419752506283 11.814011782603977 13.09813995613628
Zn 12.505307320744802 12.519768525896012 10.906777072891924
Zn 9.075852562674669 14.369738101088945 13.854205147817323
Zn 13.328459725920878 9.959793095218243 11.32805684370178
Zn 12.275222917403491 7.722676179431185 16.999508224334978
Zn 14.135419942663074 13.810382116221001 9.20435512994506
Zn 13.030405318754012 13.331257855914323 13.835527027387585
Zn 11.482169768102358 14.188268786442935 8.831176963842806
Zn 12.64703523744244 10.679692917959509 13.799794551373926
Zn 10.778871398971924 10.971650033364131 12.007495722049514
Zn 9.954839827645376 12.621524535949717 10.187648423135018
Zn 10.335374584637638 12.062478924368037 7.691236034445405
