34
Energy = -19.08912887 eV
Zn 10.836732435521009 17.286237137765177 12.19642654269411
Zn 11.332503591455678 10.979983283203094 9.230076952357193
Zn 13.51655763439941 12.727111753786902 14.174657247405195
Zn 14.12413444012938 15.881170014169602 11.906248509247433
Zn 14.64278992970105 13.362336085662784 11.88645808908928
Zn 13.528085965909119 15.046391283891413 15.788979301459852
Zn 14.47350876551152 11.207491206699245 16.813855893763648
Zn 11.90878547097132 11.352544161424907 16.590896212274735
Zn 15.659357206603934 14.683664133035158 13.795279087030448
Zn 13.215229376762586 7.111726155467348 10.607862751392851
Zn 10.847005967271366 7.823950725844129 11.461495775778362
Zn 12.930562800864205 8.515749955848495 12.759516491883236
Zn 10.873897129914587 11.462536904101897 14.273159449732068
Zn 13.307843612211023 9.994793700922507 14.806782161673926
Zn 12.360242669449859 18.28554985520537 13.851381496449823
Zn 12.567757441640818 5.937904192508437 8.408288492065894
Zn 9.689320560619336 12.825393610378313 7.831946906425594
Zn 11.441990091750592 13.653005321868728 9.663299807819673
Zn 11.80402867447066 12.845168272775048 12.13362700977794
Zn 9.363628587358429 13.461549064895387 13.715189592845354
Zn 12.073094390731177 16.195538099717478 10.282266918322875
Zn 13.203002317616349 13.326959456678505 17.613887585991197
Zn 13.887279686441437 14.527319847957438 9.688064500328558
Zn 11.437487524817808 8.277100751134794 8.75114385547629
Zn 10.653933159014652 10.4924283809647 11.974941607439833
Zn 9.450793257597976 9.336689524480871 10.025077888088763
Zn 11.222295820548045 13.749157571088285 15.664860357469301
Zn 13.680159696538693 12.05651858484651 9.77735141604332
Zn 12.13005422130957 15.178119147818228 13.576745585298324
Zn 15.520449330855616 13.305716516655696 15.872690767612314
Zn 13.44071000418683 9.578770777932421 10.052988611816906
Zn 13.758132022817312 10.917941908173416 12.25237606804792
Zn 14.391759245511608 16.904939515131467 14.246298536438246
Zn 10.17389365720634 14.834291856174763 11.693267653294958
