31
Energy = -19.74468996 eV
Zn 12.064485068196216 13.256652206957583 10.67483876942653
Zn 13.841309516843854 11.78238369391634 9.589627117426357
Zn 12.982062570506685 12.637136067623599 13.014642206654951
Zn 9.767700063110478 13.740653735364994 9.671065565488185
Zn 11.454675546919649 12.16529735825947 8.434208141322959
Zn 14.516810056253297 10.825068146940007 11.924347295321429
Zn 10.429572716684884 13.175762946650483 12.561851465772367
Zn 8.949265479801781 11.699450264720873 8.004915636397058
Zn 10.723959905441534 10.132143121610978 6.6745166463743715
Zn 13.13831116209188 10.384506889735041 7.488534233757784
Zn 7.245873053098862 13.12532776991347 9.332955818219684
Zn 11.534066727239674 10.498967432981027 11.612941780336328
Zn 13.488936531368356 9.26703307245033 9.983433658679061
Zn 8.1381244791124 13.87251644376398 11.687058933571995
Zn 10.757734904024058 11.078525972512512 14.208801251366374
Zn 10.766000629438592 9.695057029844097 9.427995660163909
Zn 10.166147078283728 7.63040863532425 6.557864191454512
Zn 12.31498478258914 8.002208773904252 7.883961987340437
Zn 9.29336647029625 11.240899286608734 10.816006958481934
Zn 13.238740948698792 10.30154869328266 14.084988101717192
Zn 6.289826766061186 12.156795293739465 11.521924147136367
Zn 8.361988202076699 11.779574261323182 13.294758699424985
Zn 12.980741531026709 8.345052909800705 12.450322001384983
Zn 10.559970979995942 7.653050996805556 11.867213721350915
Zn 8.523600773267113 9.06762824582785 7.956977186455656
Zn 12.382996769500396 6.932245908104227 10.279354961769192
Zn 7.0497830187739545 10.527933158332695 9.558844685718187
Zn 10.09910194309214 7.063584642938598 9.117756280980547
Zn 9.248649458412382 9.295601846360997 13.179169685559307
Zn 8.472981283848192 8.475736730140005 10.62713212000822
Zn 6.901370999942177 9.832777227155773 12.171752565337496
