41
Energy = -28.54194698 eV
Zn 12.03086736808209 7.549028054886958 13.990733666230794
Zn 13.154896635102526 8.702718414406618 12.00667538709302
Zn 10.97914586170825 7.369333224850236 11.557803625541357
Zn 12.189854507316033 8.751538348282912 9.518610908238523
Zn 9.747991843937765 8.088795459100567 9.343810753620037
Zn 14.490803750697236 10.012854997575827 10.243793269418326
Zn 13.895900949965705 8.985692245387144 14.987928192775213
Zn 10.330090693609899 10.174728883482544 7.9531824624124425
Zn 12.241724784322678 10.814727450130064 13.468414013331216
Zn 12.788025309733774 11.027481508173299 8.468462835297021
Zn 9.834463869607088 8.841554009247938 13.749984452539671
Zn 10.964742991327695 10.268278815208706 11.302594442330381
Zn 10.974849058099863 12.326689262831717 6.773434443459964
Zn 8.615327785810695 8.516605594210995 11.543568142225237
Zn 14.953671319156701 12.340500049958331 8.970830320429538
Zn 15.10564819194818 10.217312328703047 12.992487711441392
Zn 16.22237538517071 11.65678118855752 11.16456367221229
Zn 13.171327906987306 13.354025309577409 7.390373262793847
Zn 10.97914251477586 12.488634508080446 9.936958845255985
Zn 8.619097654707257 10.498309515112995 9.886152004799486
Zn 8.657581301761732 10.925077358761028 12.64361763618991
Zn 8.850237442570458 12.497062508128426 8.173836749568425
Zn 14.435272375964537 11.428440469943837 15.277506440849274
Zn 9.781373602109204 11.203167710303441 15.052189079029928
Zn 13.149420066254784 11.992501606611004 11.299254392300275
Zn 13.192372609180294 14.479598097802977 9.669386669976141
Zn 11.057974879346352 14.69867959443715 8.107955560449525
Zn 11.412028062577399 9.234820491947085 15.827989361605956
Zn 12.043133891653756 11.643341076089383 16.32025364621466
Zn 8.363664967448974 12.895339227805044 11.056176252785175
Zn 15.327051040238567 13.990517392441104 10.966241095720655
Zn 8.54929666106468 13.27969091928558 13.864406599778468
Zn 10.833186102844541 12.722348343209998 12.494674690903938
Zn 15.06157604569331 12.89905734119812 13.257687130666115
Zn 8.888071982674035 14.73435025585414 9.385048525319702
Zn 10.93358964087696 15.209211837219346 10.922758814591544
Zn 10.473887055522205 13.63378955882684 15.57971041023953
Zn 13.083076310129492 14.527623196363947 12.279738940791276
Zn 12.77995235659089 13.35755023529477 14.527114135398712
Zn 10.803475113572055 15.187487642807042 13.596334825253853
Zn 8.619738470665917 15.196611833321358 12.169278598213287
