45
Energy = -31.37388897 eV
Zn 9.182656614624877 7.298574143641965 11.651463505646934
Zn 10.729281887682145 7.931772882648756 9.540302905120598
Zn 10.633341718329858 7.956612697204578 13.783220249099504
Zn 11.625046676999185 6.754274584608591 11.654599930909233
Zn 8.458543243747231 9.193703503817034 10.122895121405918
Zn 9.657481081280977 9.532281081342276 7.863155938250738
Zn 12.288197055277097 9.625426424938402 8.197136773246164
Zn 10.904490159283103 11.346544366949136 6.651712233448613
Zn 8.208674609711357 9.296913501304227 12.838853743390079
Zn 8.812742977339484 11.888989501409847 8.223197102123336
Zn 11.136438545467474 11.500032766581947 9.708160300251325
Zn 8.637223775846637 11.598111585893276 10.884103193987503
Zn 12.424363906024572 8.829549303823905 15.48921507517835
Zn 13.082679808795396 12.115719062432122 7.732104505517279
Zn 11.481845729594662 13.788505256498405 10.755441882804924
Zn 13.079398746650716 8.571941363367998 10.535107444394132
Zn 12.431780988288496 10.512215271059443 13.439080567349219
Zn 8.064979934850447 11.696033729634673 13.582758646912184
Zn 10.802550552138745 9.831305745493902 11.620090428827167
Zn 8.957469524537967 14.06964844011966 9.498420823284821
Zn 10.777961920263582 13.700559452498187 7.73614649894879
Zn 9.567705363921917 15.959192333729195 11.264661201685486
Zn 13.30923640965664 7.836156590028444 13.164863034410347
Zn 14.776777949587355 13.095616300114518 9.421872329824966
Zn 13.106380864054369 11.965574433206946 11.413191276104541
Zn 10.641765129674953 12.223298760458357 12.701190349419445
Zn 14.393791961498888 10.532332882768447 9.410876378332775
Zn 11.103257238641183 15.982866146727938 9.184697804566376
Zn 9.912103141307353 12.571881737254643 15.445521142671394
Zn 14.022195142593343 15.401965822147618 10.536270474934721
Zn 8.34790025580273 14.17866645079378 14.406456295426791
Zn 9.68491083894532 10.043989281511884 14.865034365988643
Zn 14.91746746236976 9.293849877518332 14.528035933061778
Zn 16.15384100693895 11.524028458317881 11.04912093967361
Zn 8.320083746950047 13.869458423240593 11.964777734722515
Zn 13.069656798017979 14.634695561943715 8.328115003329392
Zn 11.482944244823017 10.981881445379729 16.545170739457486
Zn 10.75388249540313 14.764505903267366 13.52593012537467
Zn 11.995438364973053 16.35900741028668 11.707880966944685
Zn 15.491457165500233 13.766137097723961 11.840140737554197
Zn 13.29764445864195 14.405757785705328 12.93985279543377
Zn 14.989896710516799 9.532557709226515 11.99226870575157
Zn 14.885584484534734 11.849048715484106 13.542045118659129
Zn 13.909302336405192 11.095643902656846 15.874567274959691
Zn 12.431186030623737 12.99046039670306 14.873320794412683
