48
Energy = -34.57639126 eV
Zn 13.630443712861968 9.880352460118935 6.0012421477487825
Zn 10.953864977900393 12.790759466126234 6.953919270863085
Zn 11.208105062242643 10.287109787453323 6.771255975913652
Zn 13.399698470756114 12.283162286759346 6.8815766114923065
Zn 12.677843231294977 8.59102743385646 8.245718590388126
Zn 11.763088086798069 7.308560111137921 10.359367750329984
Zn 9.143352310839381 11.36569525993344 8.075276955476493
Zn 14.597845138883889 10.347091197224726 8.426853568693474
Zn 12.186726097636706 11.242760809784812 9.070531322235846
Zn 12.272580378935835 14.237801556087906 8.572855152209511
Zn 9.49855188486205 14.204815955493615 8.39751718127709
Zn 9.149038107906467 7.676069151309472 10.63116696661195
Zn 14.116194815808333 8.658694561819937 10.402753828479756
Zn 14.986818660328193 9.535520246504518 12.679258392186055
Zn 8.054810708586057 9.865904551961053 9.878699481034078
Zn 8.094845621562506 8.889976988716702 12.645815324732421
Zn 14.497137130754819 12.926756749034807 9.192238017547007
Zn 11.690702159877688 9.80585381559547 11.090346040507237
Zn 10.143300378010501 8.895697948126415 8.678065452402633
Zn 10.57960393433999 12.654596243270959 10.386391916791315
Zn 9.644235761321786 10.976559313600017 12.08625909044954
Zn 15.59845770616007 10.886180402206227 10.697963673781327
Zn 7.779775259763658 12.4694286179565 9.914057976011986
Zn 10.48893660258994 7.832345717683988 12.705153410902634
Zn 7.903069718076381 11.178211973202819 14.229252597387001
Zn 11.744753785596208 7.797001291094915 14.867554790639206
Zn 13.026044976231754 12.054038360886729 11.460611394710888
Zn 11.941286032620177 10.603352988730192 13.49306243029117
Zn 15.687131011759124 13.242091969389293 11.46991920839547
Zn 13.086769183584185 7.790707356148955 12.653825026039472
Zn 8.431005726907449 14.852938792701822 10.522579241004376
Zn 14.599901314660332 11.934090732215084 13.6393514159805
Zn 7.7283047821049395 13.287927979373594 12.396719812199006
Zn 6.826291212728666 10.971968220889934 11.821768537321375
Zn 11.10078072253451 13.016664499405636 12.906411706432989
Zn 9.594955185378097 9.35150803214144 14.767975832783614
Zn 13.470709865569136 14.835170786829137 10.714216770636341
Zn 10.93450235622596 15.44782331920844 10.517935704807831
Zn 13.002841074961092 13.768486675034083 14.987932090426776
Zn 13.874503962592781 9.248419910585092 14.884567187022403
Zn 14.396906489543136 14.569821290481737 13.072894664078747
Zn 11.576131311166261 9.79185078261183 16.32628459227096
Zn 8.676032358033778 13.535462114913045 14.718409332963985
Zn 12.077286633198982 15.584759595031233 12.845862875578588
Zn 9.493577057873495 15.247821441795507 12.774348635885433
Zn 13.377497021330612 11.514936140838742 15.939740268094216
Zn 10.6320285809155 12.025097109776421 15.456164434996877
Zn 10.755458788228923 14.86995393375613 15.01699254108675
