46
Energy = -32.40935077 eV
Zn 10.574866609667012 12.20027617531556 5.85379432079684
Zn 10.994057205570435 9.833587581693546 6.787358242638558
Zn 8.973992260807686 13.763455452738395 7.024349066836563
Zn 8.651503285255458 11.1491845424408 7.317861701593666
Zn 13.635160457721588 9.203259841838527 7.333298284260363
Zn 12.982336643411836 11.543897602911134 6.544446435653659
Zn 11.512644232581449 14.361873180459648 6.9829513248087585
Zn 9.228393992728972 8.788300898359523 8.398428783970582
Zn 11.672948283160789 7.728296899833602 8.254869884450509
Zn 9.444889455121706 14.856099728888134 9.258809829218018
Zn 7.649146339125424 12.8161941570161 9.091542345289243
Zn 14.735714643756111 10.885918956656564 9.003387440168174
Zn 12.056923175128286 10.44014124834369 9.243390103751654
Zn 13.875057217537076 8.360078461004507 9.78456867046044
Zn 7.058217047623404 10.203046722715778 9.161114297480276
Zn 9.824684451104002 6.535825433094949 9.720283315799078
Zn 10.70321445474077 12.445931063383965 8.635914776114058
Zn 13.469584863315148 13.114055357165567 8.51535671580268
Zn 12.411692214647543 6.3500429086081995 10.396265804727856
Zn 12.166327272784661 15.110248696865524 9.365530992900961
Zn 7.404387957338517 7.682982019172894 9.943969737263632
Zn 11.086521632736238 8.729176203058014 10.77101963082845
Zn 9.503254032364016 10.912285738207052 10.19669431806541
Zn 5.901346247382694 9.314743675705387 11.305993395832713
Zn 10.781561881086661 15.131025699705257 11.438415228868738
Zn 14.638625952763528 12.672413495674448 10.838131689187865
Zn 13.190788906184606 14.486960746195544 11.908510777615263
Zn 8.371059173372686 6.1746352278990395 11.780887801261455
Zn 8.961431217890185 13.380718085206192 11.419240168493912
Zn 7.1588507474442995 11.538162175229674 11.464258785930795
Zn 8.805669054665069 9.10747773403853 11.750452292057018
Zn 11.762835539018536 12.403135356948525 10.903842146661644
Zn 10.840098172783902 6.439838681617305 12.435727925695762
Zn 10.88146013634842 10.580172200181966 12.461354897419541
Zn 6.379039796673861 7.399082633233896 12.791861037011108
Zn 8.773344008402404 11.891160902948545 13.59848037982725
Zn 13.139312342601524 7.807807894628007 12.420100662464783
Zn 10.964423785262921 13.382367740014175 13.322083794988085
Zn 13.509393089068082 10.278545100470238 11.500496776957716
Zn 13.37495952240609 12.282706263179307 13.269710901471006
Zn 7.091942592281516 9.830625549017052 13.611920658499164
Zn 8.758721133619996 7.570633625239738 13.876993309096271
Zn 11.357299224320936 11.370631984304955 14.942757503177157
Zn 11.243005661017682 8.28114908283429 14.260565271357029
Zn 9.27629575623811 9.83230414058902 15.072968406764383
Zn 13.22186565508164 9.828390459509167 14.038887490624354
