48
Energy = -34.09297926 eV
Zn 12.267218689705455 16.324813749767983 10.040605194244113
Zn 11.010699038337272 14.839832111324148 8.382445419841764
Zn 7.840993438435712 14.194763692299878 11.879128508373967
Zn 9.87471164483247 15.55889302582402 10.875779312018746
Zn 9.849949834695796 12.835269670471652 7.150516351013841
Zn 9.741107854104461 14.808830995963303 13.483545642071617
Zn 7.012331088107448 12.543467375981267 10.073215251853519
Zn 13.610266303474809 14.833576129431565 8.582614951171442
Zn 14.351940550492218 14.961716838023065 11.034074973310513
Zn 12.0427473698194 15.600270184141824 12.447361728006864
Zn 6.8705707095854995 11.924308036828798 12.544859683255938
Zn 12.360836982669348 12.65027760473804 7.8906368800187465
Zn 12.041163107639363 13.354797694541285 10.821896537489616
Zn 8.270545497728333 12.71729903499844 14.452587623044286
Zn 8.398384923933948 11.183199870711382 8.367414730952564
Zn 9.92289771001511 12.249335499716246 12.170218026952552
Zn 10.106446672852604 13.630572787137703 15.89411142489259
Zn 9.4359212503296 13.279114942124552 9.689210970660818
Zn 13.491012635853297 10.447880784591623 8.370058134360706
Zn 8.361177855402556 10.428328950743836 10.909816460281233
Zn 14.378185994482804 12.648317748562823 9.601314736191346
Zn 10.922327072698206 10.52028955211029 7.366231826016829
Zn 14.339391548824404 14.764298840257162 13.546868467039301
Zn 11.813183626987756 15.433615573604301 15.011513772490547
Zn 11.978530361832975 13.105244161626695 13.477371749081655
Zn 9.498186509528384 8.948767735379812 9.132178043202135
Zn 11.03569178728897 11.142904349211769 9.994557437841914
Zn 13.873791507987447 14.464693710194336 16.04272724549912
Zn 14.8576248402538 12.594029154721596 12.142599740057943
Zn 11.885619704746485 8.354186414265726 8.27331490127843
Zn 8.588502219791698 10.227986830049687 13.509146239748556
Zn 15.333958678267047 10.488801931417019 10.558291853750633
Zn 12.379847776317547 10.919319260082718 12.366849739377054
Zn 10.420728061705212 11.19416267122178 14.972006297403944
Zn 14.445635717791717 12.29032923972032 14.690772646072887
Zn 12.339586541103934 12.428389517877232 16.272873362557014
Zn 9.325156165777408 8.3196907751948 11.923205021936996
Zn 14.387976639914381 8.257190602423481 9.32960921137048
Zn 12.22802417864062 9.034431278159417 10.859093029012614
Zn 10.71111369225053 6.898184808773925 10.266280185905101
Zn 14.939314842403073 10.21352878564506 13.3066220715843
Zn 12.876199737248767 10.2104442304444 15.075503311285813
Zn 10.598029791846923 8.743192130975128 14.36705750506929
Zn 12.94698503054948 6.131654724678157 9.018010134523191
Zn 15.167910972930366 8.264288163182577 11.759816670633414
Zn 13.13333919681147 8.345189794819058 13.418522136791712
Zn 11.14800383071438 6.792038186744644 12.873518966649213
Zn 13.249450775477627 6.5615008114837385 11.447265856001264
