41
Energy = -26.868297 eV
Zn 12.836626793497283 10.76039974706416 6.840094088445936
Zn 8.076693920985143 9.321819515274226 6.848173189585521
Zn 10.535919179631417 9.692655674052887 6.314194780521757
Zn 8.057558968368186 11.88708222823333 7.306303162898033
Zn 10.743475068413677 12.11277862348538 7.741319386459536
Zn 12.578577376325944 8.271627542458239 7.269483553232531
Zn 14.352481414511463 9.65387748434753 8.845551056008722
Zn 9.043378042140992 13.982906450843567 8.43193536868939
Zn 6.288382182253784 10.27608323380722 8.344472012737802
Zn 10.22812610374463 8.070784133584645 8.348570163266343
Zn 13.411846232377279 12.122812935310993 9.069590649116996
Zn 7.206236252307253 12.372914821750024 9.777938494209746
Zn 11.637850391111966 13.951123550428584 9.53600699981497
Zn 9.14985100203078 10.271974547702834 9.46725407634116
Zn 11.689163813939007 10.14841176752423 9.307414267575345
Zn 11.84408356283153 5.898542749765403 10.562989913995914
Zn 7.400147441650792 8.04620400821822 9.086472024018763
Zn 13.568320889352844 7.1550245476704895 9.331891933958781
Zn 9.650594368626916 15.433170473927 10.424504136193974
Zn 7.62743012626733 14.42140522373136 11.478653437167218
Zn 13.554858061592048 13.395632021267657 11.294162198261741
Zn 13.389623386020771 9.034727224114967 11.375012383817811
Zn 14.949718941811042 11.06628307463205 10.923573551559835
Zn 9.426060792396212 10.465580308874328 12.134519911806134
Zn 10.795817835286277 8.612583842517347 11.071858662557384
Zn 9.81321482959377 12.461525954790757 10.645275541775879
Zn 11.93841261245559 11.24851572131865 11.601696980495515
Zn 9.307241831806495 6.531514393620345 10.170398173254792
Zn 7.970702792636884 7.867172474147248 11.85713563455343
Zn 6.856192036060079 10.039973000081254 10.87448973356048
Zn 10.26719076219663 6.513159104696669 12.597726468980447
Zn 11.370175981923767 14.571305565022609 12.124709221969027
Zn 11.979880571414428 8.238843579750617 13.514550674396963
Zn 14.82450758871318 12.210343267344122 13.196294680278672
Zn 7.363542719743517 12.215968052610116 12.620197716628157
Zn 13.563234522151461 10.203203862660745 13.933851334968633
Zn 9.789359332943848 12.945466588108541 13.358433747770222
Zn 10.998168323339142 10.668275228049332 14.177884263466353
Zn 9.423509766456434 8.40277369090871 14.087145175618884
Zn 7.247390091390625 9.804140868844009 13.474517502681596
Zn 12.427965952548282 12.83492478030829 13.817265610208294
