49
Energy = -35.24314668 eV
Zn 6.2223133323266895 9.031790040072316 10.675529609689685
Zn 8.44821783226028 7.865113532183673 9.638642047743183
Zn 7.038998401850616 9.74641884131662 8.46105425643658
Zn 7.978826402213591 8.226584537290535 12.307136827056585
Zn 9.76429069930749 7.628001769571135 13.983645168151709
Zn 6.381568859067269 11.564033603281775 10.210566602880581
Zn 7.389765351629048 10.686163287458662 12.444761004401744
Zn 10.2212085406219 7.394432044686402 11.446295564406423
Zn 8.438721419983342 9.670516290404802 14.577831278005132
Zn 12.137968924722944 7.6529473569389665 13.225123550802982
Zn 10.911577356324608 7.785963720222162 8.928185815278033
Zn 9.259589229597118 10.335884241969064 10.548711309257742
Zn 12.614870418370145 6.860709013560042 10.771945887871878
Zn 9.479399068114402 9.59600699417042 7.7606638591565495
Zn 9.970129224026113 11.274261017389868 15.76004104310378
Zn 8.42795999247987 11.867006458749614 8.276316964668702
Zn 11.29861036914459 9.167784939918187 15.30088276637436
Zn 10.661114699201832 10.356747361859506 12.8781664413781
Zn 9.941202762586492 12.591910609199028 11.744134551043878
Zn 14.325409879691371 8.195728555212794 12.109119161497704
Zn 6.999141151139892 13.24490014445895 12.141978389678727
Zn 8.216271192389598 12.28553326037397 14.232025656545138
Zn 11.97369988842483 9.85409717365647 7.650217535947235
Zn 9.162462778086557 15.215895062915216 10.916929290356531
Zn 10.656501009963444 13.344085639733988 14.461692621524161
Zn 11.251463200026087 11.858335498737945 9.604728581556207
Zn 9.628567191764308 14.101865374099694 8.48898044965097
Zn 12.399175450074871 11.626394957298261 15.149336816979169
Zn 10.653864658173326 11.939847260362486 6.966606623189874
Zn 13.472764593061079 7.950556714797328 8.658052686367158
Zn 11.135106512590022 15.044149226531761 12.618403268755383
Zn 13.525498161449717 9.652573108969294 14.052910777071524
Zn 11.988706337824194 9.628279550856572 10.713666065852268
Zn 7.499031204423391 13.746610333967654 9.74685634633007
Zn 8.702662932378843 14.681654659622529 13.398032509340556
Zn 12.59778604332918 11.8777100237994 11.97325856869467
Zn 11.550436506807497 14.795775613180096 10.064485576985707
Zn 13.098560969875235 13.884747897769163 13.937207990747812
Zn 13.736217797261169 13.388363507764655 9.54001507211588
Zn 15.251880926424965 9.179584506543534 10.012975544589636
Zn 14.762989685560843 11.957941225456278 14.198776808315802
Zn 11.984253573110244 14.087551979052835 7.671719836607067
Zn 13.373365127039438 12.071533835649598 7.282161834385084
Zn 13.496316390917592 14.97863274918207 11.649281839726036
Zn 15.211532228309217 10.573159906228856 12.122523754232068
Zn 14.588958276799762 10.027825985766583 7.740524904035894
Zn 15.049419147474762 13.085725117494789 11.88950792827568
Zn 16.47206225478782 11.732415600735878 7.374619549299889
Zn 15.728512811293937 11.765200633819441 9.77272022791918
