45
Energy = -29.70188671 eV
Zn 14.381248807664875 15.933675025424533 10.74390278995437
Zn 12.472221984636436 15.755655478669118 9.02673791986318
Zn 15.026812980209838 13.623125706578584 11.762651029198414
Zn 14.35104676087142 13.9859294576943 8.933690645066342
Zn 12.05478553390223 16.78400829802337 11.458743623745333
Zn 14.4652648041841 13.448020287103738 14.545899474137732
Zn 13.343955954008022 15.200123835709784 13.080910007047965
Zn 15.27740295075211 11.138486957376665 14.975397972366599
Zn 15.663534485208606 11.131984866508112 12.393792845555591
Zn 15.095353266237614 8.971408043683503 13.684119506205475
Zn 14.942037736148045 11.707327142544848 10.02474670884615
Zn 12.362502209728113 14.048471910183858 7.105039659265753
Zn 12.369573263314711 13.629000530996247 10.902399512188534
Zn 13.011528184860168 11.729826287942101 16.074853590613536
Zn 10.652113115272906 14.919995536537717 12.688593985207921
Zn 13.829439388678725 9.352634810069919 11.532339238403317
Zn 13.905003628722708 9.144524684867266 15.95312285248658
Zn 13.457148860726708 11.79859594646912 7.81471069709215
Zn 13.090351525174354 11.905521165377666 12.64616125788973
Zn 10.258104892417284 15.419938832561272 10.133698272734168
Zn 11.754121584957243 13.414634919994837 14.426516118977533
Zn 11.698700279208152 9.565901090401425 16.960546876032165
Zn 7.793974451801661 11.752576111032406 9.784793420848338
Zn 8.678251716131284 11.860957426204134 7.396148709990712
Zn 8.703164386710615 9.891915083534887 11.490404387309546
Zn 9.80736797154299 10.167481298724795 9.112631225856289
Zn 8.53812121072575 14.109782411708368 8.679928324397329
Zn 8.3693088658628 10.459091457865343 14.076614862003531
Zn 7.3104705164228285 11.86628802957761 12.338466548990025
Zn 9.522097927503772 8.9947718399356 15.77720649784399
Zn 9.996000880066823 8.476437046545573 13.296518199458653
Zn 12.39718389898513 7.4000568640049975 12.618539035383938
Zn 12.46951527144541 10.983140939561585 10.146254165030513
Zn 11.097030258831492 11.271120815856882 6.801105325038906
Zn 10.792165138802934 12.76770741557641 9.22622906539122
Zn 10.43685704740759 11.438668760566976 15.532164815298279
Zn 8.684039848027775 13.759244935796294 11.268546120055435
Zn 11.169001841249917 8.909255756715986 10.94667621188501
Zn 11.593680577814734 7.606838930634619 15.17979706388113
Zn 12.109299696384445 9.295615993823356 8.036789133326856
Zn 10.595197723044995 11.69037287367695 11.835426399953802
Zn 10.02331645932454 13.78314223545745 6.334723496928778
Zn 9.243430554111345 12.942786290827748 13.784930512493524
Zn 12.16214969558264 10.009705746395625 13.848281571221538
Zn 13.95402656722489 6.862155623149182 14.527155026424182
