47
Energy = -33.25245862 eV
Zn 6.431520935263673 12.985415828012721 10.039606964584932
Zn 8.475146657859508 13.468824362220849 8.598734111673041
Zn 7.8010395731477455 14.937522676379672 10.803075222867925
Zn 7.684035840374457 10.903673382922676 9.078886071851159
Zn 7.51182181338144 12.754946788770518 12.429882862041094
Zn 6.273539074295045 10.803112732911055 11.31864479890915
Zn 10.048400079798252 15.584059485466616 9.974218309692521
Zn 12.536752838190633 15.420786782639619 9.822698811295771
Zn 10.057893079686634 12.877663335704497 10.91597181521567
Zn 9.794825159887562 11.307572575400297 7.6635653437615945
Zn 13.403601674222378 13.776434541748213 8.02323250622395
Zn 11.445561869197723 15.094685971496272 12.293184525672585
Zn 9.086208823126874 14.601023554913251 12.997052862244786
Zn 7.499639557064074 8.717672330295377 10.878054855773595
Zn 9.121295360597818 12.25397911410611 14.44895667497047
Zn 14.980339872020329 14.335089057289098 9.955386422050744
Zn 10.987386875968294 13.490867449973969 8.477346242914335
Zn 12.375391690273087 11.531830806532692 7.259257947911165
Zn 13.92034341182779 15.342795928540538 12.024821307509939
Zn 12.90551353838409 12.647310697769703 10.934170433626353
Zn 11.30921193876357 9.224039854322932 7.312206983883781
Zn 7.709945259286512 10.363974871937694 13.466000728047726
Zn 9.356892865505243 8.98560287061854 8.948092119804047
Zn 14.482364629184124 11.602259594193212 8.695178862243543
Zn 11.542397261283037 10.811722272289105 9.756487933417517
Zn 10.821976253989119 14.094469207600481 14.744189857095511
Zn 9.57458504155392 10.400752090377452 11.413794683209437
Zn 13.141447959028323 13.738593959807156 13.959944218245798
Zn 14.346473753196127 10.185651839159881 10.809801379082112
Zn 16.188958617693963 12.178728339591169 10.491288068410963
Zn 8.62866303398596 8.020614853293194 13.134908247991381
Zn 11.399359118515441 11.784404812731923 12.878201308158598
Zn 9.997971081618468 9.831998243470341 14.692666230706777
Zn 9.49298224076496 7.175984009056695 10.828577095965642
Zn 15.255026257132164 13.279006289495092 12.660110209333954
Zn 11.771044133692953 11.759365214721116 15.460975464350378
Zn 14.099158340120745 11.384702476842174 14.216382476856356
Zn 16.182726296071067 10.91344702965118 12.660833397401102
Zn 11.648125206275397 7.769244310530346 9.462214336091414
Zn 13.567816005551993 9.213035243192106 8.511861912441805
Zn 11.918474457768575 9.38755495535639 11.96525652231619
Zn 12.5660855515044 9.387707735043154 14.6893097282397
Zn 10.922873740419984 7.509866229941968 13.960880329494046
Zn 11.681128100958386 6.402776461207878 11.698624640644912
Zn 14.744609042264766 8.993342827241838 13.171022610933479
Zn 13.88466543928864 7.637725367982848 10.911384078291988
Zn 13.34571760560801 7.0243210351104635 13.46582243019179
