43
Energy = -29.17318431 eV
Zn 11.680397292863411 16.375181355792524 12.04566183596778
Zn 10.355711920107291 15.549750893701654 9.981712667741153
Zn 13.43154488922348 14.95697987443783 13.673286382122964
Zn 10.949006307677337 15.691327049552312 14.398531334533505
Zn 13.63696044404465 15.112666294675801 11.018435803911649
Zn 7.859632699809401 14.843297629156645 10.324687499414559
Zn 12.165975068997529 13.851692780751966 9.257235409482192
Zn 9.337168515020906 13.733769735604579 8.440085814581458
Zn 14.873617482879874 13.47927063643469 9.519411474856842
Zn 9.338770800125033 15.101046688587674 12.439951792439704
Zn 13.686160554347728 11.825949208553364 8.011506099474042
Zn 12.009645786719581 13.739913908975245 15.559220827961232
Zn 11.728859620191638 13.48570814693251 12.246875633650145
Zn 7.834997102231388 12.953036839079262 12.180604359516717
Zn 13.239193288009805 12.044799249052632 13.972485053905915
Zn 10.002511601468768 12.539263851151986 10.694459785109428
Zn 14.712973263060078 13.026148255449135 12.06379835334743
Zn 11.14147998593593 11.814552538159177 8.007752897309967
Zn 7.0186810019904415 12.619642407945173 9.601444937923187
Zn 9.717562658050138 13.163636165023098 14.130777360154678
Zn 12.724034320344794 11.674214834540237 10.69583791439645
Zn 8.496683480153576 10.919879838026686 13.640703912609366
Zn 11.094330137712294 11.388075433082765 15.571364127386879
Zn 10.942686678312652 11.072578749732617 12.727771811174135
Zn 15.217329177752587 10.937287565155668 9.841096298768486
Zn 8.608881209642723 11.14386404402934 8.361709822533808
Zn 10.665538343062792 10.185073222854525 10.074100610761104
Zn 8.018140603983007 10.598275806386185 10.951523485836908
Zn 14.700347416521986 10.48960242889661 12.423584722899482
Zn 12.94571134744192 9.461305523482642 8.740976821878604
Zn 10.04437232984459 9.232987688626574 14.914151499043504
Zn 12.639270984010148 9.55193471949753 14.372469712106147
Zn 9.325023973190644 8.76780082109745 12.399341177700927
Zn 10.16013200788042 9.45935381763769 7.258749796460592
Zn 12.37303143120577 9.217655058406457 11.653019426408292
Zn 8.824303793130975 8.341186409871712 9.749427150338681
Zn 14.89994429083609 8.556799247955361 10.711764837807934
Zn 14.592580620301932 7.9774952323792006 13.354763512122796
Zn 11.309132004063251 7.490143506199311 13.54725477153258
Zn 13.08006872059673 7.0591389215518126 9.786543345836522
Zn 10.65936209698989 6.992349498631053 11.052559110108133
Zn 10.979969644788566 7.5101291622035315 8.517374743124345
Zn 13.137793061112973 6.292010857342185 12.189317038339235
