45
Energy = -30.52513529 eV
Zn 9.012942155053109 16.28754443800902 12.524431032264241
Zn 13.515324421918947 12.083466591026895 14.479801416052103
Zn 10.60750012592426 15.459628663640578 14.370788195326735
Zn 14.49150665195386 9.432370627643364 7.729241802944734
Zn 8.581854091573026 14.003078032183566 13.615301548848555
Zn 11.06792788638602 14.532645012368123 11.80080402308476
Zn 13.525216574047034 16.298822072655963 10.970619666862921
Zn 8.789074326887915 11.459328046606007 13.17594466380869
Zn 13.89077061513267 7.711447285469611 14.355653873256676
Zn 10.160944347493942 9.778917543456636 11.345470748680277
Zn 13.657647559023411 13.938349037708592 10.010115959746859
Zn 12.444803674036795 10.002264051577967 12.552827249969527
Zn 13.870109327646409 7.698209729246324 9.761890497643495
Zn 9.766382034141412 13.688957950348835 9.702267920938853
Zn 10.100297741019274 11.21210674515425 8.89664518445462
Zn 12.325019930310228 9.917133011247069 10.019237363059826
Zn 15.193548691877147 9.883186259773632 10.249784623249663
Zn 12.859029988923036 14.553857716345702 15.06396372977384
Zn 11.934465869774474 13.028985787909436 8.282840880319318
Zn 11.662187187405488 15.48927515397105 9.220576340227828
Zn 11.467928428550445 12.079170243250974 11.154753644150867
Zn 11.344115875363688 8.000349488118799 14.278159705238169
Zn 14.920103209248449 10.109274526782258 13.782117057631167
Zn 14.233020151573685 11.759443992584734 11.660769640959701
Zn 8.89895702418471 8.893136411881889 13.550604988645457
Zn 11.16791143076077 7.348359204529266 9.894901451350947
Zn 7.710713308497496 14.374190384424548 11.201820741065706
Zn 14.122871961083442 11.725615553789341 8.885439248216723
Zn 10.218968601257565 8.80194543240574 8.071499475140913
Zn 11.18216127888424 17.249178547569244 11.399288688052781
Zn 10.022954161709894 7.051062487909712 12.183421502542815
Zn 9.274749876257394 16.18698190931847 10.013175533764908
Zn 12.566046698205957 7.218251636055066 12.061936386482401
Zn 13.537941340487636 14.086074815370019 12.579646902407708
Zn 7.72234738014818 7.6738015961440915 11.328371772917112
Zn 8.202770365546883 9.392163257488045 9.529917637801168
Zn 12.167320752414167 10.597567954733819 7.386276617335847
Zn 13.035225480335463 9.747421002086819 15.570131427762613
Zn 10.776398808341488 10.466312158062655 14.530912305467528
Zn 8.178895297939889 11.838929940024983 10.610778708677781
Zn 11.059192223690552 12.803726243186142 13.69292024779639
Zn 14.948852368990442 8.189952817482855 12.089975080935107
Zn 6.99683437859617 9.985132371676272 11.96009519524013
Zn 12.765949386778091 16.531359115319926 13.36590077920381
Zn 12.513609834526696 7.923417977362752 7.581371364600545
