45
Energy = -31.3205689 eV
Zn 14.001416238340854 8.205036466790796 9.860719869198968
Zn 14.63503929498377 10.311873415940585 11.256775564601886
Zn 14.74989007613227 12.442544778899757 8.684299680067296
Zn 16.08952240088249 12.361671387967528 10.90774480473096
Zn 13.373087455014522 10.385731689411623 8.7035675773463
Zn 11.73785750895002 8.369996310753509 8.590945020860397
Zn 13.612469251776993 7.98584700955849 12.416073576265934
Zn 15.852329648439573 12.087648739673426 13.395706088625936
Zn 14.353288831973405 9.933762518233424 13.909709890123755
Zn 11.88212154510488 7.001923504883078 10.694175727137312
Zn 15.725985136432392 14.540767375320003 9.79162871343808
Zn 13.395330178042267 14.819441522899183 8.677887893865401
Zn 13.15158227135002 12.130265854846142 12.664159744427074
Zn 12.050446297293268 10.192997822687303 11.233629144780272
Zn 12.160327871389796 12.606295713626057 8.110067530444942
Zn 15.268221863942612 14.457585565887339 12.36563561369423
Zn 10.71437546229349 10.67417386411292 9.08288044525727
Zn 13.296175345435701 10.082867997601586 16.486777294136303
Zn 15.057453489508806 11.716398607051397 15.74911735118304
Zn 12.39907878708429 8.416396741111965 14.75858183198827
Zn 10.832522693414397 7.943981626966031 12.788261222265204
Zn 9.811899662639048 8.648351897413379 10.502588613441567
Zn 12.406142601950014 12.302594230900961 15.539473729888527
Zn 14.199285821462432 16.227884222009774 10.822110607485973
Zn 10.86999892813017 14.862914825519491 8.218207735255822
Zn 10.773656925740772 10.491648719854755 16.276699215324225
Zn 9.620316861402797 12.939710852932578 9.283034337788699
Zn 9.795716974538307 8.464770469496326 15.023856106242906
Zn 8.594859361152118 9.39068790639686 12.799237778717675
Zn 12.4854753802154 14.17218656411902 11.282709902784408
Zn 11.189666643241736 10.567152732450774 13.562502002747209
Zn 8.707374665698325 10.933106654452562 10.828512681946126
Zn 14.23783382767534 13.90293280917825 14.61956281013832
Zn 10.718520275274672 12.403217875434128 11.811257663846657
Zn 13.43122551863345 16.095488033706165 13.427478576605592
Zn 11.771034304757007 16.548832684661168 9.898739759878673
Zn 11.655002685474853 14.374065312513725 14.216286124474905
Zn 12.586664452007124 17.93243050110259 11.837105215324085
Zn 9.778639910189563 15.12080357541934 10.685729959247793
Zn 8.378764368666358 10.528110278362352 15.223025372007152
Zn 7.873678953194498 12.004532127435327 13.246794407990407
Zn 7.853765108551999 13.4315365632517 11.157555898248576
Zn 10.80756681741492 16.364927954596684 12.68194776753223
Zn 9.93406420989108 12.53814432082879 14.791883142980005
Zn 9.219077286521303 14.374070067863798 13.140972415171523
