45
Energy = -31.44544968 eV
Zn 15.500366076784271 10.122510108692147 13.326912425064302
Zn 13.213385532696352 9.167433167030202 12.839977615686967
Zn 13.544008717051836 10.633586827107486 15.00720020900539
Zn 12.275348070133917 7.5943645933951425 8.170928203342704
Zn 13.08687335228601 7.755539806575707 10.581478318342407
Zn 11.253774663196804 9.405887316218193 14.578746522309972
Zn 15.317090249957367 12.452298623101763 14.139619467417788
Zn 10.624766428096432 6.808115557629434 9.938138397551247
Zn 14.24515347915381 9.115744645887673 8.477827053845411
Zn 11.077052049108051 8.029491431795869 12.237706290135973
Zn 15.542017128503733 12.014704916350743 11.506249442755085
Zn 11.028431358058802 11.170362204701062 12.574185284937723
Zn 12.94676457770273 13.180769626315161 14.58716108021542
Zn 10.035486872390655 8.834685060539623 8.257371574991588
Zn 11.306033168180157 11.663300388931633 15.758421256076323
Zn 14.828809781291469 9.674447505233491 10.852300357622337
Zn 8.958370302068623 6.6402143744605615 11.89123720469277
Zn 8.972022656806084 8.7122942474163 13.668852120566541
Zn 12.119170888506622 10.113976927529418 7.475739566639259
Zn 11.8732313198207 10.126248930320626 10.248665720596541
Zn 14.363489510572292 14.238041408650068 12.59702698161447
Zn 8.124065909337777 7.765041014844904 9.752299331489239
Zn 14.069070872690448 11.659074603645035 9.177083279446272
Zn 9.096886107462433 11.185539330351109 14.641068187197272
Zn 15.126214643411494 14.017511161427501 10.109504866191035
Zn 12.589870951900789 12.604984325427251 11.275006844151045
Zn 9.388432155742002 9.712443209491719 11.06211618000573
Zn 6.463025226162182 9.525152961998613 10.647342487389794
Zn 11.770493545541882 12.483799213127329 8.327933386099128
Zn 10.390161996788192 13.538837014412596 14.218637370704032
Zn 8.645960636637799 12.803056132302322 12.485112676978664
Zn 6.884964370665009 7.893219329803614 12.462620943741156
Zn 7.881173097903028 10.1350299856919 8.598408033056279
Zn 10.04382871108538 11.989636072605505 10.201153977372943
Zn 12.149052577422552 15.277365742089012 13.422830356552723
Zn 13.29303684874506 14.512442010184982 8.598776599317798
Zn 12.80719972041734 15.490774313202419 10.959067314329094
Zn 9.752303733870644 11.20857504460135 7.187461287008433
Zn 10.903660045059246 14.927261233604453 9.363158659691122
Zn 7.386521736943477 10.586929320196777 12.798182472970431
Zn 7.173024496450014 11.983228079368134 10.571130854303844
Zn 10.263196230879457 14.702208129108412 11.812644267169409
Zn 9.639575762535813 13.768163724732096 7.519121639798407
Zn 8.474917351667644 14.139776670292145 9.954268263294576
Zn 7.539296310584828 12.603512931879077 8.106904850602618
