42
Energy = -28.85124981 eV
Zn 11.038408679396712 11.948192589947244 6.112520938552278
Zn 9.428785813278171 10.106072949701513 6.247179811165565
Zn 13.389272790337023 10.584731420490385 6.265078532143011
Zn 8.588936525018605 12.376834290085304 7.200964040895531
Zn 11.599854631648256 8.816907364795778 5.886884995078457
Zn 9.294322417948973 7.759535857753824 7.06536743920357
Zn 11.598921476899134 6.734646599259187 7.478574705601226
Zn 12.92278095145192 12.657890901854405 7.558993366052979
Zn 7.636872367320569 9.781017928011373 7.986148391686953
Zn 10.608056262101456 13.576781640307397 8.32651428203153
Zn 6.643710651675244 11.96554245025103 8.804813090174905
Zn 9.37614237413569 11.31146089168423 9.548451956853896
Zn 13.555055483483049 8.532833498948134 7.8305633124378
Zn 11.442962893537134 10.233938195083601 8.511597091835187
Zn 14.34671450446383 10.855462244279266 8.776232393873496
Zn 9.534345195154094 6.018992441565293 8.931657280800742
Zn 12.357493638809764 7.480878510365306 9.780974335545807
Zn 7.325081174936844 7.471928100793486 8.928915208999296
Zn 8.22893353293263 13.913900244793409 9.419562147093174
Zn 9.791991819364746 8.699255763366239 9.775216768945755
Zn 12.419865715023604 12.42261591522151 10.03735771647732
Zn 7.322872985307235 9.654402735567377 10.624548808147603
Zn 8.077710742338299 6.519644685262458 11.137829033238644
Zn 14.126476426639044 9.1224319989613 10.657322374681398
Zn 9.393184871877567 11.090762098712098 12.078242840963457
Zn 10.366016056674422 13.499188882216613 10.966889485193906
Zn 11.586538662120066 10.142976183826034 11.092963812915691
Zn 6.852829240705074 12.190573076006348 11.317237630521095
Zn 9.671200280703268 8.424655109672367 12.45406150348263
Zn 14.28148590089868 11.574980649492232 11.488651051745421
Zn 10.638771070642491 6.356798500426656 11.208220648136393
Zn 7.093597847953839 7.997475494145953 12.938671533179468
Zn 8.179836022342908 14.258253168522195 12.022832494831034
Zn 12.351715978527883 7.911265354193653 12.341272448859776
Zn 6.432940441905868 10.382213057913901 13.071502406403784
Zn 12.0936072677433 12.092115603406752 13.03460363885086
Zn 10.121104462734765 13.677667770522847 13.603670254822354
Zn 13.692017946572312 9.920917331286331 13.252435578246414
Zn 8.567716093087128 9.637231487090975 14.511304853625047
Zn 7.828705644992462 12.413300957707774 13.89901908467538
Zn 10.151994603860034 11.605998815144646 14.97717038808926
Zn 11.337653657281898 9.57421234518958 14.14446742776791
