45
Energy = -31.23667154 eV
Zn 7.791839399864539 9.502733981022745 13.188214826866027
Zn 8.580740191728363 7.687308243812481 11.564134993379708
Zn 9.31373643846998 10.61422311715007 14.846073321211769
Zn 7.699217597081105 12.184446702958395 12.897457341209222
Zn 7.809555632050885 10.423604145498285 10.83148167297115
Zn 10.193171409447308 8.431585660679838 13.463517968419223
Zn 10.912318747624292 6.4878272134312365 11.834203094296159
Zn 10.944077580345217 11.929653458684312 16.17094636367691
Zn 8.31992752525874 8.455122811249344 9.14626510975332
Zn 9.1723377076041 13.265662067062891 14.680439625791392
Zn 10.000656432665643 14.120993950581363 12.337450231992815
Zn 12.065623834474756 10.00843095993611 14.47589514869
Zn 10.132378876967099 11.346918129296089 12.314763538760321
Zn 8.32950667126953 12.950535476405786 10.482435765317184
Zn 12.682757823946433 8.193791229388733 12.579207979699383
Zn 10.108707988956642 6.752026520988652 9.521536951310914
Zn 10.698276313505778 9.391927978595008 10.83113212676211
Zn 13.158109479696483 12.917866456392893 16.784941062525956
Zn 11.39950732192361 14.431403322840636 15.4415348619029
Zn 11.856058042410357 15.811883308418581 13.380368576587067
Zn 8.663196663418688 10.842189009032506 8.420229008693468
Zn 11.95218204143815 12.591090368150217 13.579341820552646
Zn 13.983344993032244 14.270975291578212 14.72827899423456
Zn 10.87471760985503 11.814188958707232 9.889200516962813
Zn 12.200326237407037 16.159129637369077 10.948777234291244
Zn 12.68290223478741 10.850975091978299 11.691821879666962
Zn 10.722173078333801 8.79748732359337 8.03799597278322
Zn 14.35322261974679 11.211742873458238 15.460395433968284
Zn 10.352375803694525 14.509852316561561 9.79273017093639
Zn 12.547201321230046 7.573541835499392 9.985166411583382
Zn 14.582761610279624 9.658855067182026 13.42524451765341
Zn 14.51966000432225 12.404753459392685 13.009832395785711
Zn 14.331692804856683 15.107886225206709 12.290985632504484
Zn 8.889229932337114 13.26733881480063 7.957095914980239
Zn 14.530407390018464 8.926518191955749 10.81621746729896
Zn 12.571016104178284 13.428930642431949 11.189407856227719
Zn 15.985353772590502 13.440958250828308 11.050337863944547
Zn 11.08591605216286 11.222967247892631 7.2147785183943105
Zn 12.426881761368579 15.583890959930148 8.537555138856355
Zn 12.840691332579652 9.996866542389505 8.928730269773391
Zn 14.56821257180727 14.959215740477859 9.661340155720824
Zn 16.08437577046938 10.759081680793424 11.693539081162742
Zn 11.097593864191701 13.795687317907747 7.051253967661182
Zn 14.610177063245633 11.5669478044184 9.868799671286537
Zn 12.967742228619803 12.924743862606629 8.563475341855446
