40
Energy = -27.02912588 eV
Zn 11.428711711881112 16.82209457657747 10.357884368757022
Zn 8.864932713763942 15.479468979652264 10.582626954971765
Zn 10.469488538724919 16.0853615611796 12.555547402415934
Zn 10.622823711962289 15.114413444397249 8.725540263897852
Zn 7.231066763154888 13.216980171830073 11.071353344498071
Zn 9.145600486335073 13.053408175401836 9.363182401228695
Zn 13.177290799610356 15.246033743896596 9.382905564673088
Zn 9.016678079730966 13.924086107703571 12.78577225877583
Zn 13.052574461513915 15.941351614331506 12.115820037959098
Zn 11.361018964524488 13.663121573292427 11.152285411544986
Zn 11.324823967354712 14.165791473675194 14.04438950956368
Zn 7.0181335999871415 10.79462226713161 11.68944356778485
Zn 11.586566908420522 12.763465770663084 8.371352427197914
Zn 9.84525802418232 11.592069152157501 11.574499856312512
Zn 12.330560092279674 11.943640594405842 12.953928009577465
Zn 14.165035201843187 12.980580291199768 8.767283824748771
Zn 13.927111404829494 14.259969606239817 13.833208124264925
Zn 9.99677833792881 10.673054896169052 9.009634207650418
Zn 9.727777492955942 11.988030432444557 14.275249356768414
Zn 14.044818263421256 13.541403108869103 11.322667671887391
Zn 12.45546113105978 11.317335041597978 10.463072762279621
Zn 12.40360886158941 10.335654725768041 7.8763123014095395
Zn 15.110898909832857 11.960282603440529 13.132810364103944
Zn 11.977480429145839 12.271125414445287 15.704809890538076
Zn 8.769870200760568 9.128639890894044 10.740223711376382
Zn 14.90229234107414 10.760567485707817 7.9146083607138555
Zn 15.226751641431889 11.319891993402038 10.584594518589238
Zn 14.495509134300566 12.703861785826557 15.695142108812934
Zn 11.445782556290467 9.603119970096953 12.17352529012058
Zn 8.63864811586342 9.76480895416726 13.396843027119917
Zn 11.41843192822169 8.611962562630747 9.611853927931834
Zn 14.165952357889978 9.631755322988173 12.303765475060834
Zn 14.036324704330498 9.145170539928785 9.703941579563308
Zn 13.751589039972979 10.436855061642639 14.784581278642444
Zn 11.096888373886483 9.908710821354633 14.882593043531788
Zn 10.247128290896537 7.142714655775744 11.359176523425008
Zn 13.147843780721582 7.313473721999176 11.190697808249963
Zn 12.930148936408628 8.11146804522459 14.25240421909941
Zn 10.10275910695626 7.745779364360352 13.894822449213269
Zn 11.943254205289087 6.182428714284636 13.0294401515791
