48
Energy = -34.26593627 eV
Zn 7.822235558422987 12.6998799530001 8.178243745141089
Zn 10.348876827110962 13.321949137596466 7.664469605293956
Zn 6.783939599254227 10.72970638632236 6.789034124965449
Zn 9.36408324397629 11.123395885012608 6.545966066790202
Zn 12.960637492386837 13.431956830809463 7.699592834881548
Zn 11.861416389557105 11.193975558035191 7.180118400936383
Zn 14.322541986181784 11.329562117759746 8.116745694893906
Zn 13.198970538763884 8.876473387967994 7.321879494403401
Zn 10.60940136791787 8.941458632257891 7.532437429716863
Zn 8.15920162530702 8.672835117296733 7.070636352655744
Zn 6.215072348423818 10.91763685286362 9.254999258541266
Zn 11.706680187206716 6.812492224724015 8.302167034214522
Zn 9.11295106027936 14.076378717911663 9.868225060370095
Zn 11.818650360196315 14.708520256309114 9.511526381464481
Zn 11.127658460871032 12.16013057719597 10.013209635635922
Zn 13.811633332602849 12.966107367031638 10.136544169566541
Zn 9.176786404227643 7.066699755872956 8.99529188993905
Zn 9.120912607722513 10.528563775225317 9.170571478175201
Zn 7.060464843108579 8.549484424296955 9.379039146789184
Zn 15.325655530646744 11.002977957783862 10.632674594076228
Zn 12.60520595898837 10.120586117729852 9.779827798783897
Zn 10.50006256974824 8.8986311173715 10.577876300995875
Zn 15.052657831471485 9.030551830177616 9.048040456616677
Zn 13.459955115801518 7.230250833141721 10.015332837688947
Zn 12.979109121424784 14.546921647400021 11.963706435300454
Zn 9.36800883260617 11.092283284675515 11.61237769693104
Zn 14.908457159788028 8.659256720493318 11.594600817347635
Zn 11.0065174231082 6.233091730797171 10.741170777316105
Zn 8.258526986172257 7.645090117267254 11.41520096556351
Zn 6.852023537028416 9.898172871605171 11.603161707294886
Zn 14.107104499025377 11.857734101111358 12.69477240978431
Zn 11.902366361015588 10.243894918017384 12.239611824977912
Zn 7.118954088940045 12.592218730400097 10.84574691520722
Zn 10.163939408750355 7.187945910219996 12.996620339245437
Zn 10.526249038512125 15.300241368952104 11.594049361506382
Zn 12.602587074716798 7.584608397995899 12.372798863789116
Zn 14.058015631722073 9.275890083448214 13.85175349065745
Zn 8.542658153549624 9.115721116590441 13.557466674732456
Zn 11.09301408957811 12.599490068586924 12.690721380429743
Zn 8.526329910335644 13.928675994172607 12.419113572588422
Zn 13.227274831715642 13.685015374566596 14.328585397869029
Zn 7.45411536914351 11.583825889083018 13.48436630216288
Zn 11.474297771102439 8.784027997974533 14.50694956901525
Zn 12.669227995444793 11.145035495317993 14.75923099892248
Zn 10.865304585132407 14.921548958935132 14.087099527462337
Zn 9.976359141785165 10.858666639427645 14.690502516820377
Zn 8.911414389440417 13.218678458157964 14.778335980318746
Zn 11.227769668218093 12.997035619540046 15.732882990651726
