44
Energy = -30.80142641 eV
Zn 14.15805856387847 10.89288448459436 13.151034043823925
Zn 13.676026797992073 8.928708103019 14.74579696541987
Zn 13.665897419842361 13.408166295313775 13.658464913019806
Zn 13.058042400801268 11.584825875952806 15.496485058564044
Zn 12.201772427823032 15.486936662202073 13.517870128032241
Zn 11.764470248078618 9.422458510718608 16.144749311129104
Zn 11.382498279690918 13.492727681484588 14.86559228941109
Zn 10.234006270413879 11.39089951735098 15.881164944613701
Zn 15.255417452828045 10.139564337617395 10.758507969691914
Zn 14.38466113965348 12.612841354283615 11.25064100061849
Zn 13.589765652053279 15.041984312960219 11.355145800367557
Zn 11.130456417898728 15.722107319219822 11.25027990412771
Zn 14.29638827009186 8.312709848807309 12.427537789951788
Zn 15.58748717379246 11.97085079446357 9.041278217136828
Zn 14.123769424037626 14.118306661298615 9.071920472507669
Zn 12.361225180020275 10.014961342706393 11.208427418452827
Zn 11.48485268721906 8.194322511203495 13.297330133712524
Zn 11.625026300566708 12.937696657262586 11.870894542858704
Zn 9.661613750568755 8.959156536181379 14.858901364363607
Zn 10.99694669921653 10.94418841703853 13.29976398323295
Zn 8.836117485318749 13.167964455925416 14.811121297737577
Zn 9.67411502907607 14.896892456485634 13.254497210321485
Zn 14.376654411363418 7.928961332426452 9.891163552302043
Zn 12.378122411584997 7.117123124167943 11.142104040015228
Zn 11.505124194421628 14.498167312049246 9.084267685249237
Zn 13.721495944321484 12.24724575654264 7.278706379473231
Zn 7.999929630991921 10.846280740412018 14.281737113653568
Zn 7.582991042864942 13.045793265992762 12.655882407393163
Zn 9.328570787768001 13.91937864998396 10.847413975177506
Zn 12.114660848264823 11.876129694221836 9.511194426457491
Zn 14.172454452798261 9.887203210229119 8.324144923991144
Zn 8.605634174046774 8.869725682352744 12.606018191201771
Zn 9.888497064594878 11.126583745882746 10.89318236427024
Zn 12.086403674488105 8.177147736916627 8.717778760712735
Zn 10.193237470734958 8.306627416529793 10.674081710652784
Zn 11.386113511262186 13.12813617571039 6.907258781417962
Zn 9.293934471288487 13.064537067440984 8.441494104821041
Zn 11.926357309200126 10.313078683417398 7.238481475964726
Zn 6.748886210456522 10.638471104997947 12.085730544653691
Zn 7.460938898322933 12.226486534811833 10.238731929267614
Zn 9.785436667660269 9.182134977290211 8.264714104940166
Zn 7.857939678312613 9.342985135431501 10.171849067043349
Zn 9.69552737368105 11.264500116514016 6.543759770115341
Zn 7.840807038818528 10.85600639591846 8.185272341179509
