44
Energy = -29.57195532 eV
Zn 16.92403253879775 11.11956258414439 13.530124256205218
Zn 16.584411027240506 13.668791732273517 13.30026499438247
Zn 17.2802991757285 12.177752862936833 11.334083369391765
Zn 14.815999263743931 12.174900215946407 14.55830666736137
Zn 15.753567813337732 9.75487623978996 11.67891938208001
Zn 15.437691382521523 13.883267231604373 10.758411572211573
Zn 15.103347076741978 9.416635602211286 14.270764649791571
Zn 14.240293845018016 14.637063361431178 13.31024114257146
Zn 14.004689371660138 12.002622007498012 11.97949676536038
Zn 15.627114960894291 11.459158323986832 9.570816247250052
Zn 13.086481615687894 10.500505673295228 15.556058992465914
Zn 14.001494178697781 7.856008655768526 12.11148253930422
Zn 14.131080862617436 9.185082232470643 9.832227614418521
Zn 13.397210082713597 15.348698403495476 10.876497116949794
Zn 12.39947784658813 12.84694401770159 14.22583441542578
Zn 11.233116739449821 8.784009507918944 15.110735711899121
Zn 13.32586236487986 12.943225279318774 9.404063059873701
Zn 11.960892704358715 10.807970637258338 10.479906836136662
Zn 12.829660099662053 9.984318820143564 12.930742205850935
Zn 10.620757513495485 11.269042812532433 15.49523173544211
Zn 11.690407328545916 13.170883250103563 11.66390227387176
Zn 13.92141581624845 10.774056073285205 7.854112140760967
Zn 10.59990193666733 11.049064477229052 12.825733336888288
Zn 10.749765706725526 13.421712223697037 9.181529949187004
Zn 11.219265314106906 7.972885302999463 12.695399127141728
Zn 11.849900234047237 15.480276028056908 13.065746720217962
Zn 11.001015235774442 15.782895213640364 10.536152328331617
Zn 11.653926857242345 11.70776057092204 7.589715264368296
Zn 9.053713761793352 9.021660525285156 13.788402011475414
Zn 9.640491696413333 9.35424416829085 11.021007257790574
Zn 11.869618406595507 9.138570183787571 7.9542192838157515
Zn 9.926548007722118 13.428160233861282 14.033759358577818
Zn 11.790718386921249 8.055078724638776 10.227869522350902
Zn 9.19581947084369 15.113797208968238 12.325383673973871
Zn 8.802686772049334 14.999665403961291 9.667154735726008
Zn 9.680609375653598 10.611224756696277 8.713576954670538
Zn 9.230555062046221 12.394184076768408 11.227663567406013
Zn 7.357768634062484 10.377839396378201 12.451179082463442
Zn 8.20749182889711 11.345779470587273 14.651794352494951
Zn 7.48750653234699 10.391833872840415 9.912801842752932
Zn 7.441132859703799 13.185077879866979 13.099725665371365
Zn 6.750750064696493 14.295960634143299 10.901691717913693
Zn 7.937633456682511 12.73441947075107 8.937679097189273
Zn 5.794049232480375 11.976318213352474 10.996141915058137
