45
Energy = -31.26525524 eV
Zn 15.763900277255255 11.232644903986488 10.036253519233172
Zn 16.09091458273301 8.907103090764535 11.180592173396999
Zn 14.712955754662579 8.187248650209298 13.136207105158723
Zn 14.69896096722289 13.509834183262019 9.306447774726898
Zn 15.571608821840695 10.653434734949164 13.048346156200079
Zn 14.557809437938275 12.65799836720692 11.816816167220892
Zn 13.732682002350812 7.4839944376135135 10.635412849526693
Zn 13.52720555615437 14.971369646440795 11.497971189490784
Zn 14.818300279517196 9.078549113132253 8.967569255689192
Zn 14.032445696652452 12.550680205804053 14.295214318802476
Zn 12.37828576516138 14.42613652391131 13.701527488726057
Zn 13.980757878153174 11.132158283601898 7.776267167573112
Zn 12.652992092223476 15.094978903972056 9.177022027749627
Zn 13.269479193463782 10.110532419563226 14.22689215389784
Zn 12.36730809463017 12.31553089186631 9.938121032821526
Zn 13.287568752556536 10.203989638071258 11.210384709009396
Zn 12.177678445412914 8.026254330481525 12.638251410453531
Zn 11.628426636749392 12.228081467888284 15.179355891077662
Zn 11.794297305321075 11.93729920294963 12.43036874636219
Zn 13.103337610838985 13.393415718655993 7.201757087044143
Zn 10.897661268695268 14.289524231736017 11.245979379845904
Zn 12.22725027456286 9.410940386384944 8.780759756713866
Zn 11.146558112033059 11.573254697608775 7.574464723871839
Zn 10.822310863155415 14.25413864407819 7.671742225852115
Zn 9.036499391923957 14.58348227524993 9.41483121405643
Zn 10.739953762386303 9.664072778478129 11.09376164121273
Zn 11.301050418182914 7.066497265708084 10.138778987977666
Zn 10.815751298357627 9.78644082286807 14.26577980227013
Zn 9.867066814053596 11.865337891740005 9.995841088881075
Zn 9.909423444109743 13.653599999945193 13.71927342442215
Zn 9.658110679038877 7.718088600374051 13.112148408977376
Zn 9.778532010133217 8.675328093629687 8.683232889198177
Zn 8.654310186323386 10.676546583240253 7.75014170021075
Zn 8.566912339722977 13.131098084333924 7.38310863755018
Zn 9.278884175307219 11.222844758522552 12.451205606818114
Zn 8.204779534098929 13.738692464441632 11.578605276919028
Zn 9.118878191215057 11.607603104443854 15.278575691433325
Zn 7.831854118731386 9.866185904755417 10.047416494610626
Zn 8.416988703582188 9.137996154742137 14.845693960896881
Zn 8.82768721234586 7.486106149071549 10.745946712442635
Zn 7.151419508718268 12.414771579235095 9.414072924639216
Zn 7.394114931942236 13.086932650279548 13.880170266582335
Zn 7.438276365122859 8.976252083377037 12.388565808114498
Zn 6.631797286441306 11.546725978814196 11.740833774743251
Zn 6.659869300516735 10.73618390951517 14.22089868752973
