42
Energy = -28.8712031 eV
Zn 14.26826808682617 9.63184621407044 8.53636928275965
Zn 14.357508086217138 8.60662659720561 11.109544956094584
Zn 14.604561978268602 12.101752954974005 8.167911496449584
Zn 15.00007188740227 11.068582445354462 10.638762543612863
Zn 13.540839530282186 7.278570900401722 8.968106831631715
Zn 14.301977549075556 12.787321199796729 12.410873145375465
Zn 12.916974580633564 6.537632819380842 11.289641478546741
Zn 11.803202534243793 8.577682217396893 7.551077404678033
Zn 15.125813106509458 13.631775464112527 10.101145503240287
Zn 11.718482155971495 9.500077119975183 10.168799942344192
Zn 12.804435147509986 8.007676619381154 13.448403121840613
Zn 12.76901463453973 12.18532913124413 14.429168928092002
Zn 12.442996585063002 11.076684917698303 7.363698870103571
Zn 13.978895062065234 10.303241471954957 13.084828821001457
Zn 13.087043625606807 14.605351624253196 13.798184602462117
Zn 11.023504091776552 6.831906165626683 9.359480007022926
Zn 13.43551208003665 15.07861945580438 11.270690906575739
Zn 12.858866481783144 13.899847479871806 8.805461636392254
Zn 10.620263699569936 7.324975197655526 11.868185217670147
Zn 12.415204130988144 11.935816428628634 10.522706093394453
Zn 12.131087111332182 9.813101420980479 15.269892075068936
Zn 10.017466939501926 10.270548518109223 7.058417532652967
Zn 11.330399677008076 10.377083934925713 12.5964795537479
Zn 11.43754363994125 16.039905472970634 12.60039113161953
Zn 10.592418452342795 12.005223112378573 15.65598562102839
Zn 10.942351488775392 14.598078562787073 10.426513948364281
Zn 10.92706774758018 12.866694612244583 12.46153178782284
Zn 10.713480908922898 14.42278487430254 14.683674817180817
Zn 10.57862440008959 12.57540240281955 8.519758543737309
Zn 10.369079772448863 8.250856495221601 14.270061378564284
Zn 8.864707283729464 9.059640648063302 12.162008974501697
Zn 9.254532387926666 8.719953636830398 9.022200139809106
Zn 9.734890283306662 11.272519517185604 10.677961922485677
Zn 9.115374366972139 15.217951006610091 12.459942671308228
Zn 9.089922651237375 10.478261100395798 14.415453454077175
Zn 8.58217790165745 13.024975871373616 14.111874487364126
Zn 8.643987655104132 13.673283959319692 9.847948074092725
Zn 8.160090544727794 11.379003970876209 8.264492696995891
Zn 7.351634680512837 9.879545748200826 10.269707273519879
Zn 7.151330879767973 13.747151636023819 12.070309345389548
Zn 7.577407609785881 11.296351111288132 12.444704196376632
Zn 6.57062915855297 12.27000653790039 10.027290160598364
