42
Energy = -28.68671601 eV
Zn 13.98586213473066 7.404352797417344 11.622234126623457
Zn 13.88837769797468 9.103558273692052 9.690111557210171
Zn 11.96619278535958 6.5636443416836485 13.23985036391676
Zn 13.69099852624231 8.288684976869893 13.952749508432731
Zn 14.10134780645984 10.051435198347384 12.057385082430935
Zn 12.837194528202538 6.7388025245471495 9.461599591523704
Zn 13.282927351108235 10.805608903531297 14.448333141760767
Zn 10.83096875533877 6.130989270838004 11.00440177802973
Zn 13.914099374608123 12.617946362649597 12.590212228040906
Zn 11.189084393056397 9.11979243410683 14.11003620505351
Zn 13.759509761733117 10.834510017104112 7.772020468041165
Zn 12.506147212339181 8.508496269901608 7.493624319857348
Zn 11.581098527492266 8.88554465382254 11.398596073871737
Zn 11.28031625932017 10.34980210391723 9.302459282311487
Zn 13.227694789403891 11.888981509485472 10.154413650103768
Zn 9.574907896864252 7.584276527156653 12.944010514169532
Zn 11.427389530100422 11.345846823614368 12.197073508202962
Zn 11.787312203459726 10.734281000637216 6.190883602146772
Zn 10.463906528571844 7.679335741817501 8.950629224519385
Zn 12.461335932266412 13.264929046311293 14.543318981579127
Zn 10.854762507323878 11.42737604949972 15.237658925792333
Zn 8.926226080658864 10.701982240466686 13.596652004073855
Zn 10.038322849793875 9.006088786456802 6.666045422525273
Zn 9.97097831349792 13.180893921691649 13.659152898947934
Zn 8.144541306177455 12.979507189490379 11.858241683634231
Zn 12.588249520345057 14.40312172863633 9.663196901034693
Zn 9.337019424189167 10.366212078989914 10.975986676935186
Zn 12.07733404590469 12.826590561633287 7.6728752521716705
Zn 12.088178206556671 14.454150310256637 12.19478194696941
Zn 8.538019156937892 7.632528138119936 10.596352713105418
Zn 8.32694544117226 9.340137977281978 8.530924198665202
Zn 7.386752445560741 8.848644750690456 12.6025044365969
Zn 9.594995729254155 11.463122242528168 7.576644876823988
Zn 10.38912215087172 12.738386888124314 10.184770077792548
Zn 6.518124888744244 11.121447944451782 11.919363348277127
Zn 10.593101285756392 14.88842550044001 8.038138064913694
Zn 10.777942040567373 16.04785249380539 10.346550748562061
Zn 9.464285933358035 15.17341400820901 12.245592042693643
Zn 6.4380961315203065 9.323911567523867 10.200376997283765
Zn 8.393001026573039 13.67737457290302 7.821882645406467
Zn 7.584436621313354 11.869427599244665 9.468714811056353
Zn 8.314638012966661 14.864139340569873 10.01262488546434
