43
Energy = -30.1000088 eV
Zn 13.532978203285422 14.54403843056238 9.535860546059448
Zn 15.099181505031758 13.33050700677769 11.170801053440044
Zn 15.764343948754304 10.883487513013812 10.545285093214565
Zn 14.915124134989833 11.020669932385136 12.924533505637116
Zn 14.168380473569036 13.40620950754047 13.512533377224527
Zn 12.911425895383855 15.030288641607898 12.00182761122701
Zn 11.371425313747826 15.667573410806808 9.99050229462463
Zn 15.056941797594167 8.69404111880916 11.743229848562988
Zn 14.06253023494628 12.102393156448302 9.08979985596473
Zn 12.77078628489522 9.91522308610521 10.741625884824911
Zn 14.729224538134398 9.53388846847423 8.682678173542715
Zn 11.34064942437272 13.112547283441808 8.906602104825227
Zn 10.21005810053669 11.425174638038976 7.023490249759026
Zn 12.39406034526385 12.37898001215416 11.352882566146926
Zn 12.928803755917821 11.439574532563748 14.469244347909463
Zn 13.55525961378286 8.9533554990471 13.874343588874005
Zn 12.401077305182985 10.610518318834336 7.885308606833076
Zn 10.267309207922017 15.306645100703571 12.299827190719299
Zn 11.558477520859613 13.57184587542005 13.710124702172898
Zn 9.062329079414363 14.95041390170709 9.664631916655265
Zn 12.658185536286341 7.342258209383901 11.969238409871378
Zn 11.002987825709418 10.53168246532774 12.600798121131485
Zn 7.787256794142198 14.747717076741775 12.161980869000015
Zn 13.992838027169018 7.305339511760439 9.865817263532955
Zn 11.574113544036454 9.56108848459718 15.605208473762666
Zn 12.781641886549684 8.083606022640017 7.816446324983787
Zn 7.0509918325635 13.47210300640436 10.125606689625437
Zn 9.765984789970936 12.67172762490344 11.336969705525062
Zn 10.377950185885503 10.617433435214805 9.925085787844708
Zn 11.353212638230083 7.594979607645542 14.107252263082392
Zn 10.342504783132688 11.692615139928472 15.073884063667542
Zn 11.216275869880327 7.527254976375886 9.794787376239146
Zn 8.54386329581854 12.766043552814912 8.261622224747766
Zn 8.930290083571665 13.609216070101105 14.097548203169751
Zn 9.244718129806543 9.031060846581676 14.378782556235901
Zn 10.345164516360155 8.81784420886831 7.7027193848310604
Zn 9.992956170457157 8.031943509306286 11.96944421950076
Zn 7.018901795714603 12.208837503473488 12.296648927369285
Zn 7.360441618262541 10.952442896368286 10.034850433269941
Zn 8.110366319549646 9.81314037270345 12.15911263179393
Zn 7.953782639199533 11.209654442282396 14.382014971108845
Zn 8.670951864255105 8.578099514590871 9.822026256401625
Zn 8.160080476062989 10.128490231876228 7.803178830202572
