45
Energy = -31.34750086 eV
Zn 9.486335384713769 11.939490044418633 15.413667549998108
Zn 11.174193243832804 13.734805870318253 14.574654343257771
Zn 11.934627434459557 11.450110933887679 15.771707925743272
Zn 10.226475301663115 9.527398865550367 16.16827050437719
Zn 9.023721504865392 15.431155732460814 9.905043229501102
Zn 13.542602536982995 12.30008719813132 14.011018715414664
Zn 9.883429376601367 14.659505493971176 12.235425806274316
Zn 12.587470163299647 14.320802364710854 12.43023099670362
Zn 8.405370711436003 12.772523105709084 13.288986394897913
Zn 8.044003703314647 10.246186530590865 14.175611630201365
Zn 11.560408785342243 15.316573797690525 10.210898352928208
Zn 7.565263379596711 13.392809281864093 10.952689197275829
Zn 10.823288826006142 9.868067813284481 13.490376218557918
Zn 11.079615056565775 12.135470788776692 12.507572788648899
Zn 14.083703846294105 14.99165015550321 10.452736099659802
Zn 13.376788221167738 9.62474375466893 14.701642818178346
Zn 10.451187479236514 14.33832280375448 7.927354908252572
Zn 7.918468960929021 13.712829160250925 8.435128742250988
Zn 11.578706138708615 7.697695843159987 15.085777061674534
Zn 7.182916802060364 10.950575176479365 11.785821450838121
Zn 9.104642886339615 7.9135870898923795 14.580689917309538
Zn 14.934863434666298 12.997201011428006 11.892845654784793
Zn 8.15822441213709 11.211376951840151 9.254621250644329
Zn 8.058135360541947 8.4125529262872 12.279706180667521
Zn 10.140899723343015 12.802447128096382 10.19323697796228
Zn 9.622144292179154 10.34772097764311 11.197493243774511
Zn 13.023022980587859 14.12007628457418 8.229517425454022
Zn 12.644258733097471 12.41629527310588 10.35868566853932
Zn 15.25087562072546 13.163250828677631 9.254719419693394
Zn 12.319976824141147 10.043690882813879 11.403175062019537
Zn 14.823117680746712 10.468692864331597 12.784592767966066
Zn 11.770685182153297 12.392952018358592 6.78449940854222
Zn 9.288396400558499 12.017079936212001 7.108628620112511
Zn 13.11262526595255 7.528547572834129 13.085894430426132
Zn 11.120347744853454 10.707749671447946 9.134267757496003
Zn 10.468521811599501 7.197724278261109 12.519351366538396
Zn 9.56388692916948 8.00823319994621 10.116382055954514
Zn 14.815501783030115 10.830666340803637 10.211075641051746
Zn 9.367883402751602 9.499812744867183 7.479000004563829
Zn 13.95867594605678 11.445086039490343 7.806847873307578
Zn 14.495698324962433 8.431587166627871 11.216002911743777
Zn 12.056273256703735 9.8721863035277 6.697536771891247
Zn 12.14678620484045 7.430637932899687 10.578652357645938
Zn 11.189383396364974 7.927777200657562 8.171903870600424
Zn 13.347650557995845 9.14046733227676 8.904084203390642
