49
Energy = -34.82896732 eV
Zn 15.573544685508775 11.457868353418661 12.334831008466486
Zn 15.105074448627798 11.140302056495107 9.846996522768357
Zn 15.278649671796531 13.556979994953645 10.880659959348577
Zn 14.859008429111316 9.006874270449323 12.339245789098404
Zn 14.04162352534086 12.674290022031759 8.180959576601342
Zn 14.422440565217716 8.710075953714597 9.865366855586588
Zn 14.147317488508701 15.202991786676629 9.30536514805061
Zn 14.21101631675426 13.267068329819855 13.487522222745605
Zn 13.985131433524783 10.728216289348607 14.254616471036607
Zn 13.189890207786801 7.103689662479508 11.475461727350668
Zn 12.827060544797588 10.666667898450957 11.701800520934535
Zn 13.46393684180783 10.17682549213056 7.891055837508533
Zn 13.424821588903463 15.270811854225002 11.821440536698303
Zn 12.829952882348321 8.345681094953969 13.829440832719701
Zn 12.689871075546032 13.016119231344245 10.581331546906293
Zn 12.550391590878744 7.806033809991276 8.522303974236998
Zn 12.33425551140847 14.425801774973298 7.723280391209474
Zn 11.395151859533598 5.718682656477118 10.182612964945827
Zn 12.329843649693998 14.837476747559807 14.118065711698318
Zn 12.321600637011796 12.557867129333943 15.273209248099562
Zn 11.906764683466912 10.07716931672509 15.599222258392942
Zn 11.200207581589968 12.475859649469504 12.796402003446417
Zn 10.663340709235019 10.009905242745752 13.07158249779868
Zn 11.598865723854962 15.680669871122438 9.812212632962078
Zn 10.396193630552993 8.157231116498146 14.93771871857905
Zn 10.158778052258201 13.076965539484853 10.576040844657465
Zn 11.505874555997554 11.018032469512558 9.531657165004066
Zn 11.211446231010676 8.797122479843575 10.719267190931754
Zn 10.910060946467175 6.7961592397875465 12.555988743138949
Zn 9.847357380163688 13.975425280816633 8.078551195272693
Zn 10.803586792519106 9.517509835287838 7.449450117562461
Zn 9.876488597575225 11.575830839382002 15.291823969978198
Zn 11.561863330976685 12.046471922465486 7.128233696665943
Zn 10.191529985330542 7.112047872322624 8.465050878866961
Zn 10.725675184764546 15.341219718338762 12.182199540013677
Zn 7.964806066768384 12.694136627769224 14.116389227671121
Zn 9.415951990963665 10.70958773375285 11.010509127290222
Zn 8.991712377495542 7.2402428261112926 10.687426940636724
Zn 9.910048061626224 14.216042273405453 14.465210846730981
Zn 9.06151070980315 11.492190275212062 7.932483894035295
Zn 7.994231886142093 10.231380305381961 13.80525220951132
Zn 9.055123307649373 15.549096679169226 10.143451191967406
Zn 8.67837133191081 7.939762146615755 13.08834738384984
Zn 7.098371187663884 11.9665210407433 11.838243595839796
Zn 7.6942075295785575 13.410960443339498 9.613361887579604
Zn 8.184847127365265 14.37040076509756 12.244452056901666
Zn 8.570281079042976 9.07553242660188 8.823168569504261
Zn 7.241517355825228 9.221160855359967 11.372501464732077
Zn 7.04025805820477 10.994895208719367 9.488087714378109
