40
Energy = -26.94970714 eV
Zn 12.916441367486172 9.230585658073517 6.934796458248481
Zn 9.995117053581861 13.957264880145555 7.27932619184218
Zn 11.052781689977039 11.333063227357774 7.506548719326523
Zn 11.559574523098224 6.841290680306762 8.302223845813256
Zn 10.01260299882864 8.904363835486237 7.764517779462112
Zn 8.420347690154086 10.874371802086452 7.437548358401612
Zn 14.116697275029042 7.213264103553666 8.214346723065546
Zn 15.068555033450671 9.536553804796657 8.407642656314769
Zn 11.806487666768291 13.60747605307226 9.105724214731813
Zn 9.519132341765744 14.484440868516636 9.8662344417158
Zn 7.572950078249809 8.827768996016097 9.007241643832705
Zn 13.315782337088597 11.578542934265972 8.796683214109612
Zn 12.114785628239506 9.307738214912083 9.512161155135379
Zn 7.649343906307272 13.26759061207456 7.777463332383032
Zn 9.6542343496906 11.797849230157535 9.647509647528812
Zn 9.043761690840492 6.7302629759862045 8.79291936326274
Zn 10.579336308034971 6.590716009215167 10.942926558028342
Zn 6.95467909003011 11.221504870475563 9.621251345968862
Zn 13.113098498587874 6.493605222920507 10.43549694976176
Zn 9.776844929928908 9.279421357902269 10.437539813922927
Zn 7.139268800647986 13.738163512744663 10.256249906182907
Zn 15.11088939145228 10.95980905964815 10.564971536166265
Zn 8.120581444309511 7.101349901485087 11.148081130759708
Zn 6.674189339921449 12.05262175636849 12.113080954775148
Zn 14.684632430474501 8.396621407820371 10.812108430531133
Zn 8.749241472668599 13.950845593567143 12.28509674138497
Zn 7.125724073576981 9.411623805902957 11.549989633491405
Zn 11.709119837664362 11.201012987984793 11.145150993821547
Zn 9.31371099254726 11.23688382447561 12.09913586322615
Zn 13.721838552049705 13.0365264062905 10.939965216590998
Zn 11.930404036503965 8.433858763110898 12.13234274692255
Zn 11.325745589942729 13.856534699354915 11.684063118644325
Zn 7.920159782145149 12.651930003970312 14.334400790089672
Zn 13.848340979255463 10.25311115386676 12.617713486076207
Zn 10.555277216061468 12.873545234219412 13.980791755928438
Zn 9.402677252347862 8.65897015246168 13.02122338191358
Zn 7.207137260339093 10.202595078915135 13.97640145118624
Zn 11.512034741985953 10.35648987657748 13.764466714738596
Zn 13.022536212082281 12.557343043820635 13.387245509236859
Zn 9.402519625565064 10.71107188877479 15.116001714157452
