42
Energy = -28.43323289 eV
Zn 12.897879517154609 15.697241674146461 13.290228664239212
Zn 11.41999333776182 15.645572258635873 11.279060806723212
Zn 14.499244765884418 13.682064158822245 13.863194295221872
Zn 13.939046932800446 14.283493211878382 11.334044021284488
Zn 12.322748798761651 14.134353248697032 15.226029075100758
Zn 10.21705424951804 14.714020226238269 9.130230729104754
Zn 10.364595703707018 15.070912838177836 13.716448924050324
Zn 15.944007048379445 12.683129590070935 11.913567344940148
Zn 15.443294693882013 11.202471721612408 13.888709040346884
Zn 12.674876117293874 14.579171959575808 9.152330753523579
Zn 14.245351165471739 12.630359934221476 9.241897605153259
Zn 13.004598357267854 11.678453770232586 14.48290012075072
Zn 11.755669233373688 13.001607500509522 12.455565121391263
Zn 11.5504415775342 13.389599130429628 7.084982517155847
Zn 16.520102824589706 11.463360942836788 9.828455056464668
Zn 15.794165635668366 9.833504450181291 11.704508615275143
Zn 9.234105920302213 14.192680239815303 11.465519066094616
Zn 8.357266195912167 13.103446996474302 9.182518685113767
Zn 10.442858642054816 12.487831257097069 14.877541203661478
Zn 8.303853518831593 13.405517439480569 13.734614245548771
Zn 11.182864804640722 12.186346177057127 10.112624442730747
Zn 9.64317702071779 11.463501282345645 12.046264080480348
Zn 14.507550981363629 10.047165515578701 9.274712102472588
Zn 13.377665545679443 11.259067501102303 11.555476877194472
Zn 7.129124631760797 12.532407569392078 11.314947659535765
Zn 12.392086244561341 10.976394764438972 8.073182994539316
Zn 9.803917886356185 11.655285124957164 7.676209440434264
Zn 14.066168219181748 9.147323077090089 13.560467818236788
Zn 6.378408019930699 11.711047173456754 13.601698851257531
Zn 11.304845753626912 9.970932940799992 13.63061993035075
Zn 8.56547509135669 10.765437556596849 14.465484800194757
Zn 11.372952976214108 9.712821307035728 11.0380655655031
Zn 13.773225029017636 8.193373346362643 11.05512102897218
Zn 8.405648912119418 10.63036593190234 9.706185948441219
Zn 12.66446677423879 8.43375137686965 8.734410321177284
Zn 10.302031295618006 9.24180259755841 8.54930442277477
Zn 7.240333150669339 9.900248620125383 12.008967777754634
Zn 12.293444139365214 7.450741310950533 13.024901154444775
Zn 8.98459776344299 8.53055325646497 13.394408571763677
Zn 11.194726776657026 6.9596580507926955 9.990488523055106
Zn 8.912766969948724 8.286305908894398 10.682450087619067
Zn 10.129711426361999 6.62302071007372 12.208005358901776
