42
Energy = -28.51288749 eV
Zn 14.786742004299649 8.28961681253007 9.600407219940903
Zn 15.542600539335 9.093645546891196 11.9046597350368
Zn 15.76580735203837 10.706900532603152 9.844553145097999
Zn 13.353706163673179 7.540038476734131 12.030883050554634
Zn 12.625891346810082 6.803837602831428 9.715594256594729
Zn 13.803200987840363 9.391110656990897 13.718730936591799
Zn 12.873043259270396 8.674490810320485 7.945291645159883
Zn 14.120607088435497 10.943955779285618 7.960901699637522
Zn 15.70722096456496 11.748788798953168 12.179902363702757
Zn 14.327677714802581 11.796702139059386 14.331646224976913
Zn 11.6435097487499 9.378156648880172 10.442975102758725
Zn 8.740824525236864 8.178061341607373 12.879718913776209
Zn 10.668247840737042 7.061666507139912 11.46242120425563
Zn 13.385566738702998 10.86305913985572 11.313355398626584
Zn 12.501461553647625 13.371082554910883 14.921219968454166
Zn 14.002243312274436 12.88289269743927 9.686471551762668
Zn 12.030599070206161 10.749596003158707 15.073028163875374
Zn 10.485790433661801 7.814431592183753 8.66941788098448
Zn 11.534064578022226 11.78348402853437 12.754841665246666
Zn 11.66686664136993 10.831715574842088 7.313522964898247
Zn 12.27692389396827 13.510533793602738 7.7947524407471604
Zn 8.519763931416207 8.042511657229825 10.29100190902164
Zn 13.62087448661873 13.465895439181022 12.369850382214281
Zn 9.509909674997324 10.6345032473832 14.226697125891276
Zn 11.420652048715715 11.887758462571933 9.83632899717909
Zn 11.261467398109545 8.938488527857558 13.258309337617021
Zn 10.007947050813632 13.230680238531827 14.879290124731504
Zn 9.629293913578344 10.443755648098547 11.535077820196499
Zn 9.405972029995791 10.225915947147824 8.728207997232369
Zn 7.193760080643437 10.274590088049036 12.980508153293815
Zn 7.233191543337153 10.239943785982193 10.341638472124131
Zn 11.352184129057413 14.701827356432691 13.021545620414622
Zn 9.940718563225941 12.581768253916671 7.444682804085275
Zn 12.129399469395036 14.477425877190573 10.351953396255063
Zn 9.745147711190487 12.981737224723675 11.44747551596289
Zn 7.809649059287071 12.5700025369644 13.864357429877641
Zn 8.665013449150406 14.905835917105973 13.207440568877706
Zn 8.166559016040623 12.54791206016993 9.298625072893193
Zn 6.718527191954271 12.502400076429382 11.54171501834982
Zn 9.958144908658673 15.758287640642813 11.166546068944479
Zn 9.898625189017077 14.656264022825855 8.877383293400579
Zn 7.688187897749041 14.70399245292695 10.70052535032282
