42
Energy = -28.68236091 eV
Zn 12.776185768518381 6.505953780986988 10.956591955856277
Zn 12.541273899764878 8.264430007174418 9.110179230342792
Zn 11.93467126685535 9.858312381088801 7.139183319258487
Zn 10.45546965223825 7.305777796118935 10.969015092719513
Zn 13.045932569819513 12.08417092201627 6.7591239732866
Zn 14.529026953610346 9.111711017561907 10.566416103466153
Zn 10.35614976486372 9.62024374824134 9.242314426711259
Zn 14.132579229521703 10.496402088984473 8.437490788826816
Zn 13.766147583801965 7.8656871559600825 12.738687071722586
Zn 8.39959383905938 11.230862599691335 9.54706111875388
Zn 10.229116633086297 11.713522585695458 7.460714340203395
Zn 8.881589077710064 9.265330114283044 11.359377737781248
Zn 12.063754426619738 9.993320522528899 11.431413044768606
Zn 11.580578155453548 14.004085826277146 7.4704007797429925
Zn 11.958631256732964 11.810484575123827 9.60906929880472
Zn 10.805445618324123 8.650113501507754 13.28160097221517
Zn 14.499872788500332 10.365266832314196 12.924394400673936
Zn 14.414890347882281 11.810403871852996 10.688157566037205
Zn 13.95104410793414 13.522564949740811 8.639425090686078
Zn 7.02732901496377 11.057754700892767 11.851862692986249
Zn 13.027428275312271 9.07030265974492 14.742444694638557
Zn 10.474678055619218 9.977057334428013 15.630131984137916
Zn 11.815857954626786 11.46610482585596 13.63383890632333
Zn 10.154537434448633 11.810896161714707 11.585988613522957
Zn 12.660239428421457 10.104995565406385 16.983820530698452
Zn 14.665663070822134 14.401766117702426 10.940293192851506
Zn 11.897897496901434 15.10690903974306 9.797423281617037
Zn 12.27002416415297 13.267855327625236 11.739608383340103
Zn 14.111663533717259 11.439855459444992 15.272292891167762
Zn 14.62361146187319 12.982425097985132 13.21593328616677
Zn 9.820417986515247 13.506502850642649 9.344932688724166
Zn 8.877705360183421 10.463529104831695 13.64256616935396
Zn 7.541187651845011 13.272910226440054 10.808279360143183
Zn 9.566743079681984 12.433597359327441 15.314350292698112
Zn 11.578876302814876 12.345645489923445 16.729317037549258
Zn 10.817098912200374 14.143529955377458 13.772521452713999
Zn 13.484021630374663 16.611836290449702 11.214774620002174
Zn 13.052063530086507 13.741026653689435 15.25557886757205
Zn 13.438267146091356 15.318911753404418 13.358127470917628
Zn 11.215866463790421 16.413737201707953 12.25054555060471
Zn 8.262165561087683 13.036218220364827 13.234429223038143
Zn 9.50347412351518 14.755339066790553 11.564211689142544
