49
Energy = -34.61383483 eV
Zn 17.004929608387453 14.237081748596378 13.086488995473067
Zn 15.545967298195466 12.798201176432231 14.6770397833181
Zn 16.37330107916359 11.876983880804072 12.094032866957082
Zn 15.432190868218962 13.926097843677084 10.839630251126437
Zn 14.585962674449506 15.06132829425179 13.213133779788796
Zn 15.28027160356962 10.257079387369961 13.791380266383362
Zn 15.764088893155748 9.532050472619995 11.354612246952513
Zn 13.512139019008336 11.229955053775466 15.481920914230649
Zn 13.196897466691686 13.840772111304858 15.152421667536869
Zn 14.203630209507848 7.929469717662247 12.540811817039799
Zn 14.929414695588916 11.495893550013742 9.807300161616169
Zn 13.819107342312943 12.59384353946054 12.588605855994874
Zn 13.53226089700468 8.752502336683431 14.880607617023495
Zn 13.217442833873084 15.168518820352874 10.971481615712595
Zn 13.932184675936005 13.662499800904836 8.772425559202814
Zn 11.202144743233177 12.225857699872144 15.779370758215373
Zn 12.162677362527635 15.787866369409356 13.471394425229171
Zn 14.06928511716655 9.026215976126101 9.56959567795499
Zn 13.010469641112225 10.291082555826106 11.977191177758668
Zn 11.25415038262507 9.505491282038255 15.643008096632839
Zn 10.8558619854309 14.800772830264663 15.613926547663512
Zn 12.234724688823219 7.565451397538361 10.838780254029455
Zn 10.752573021341263 10.75811272517256 13.11133262145294
Zn 12.801532085203696 10.987050261273279 8.308928384259644
Zn 11.354501919016112 13.224420243353448 13.006400378829406
Zn 12.113105151625197 13.15670714434732 7.03516096901536
Zn 11.63396776457613 8.076194085183817 13.348625507694816
Zn 11.940664418627234 8.427395293450587 8.402191008277905
Zn 11.00091180375979 11.38984329493269 5.394869919879898
Zn 10.916241563707967 10.149441623820202 10.492356709004246
Zn 9.5270291070818 15.433067519318502 13.494492981172176
Zn 9.718937253918801 12.340789539675526 11.231672956349586
Zn 11.492828167458185 14.73901559355829 9.03407286008963
Zn 9.10330226552861 10.77127423060093 15.52903895818091
Zn 10.753901227621325 15.674872275502315 11.31366016884433
Zn 10.270561283160935 10.059030459705076 7.450405149290937
Zn 9.01077868659009 13.17778758314301 14.655890173704728
Zn 12.237434785255532 12.498869079314803 10.595182397989147
Zn 9.7810676871465 7.523895251692508 11.714028907815223
Zn 10.22349877259933 12.448853936235537 8.607541863423213
Zn 7.865333601902493 13.914456823740945 12.317858225193799
Zn 9.48695292506839 8.179013617024316 9.28754671686779
Zn 9.135927239689137 8.802740746227265 13.859886104448703
Zn 8.21056263757083 9.53426800672667 11.485237408423485
Zn 8.963564420340948 14.693231967529165 9.895721510791985
Zn 7.788266594860622 11.307942356175792 13.413147898084002
Zn 8.407179560021786 10.59775978558619 9.164578817291746
Zn 6.950938840162146 11.82697826487372 11.039207197836495
Zn 7.540857586986881 12.981627355828664 8.814734874696057
