42
Energy = -27.94787832 eV
Zn 14.459810379295535 10.626948367864886 15.394179561757532
Zn 12.336613842534808 11.95939835479136 15.498436478731666
Zn 14.654010108489832 12.827752819843852 13.788078934141417
Zn 10.091063778324328 15.102612119536746 13.531406083358045
Zn 10.009449416263603 13.167967551019203 15.262055744491713
Zn 12.221742938061496 13.639359088039205 13.456185852366808
Zn 13.982931695205957 14.251778551283268 11.599911541825271
Zn 11.476648392680795 15.239071186535742 11.456049964837463
Zn 14.509889905609056 8.529073897400163 13.798884108137838
Zn 12.238822269748463 9.179529657405817 14.746109495026383
Zn 12.916636857129026 15.148351725790421 9.395866628722853
Zn 15.832363701682324 10.601350547242781 13.2351505717602
Zn 10.16144705593011 10.604768644050903 15.01538289914355
Zn 7.973280006419891 13.839796995915618 13.783520621520866
Zn 12.678954187412742 10.98466856187636 12.793984367282492
Zn 7.883503075633674 11.355123914557733 14.26904203580838
Zn 15.039995297358242 11.882729869731811 11.220620697730071
Zn 10.272865398925239 11.9735234969117 12.692277375454898
Zn 9.062284745269366 13.897489504426009 11.265480619712234
Zn 11.93021028980327 12.467734922605684 10.78266061733873
Zn 14.794432189745942 13.406933192147491 9.165183408220452
Zn 10.347323320590112 9.069768185362504 12.83941678002939
Zn 10.51326396709919 13.995981499283785 9.191889068298055
Zn 11.704239096745809 9.73645835701451 10.642574167532372
Zn 12.570524405361136 13.042978458265216 7.935568107354992
Zn 7.80322852450672 9.762211646613505 12.284437090728106
Zn 13.530355996255189 10.902571386867615 9.240171560966951
Zn 15.360834750924903 11.787488764138644 7.216314148090219
Zn 12.675590636472114 7.591190283248232 12.339820818506409
Zn 7.066455685263542 12.243337108150708 11.937286906442447
Zn 9.4355258083518 11.013675140210886 10.504436504484914
Zn 14.322677557463669 9.400971787827208 11.310853421956425
Zn 8.036813006216251 13.272487002690669 8.912110519798597
Zn 8.849667261474476 7.8276249145998635 10.96384897755111
Zn 10.869176074169062 11.213982953157192 8.293555488168435
Zn 12.247492856729702 8.272330949586573 8.11691856426331
Zn 14.16233710321616 9.554238792716573 7.0988147379504385
Zn 7.233062589109594 9.139960421223956 9.522675030782862
Zn 11.14673566799587 7.079186605828379 10.369727297489906
Zn 6.302717197906272 11.480287871833738 9.648826616077276
Zn 8.226388790258223 10.909191612631258 7.8398624419352405
Zn 9.788971839666354 8.8344317245939 8.69030708523794
