46
Energy = -33.28117862 eV
Zn 7.189407770930189 9.382969711192207 5.117112096735502
Zn 9.44544350978554 10.65352518502284 4.703692801234257
Zn 7.657878167114928 11.86018286685965 6.028107227146046
Zn 7.423619122644943 6.949449036304095 5.918863150768262
Zn 11.60398916974307 9.501678728541158 5.604266071633932
Zn 11.940362438478788 6.977316173217853 6.141390220178396
Zn 9.524639743902881 8.089247880222699 4.8895109953580675
Zn 9.747218410279924 5.733955459503623 5.926431130413233
Zn 12.746900939200117 11.030149533849526 7.24556054739001
Zn 5.407045561744552 10.692689514138324 6.488029138492251
Zn 5.334926989029362 8.266693793359877 6.960978805466569
Zn 5.596913444744439 5.857470276627579 7.436959378088147
Zn 7.777255714227221 9.632615277374198 7.760913205386816
Zn 7.979177112865741 4.828059831049695 7.568238792018398
Zn 8.720512389789663 13.14912574514617 7.908608175283923
Zn 10.104438142697918 11.058568655921569 7.1804123041107575
Zn 12.969438057926135 8.631688507048349 7.877345890405187
Zn 7.82718972048658 7.304558369594696 8.80533374215653
Zn 11.582160411943018 12.749838829611809 8.600027222395601
Zn 6.28187436351457 12.09598720842836 8.349681878686912
Zn 10.450900588986975 4.927085265924391 8.323509986179237
Zn 9.98999782623156 8.118345286440602 7.6301965499384545
Zn 5.093317833814021 9.836207454864473 9.03083487585142
Zn 11.108190764726638 5.908095784751197 10.660254239955421
Zn 13.242175993043045 10.55774795086066 9.737920369109636
Zn 9.832448163230481 13.609490055375026 10.182014110096494
Zn 12.535400076018458 6.277335924613761 8.555482941440701
Zn 8.697489734296775 4.996236106452625 10.207875122702026
Zn 6.233351515341723 4.972688144949414 9.673956895763142
Zn 5.071215009884834 7.332186666948324 9.579556107542588
Zn 10.82653451482754 9.422894177594436 9.56302721338333
Zn 6.022826904379233 11.380266814374401 10.91785762645023
Zn 8.677616827637706 10.910797328657363 9.741612608071456
Zn 7.3156875850322205 13.420756077911724 10.221251145115172
Zn 6.8760042229796134 6.598089648500807 11.516386420597879
Zn 8.718393093816857 8.542709710165328 10.783840208072668
Zn 12.41848471740888 9.763180935860664 12.061675576121402
Zn 8.718418068055442 12.295149857389037 12.131058681632803
Zn 12.919677828634585 7.881513325256577 10.45116144457892
Zn 11.264573064393613 11.828314127414336 11.259282290099314
Zn 9.206609695815356 6.032530062331092 12.425905583265598
Zn 5.804324845529664 8.898397079745989 11.482039516736577
Zn 7.298154278777108 10.374171585193263 12.901249276601913
Zn 9.91264091762305 10.085695125856686 12.790079277556204
Zn 8.118361819168852 8.071306180707724 13.374772450472063
Zn 11.02340412194779 7.749629931496113 12.522327901968625
