40
Energy = -26.98602485 eV
Zn 13.820095494166617 11.31949221414833 10.016552441911253
Zn 14.661379714370744 12.641080988318107 12.133407846464559
Zn 13.302486412375501 10.11800850810833 7.88853596770596
Zn 13.554658874505709 8.731351665903778 10.168413752019502
Zn 14.019257004160504 13.931370563735873 10.044546011692745
Zn 14.084181496281527 10.02964406675884 12.347671422252802
Zn 12.995758711768794 12.66485015046588 7.757915399267339
Zn 13.527010403989692 11.866933410182977 14.255839333055375
Zn 12.982444621100095 7.5275058914671344 12.605337862642209
Zn 12.556151317460666 14.576802701515124 11.976197126031312
Zn 11.0403373047283 11.030984688602397 9.20785745803194
Zn 11.645621464766592 8.286753877847195 8.41002617999759
Zn 12.04868136116729 6.542747682686764 10.447607392942968
Zn 11.76826633493052 11.707594712201741 11.651966360191805
Zn 11.366898296049628 10.662568940610631 6.4084746063363385
Zn 11.164480859175278 9.235287172442806 11.152260553257454
Zn 11.436179579369304 13.727389639066645 9.597758030851288
Zn 12.102393949163051 9.620215605070667 13.94029993454194
Zn 11.643238065471268 13.548959858266313 14.049057500201005
Zn 10.672544737985373 13.211020388872214 6.936009607565324
Zn 9.915094435928344 6.855943818959328 11.767965735780813
Zn 9.953886109234519 6.4414460745895035 8.895579932980743
Zn 9.790648901606597 8.858753413050973 13.394364128538495
Zn 10.075328355863013 11.514033545296176 13.72291892564182
Zn 9.612192815816304 8.544823209712703 6.768406107200312
Zn 9.23133593690493 9.140277328743558 9.455313667614181
Zn 9.01796274998537 11.183111525914077 7.252391157986561
Zn 7.755262053454344 6.5796991180255 10.178560882072427
Zn 9.092992215803429 12.97380850807755 9.163033221965135
Zn 9.81517219125723 13.586522738790961 11.759988722944552
Zn 9.204674622483084 11.008824854711106 11.207907435575615
Zn 7.808560625331476 8.621590092867782 11.786890034899766
Zn 7.7664531428465695 6.938419594983229 7.658873480149731
Zn 7.733816578559003 10.425834679705199 13.652912099036893
Zn 7.170938644946188 9.343760288639755 7.254616069802521
Zn 7.80101136699168 12.912316921728136 13.349894639623328
Zn 7.254749709465913 11.142967031254353 9.205297522376219
Zn 6.336610443101748 8.658673724040336 9.582538566949983
Zn 7.216533253448321 13.188726994239092 10.94395345581516
Zn 6.332404793834077 10.845833928570496 11.582556507456905
