48
Energy = -34.60219497 eV
Zn 14.02662032266401 12.99748360672458 9.151833727119108
Zn 15.329436771644398 10.758866693022252 9.840152083384238
Zn 11.477966140739497 12.95183042906865 7.6376777675101
Zn 13.974732044153901 10.974248318824042 7.626031480274924
Zn 15.391149634709445 12.793692487275461 11.37319925675683
Zn 13.646818432596515 14.6180769557309 11.496662376426602
Zn 14.905161879903545 10.60844378708477 12.64102389816434
Zn 12.2847738415497 14.785034770213942 9.17885104460229
Zn 13.806628855062437 12.843634175147608 13.393565499924689
Zn 11.986095036759293 11.02989709314905 5.972812015831218
Zn 14.957020905678325 8.553971318554352 11.132316499225036
Zn 12.807343782738931 10.658222077732207 10.835559926805827
Zn 13.966950950116269 8.658365204565944 8.838480597448775
Zn 9.763335849424893 14.718834447903554 9.491211722550812
Zn 8.741919363999774 13.178831735094333 7.819643262334479
Zn 13.33619232232096 10.632591542818465 14.728246213211433
Zn 10.098421513139243 11.900858602665936 9.838421499740592
Zn 11.835843482233582 14.723119131119812 13.580941548364727
Zn 11.598055300272026 12.827453047046262 11.610005146677075
Zn 13.176915331492195 8.774325003544716 6.388212801746847
Zn 11.342248511933663 15.728887716816805 11.312453205396183
Zn 13.33007420981067 8.532075577075071 13.078899168259584
Zn 11.326087561647514 10.585371673028202 12.89510264677649
Zn 12.063657504006011 12.813495276121078 15.257499042433583
Zn 11.624220385051824 8.717884466864597 14.947024562792885
Zn 10.702092612084321 8.755291831880818 6.316776414480746
Zn 12.588081328310603 7.447257250731039 10.767257778065355
Zn 9.270391014916836 14.4713949323248 12.018240137083373
Zn 9.527277120804001 10.960908199629234 6.937324321107716
Zn 11.607604611855097 10.16138833178467 8.671675405145
Zn 10.39020636195686 10.879967213876778 15.482283201820039
Zn 11.656300303846574 7.410827033830741 8.33450752663865
Zn 9.713301595240088 13.025953027136332 14.11441764676021
Zn 7.72557395066365 10.870671534234026 8.752129221036906
Zn 11.010799088827355 7.360878044525712 12.821072100518627
Zn 10.307557193878939 9.428621842950228 10.774051941681021
Zn 9.16273041886486 8.635430137293602 8.343386726384436
Zn 7.280351712897399 13.120375979378409 12.837262032430463
Zn 7.695686923432894 13.291258063010321 10.21243909350577
Zn 8.97074861860778 11.153177610125843 12.094670027153999
Zn 10.044242702142169 6.759750823498676 10.206559657740002
Zn 9.209477254604344 8.892249792416608 14.155191197478414
Zn 7.926827410700926 11.186820163734925 14.653775726181768
Zn 7.585742445720121 8.799353469109523 10.293635768794443
Zn 6.526455186173985 11.127001861492511 11.003759396236076
Zn 8.563294748099436 7.335536035998447 12.174076445383362
Zn 5.6054196404125705 11.283135772261671 13.537920940857829
Zn 7.052867680494795 9.282353801804483 12.787397984191337
