48
Energy = -33.33980898 eV
Zn 11.065270185883332 6.301586751551356 11.59723409146733
Zn 14.271314179809416 8.3491485244104 10.318022842155052
Zn 11.932014622570883 7.172623394686099 9.388119609090808
Zn 13.430976821340645 7.418389750713446 12.554032430932898
Zn 13.170716560573311 8.741397755664364 7.783417131855834
Zn 11.27941523178976 7.299852144641178 13.920557477340965
Zn 8.993322104789836 7.568049087104768 12.66723907440442
Zn 9.412183754652457 8.0344969648401 10.065547955359806
Zn 11.60502963486046 9.036629074053172 11.450126965211453
Zn 14.932745731327694 9.508584363245696 12.787218458848674
Zn 14.910492282226452 10.318881557646042 8.72406294415956
Zn 10.366881141396904 8.538088849264032 7.6364957143863545
Zn 9.975417568153686 9.231191959923915 14.874283931816356
Zn 11.701543343706552 10.245394353008516 9.205454496259234
Zn 12.931844204104458 9.154591067076248 14.647337955197774
Zn 14.754475227988197 12.784794665106014 9.257662088621455
Zn 13.033086326302621 11.576150377485568 7.321886738871978
Zn 12.082137909179655 11.024491859380534 12.973843353070011
Zn 11.45277623504471 11.230976060869505 15.583808832265573
Zn 8.168704075046172 9.809627754997635 8.175313746582306
Zn 7.400511956921724 9.492792564944246 13.330259469657067
Zn 7.372128872258375 9.481564297821246 10.705448988218917
Zn 9.674317304705353 10.360122393652107 12.437076701143305
Zn 10.227079608983018 11.103825122199915 7.094640098653641
Zn 13.675640748483879 10.872043665014596 10.933260470670305
Zn 14.371239819236457 11.453533926913847 14.422356749892673
Zn 10.356608966555433 12.831383226238295 12.053780542589838
Zn 11.840083321786468 12.621750627198555 10.009167971682416
Zn 8.621045971337386 11.468328904113118 14.664412690240782
Zn 9.57289572563486 11.255018592968792 10.098480551110166
Zn 11.28381450926439 13.426849483904201 7.418477401298016
Zn 7.17246901538374 11.729187066348375 12.02269412987394
Zn 15.518821338461473 12.173142082899998 12.069152638313485
Zn 6.91547518503237 11.703354586263107 9.37547849633391
Zn 15.13330621192083 14.050750096380854 13.81010422162025
Zn 8.841071669313292 13.051781985521437 8.191424856335605
Zn 12.925700070104334 13.295065685547533 12.304288366879748
Zn 10.219707183275817 13.448082754354855 14.8779268003494
Zn 13.03005863101315 14.697207663939668 8.893740065185726
Zn 9.619730057073735 15.423896420356021 11.939787927970178
Zn 14.741256944166997 14.65787378625174 11.074065744352708
Zn 8.136221027656605 13.698838793249926 13.31073929883024
Zn 10.268392013231454 14.918927724799055 9.428235823597417
Zn 12.806030737530405 13.403306268317571 14.97227647330336
Zn 8.051730133178985 13.758682229280785 10.606597902180534
Zn 14.024174224502303 16.208945404365036 13.171124925969645
Zn 11.572608633539721 15.343553456224612 13.670512274792213
Zn 12.178775938821822 15.613080935650865 11.190326489528948
