43
Energy = -29.78307978 eV
Zn 12.296562943870422 9.294155244912503 15.336942208421442
Zn 13.068915899203791 7.538684472369638 13.592373488600483
Zn 13.818505957107812 10.001169526934397 13.287869100783693
Zn 13.592414657539988 11.723551041822228 15.289397082686476
Zn 14.667616164689518 12.469774559442275 13.078440809421453
Zn 9.815493013329695 9.361613274335657 15.608103610029612
Zn 13.26824467414238 8.377737485702289 11.001221085849924
Zn 12.29757726834811 13.780199755659693 14.44864937235714
Zn 13.83413714963901 14.796657439192607 12.652868119039644
Zn 10.811377541322289 9.68988953342678 12.540265813149608
Zn 11.005429505180492 11.62426932735913 15.072458010414632
Zn 11.61562950057445 6.289060660142584 11.980556405474317
Zn 14.321158730981551 10.96878743983416 10.94313761199998
Zn 8.1354707410579 8.333182895158533 13.950193691787899
Zn 12.944567308360694 7.541780645065819 8.458016197837932
Zn 14.243014735693786 9.579479137782148 8.670545359429614
Zn 14.722478819794222 13.55323851866093 10.55777559230446
Zn 12.025380624511625 11.956248478644167 12.432050348107314
Zn 8.662797149909773 10.92309944457746 13.988143840992185
Zn 11.287185918896379 14.765108746789835 12.204474377518638
Zn 10.588696778782372 7.457900542281878 14.102043390898414
Zn 9.173718432038497 7.429230804479214 11.784609080267868
Zn 10.850181754847789 7.23831092389953 9.818788217134433
Zn 13.060437542956464 15.577428252029145 10.325882535855866
Zn 11.840739178813305 10.434701706572818 10.1711482940505
Zn 14.938818288493355 11.93883333645346 8.490562782447975
Zn 13.701935691269759 14.021509475891259 8.148820195664044
Zn 9.641220190823818 13.307641593130864 13.59195711879115
Zn 12.034491932548846 13.028835976721549 10.089043895326947
Zn 11.065190925806144 9.131384779353349 7.893933879683529
Zn 8.813040136143076 14.468688192031877 11.421256739123269
Zn 7.472771471409233 9.619783014161845 11.864055194358725
Zn 9.877129203781816 11.891285804857223 11.070559485931165
Zn 9.371848980932631 9.353952696240297 10.006111279365703
Zn 10.521659623222767 15.459442379250023 9.78393569349092
Zn 12.171222852179174 16.003805075908666 7.902977016098291
Zn 12.526155472840866 11.329693276617823 7.563094122843441
Zn 9.870689357512951 11.370848246971006 8.291981895204005
Zn 7.494565197151374 12.295925776918356 12.244506857165447
Zn 6.767565291034749 13.537932814744133 10.122042236482233
Zn 7.614175164886578 11.199154341901396 9.730700207847482
Zn 11.186196066637692 13.584810858757958 7.620986110106262
Zn 8.919022427493909 13.686642768774831 8.802951911416624
