47
Energy = -33.89591583 eV
Zn 11.356263354443 6.73186391381607 10.981387710477714
Zn 11.653567059669149 7.3758399160862815 8.568530002937456
Zn 13.47618195780248 7.075435425489558 12.427574083220408
Zn 11.235634174142545 7.471483268501436 13.551559277033816
Zn 9.034995331129839 8.323305000698504 14.429395086895779
Zn 13.03238674985753 9.436342623302563 8.097892041683375
Zn 13.687648019315402 7.861452060519492 10.01666592083765
Zn 10.455679578816358 9.366945309350452 7.397442981990348
Zn 9.462849568515997 8.166684357531896 9.426317793677878
Zn 9.191332524607887 7.800229253702024 11.944049624228388
Zn 11.717720621182401 9.417574014611043 11.589199697050386
Zn 14.367113423494928 11.586025571899672 7.817066852232259
Zn 11.898241694256999 11.584238725153666 7.166684649677156
Zn 15.18984524477303 9.926831250688204 9.553759514236756
Zn 15.910088512838529 11.437780535539167 11.539629932402702
Zn 10.472590488973758 10.913715233322911 9.71555805233722
Zn 14.748695067716673 9.221871653908378 11.977925329496909
Zn 13.338545721912721 9.078274858917416 14.10852950501054
Zn 7.371215469635263 8.963298887307023 10.569174094958958
Zn 8.080712512812216 10.225895837086933 8.572768788687464
Zn 8.592463584894519 10.806445616699612 14.867378297047722
Zn 11.095352803252078 9.621199214554572 15.094576611509781
Zn 12.952727410018971 11.453520920288808 10.403538546973301
Zn 7.354165312851599 9.598025606373639 12.969064343640303
Zn 9.318170567048195 11.669491430008044 6.999561303023971
Zn 15.163476882490311 13.044705880181327 9.804076697328728
Zn 7.0713366264516315 11.459849824196306 10.825345961345043
Zn 11.077828495257464 13.244757907999832 10.880088452169588
Zn 12.109016456513968 11.855777815254957 12.897168039598666
Zn 14.400836590566017 13.345499493872037 12.492607665358484
Zn 7.00760227336244 12.156002577638395 13.30769775374419
Zn 10.577121147155319 11.972705802647564 15.847514281306282
Zn 8.212487240494205 13.673469105976016 11.651440950451413
Zn 13.023704625971043 11.504460999436834 15.437183383389035
Zn 14.814530624646379 11.149016982997113 13.768641067688911
Zn 10.515703711349655 13.591407263140578 8.087627507138047
Zn 8.318149294388842 12.872524620886445 9.123376070153162
Zn 9.68676007486176 11.107853629326176 12.206318472089658
Zn 13.079344452032647 13.718832208280224 8.230191172951503
Zn 12.655627330943972 15.147556753899309 12.870638702553434
Zn 11.288101988074263 16.51606202535969 11.104006903218997
Zn 9.121294400978565 13.281000529068494 14.225397308043968
Zn 13.426677077906708 14.780625906261097 10.527889191706373
Zn 11.755592115352679 13.83471176858762 14.722705518779588
Zn 9.336615037776378 15.2023029931306 9.948543094466112
Zn 10.078257523914242 15.042335511719076 12.786408157526466
Zn 11.640411814884782 15.739432454117583 8.82456614705853
