40
Energy = -27.40045481 eV
Zn 14.005188515708763 11.487442097776288 10.21277545012168
Zn 14.770904256614518 8.860368156535278 9.982843753120658
Zn 13.227637438584072 9.950510185235489 8.256217085271372
Zn 13.498577300520557 12.284749005747038 12.708552363938654
Zn 12.205658372666043 8.055951486279614 6.80928445133231
Zn 14.634343645000635 10.045382908833119 12.290811118975443
Zn 13.27838743689779 7.943798163695752 11.893681552257625
Zn 10.211437709225931 11.744057231048876 9.695833996196669
Zn 11.2109629836347 10.67986628769658 6.677743223352989
Zn 11.913791968144423 9.96949862498443 10.720081214475478
Zn 12.256136594395729 13.362147792748319 10.673608048983148
Zn 12.644269969570907 7.453356784119049 9.3322923851752
Zn 12.248494644873274 12.377577455110373 14.916546393808547
Zn 12.28017011211908 9.865831798118968 13.463385225148754
Zn 10.672343525611481 11.648530631517213 12.233820849084701
Zn 10.34552874414451 9.267116088923945 8.84345808289426
Zn 11.862972567349818 14.269457750134087 13.226198623367623
Zn 10.078811826574885 8.567744937356467 5.624692089348164
Zn 12.329124584039564 12.36387600807956 8.242028884065482
Zn 10.49141302447666 6.578318856709749 7.92988622086949
Zn 10.829831202186966 7.560440604722202 11.258283224087183
Zn 8.645195204593993 10.35063565079885 6.820325952307496
Zn 8.295847966260547 7.701285364216613 7.197072692252636
Zn 8.643988797645715 6.977884501013789 9.68534626832846
Zn 9.713162781761293 12.826101643417681 7.170114747995713
Zn 9.84337845054159 8.994005835681396 13.58516828941677
Zn 9.256592426303232 9.740707745705876 11.13029371957021
Zn 8.238925194299355 12.735170235332346 11.233008773061536
Zn 11.023819042230265 14.54935557774682 8.728198336198135
Zn 10.006403133567998 14.577237751033737 11.501610947341
Zn 9.5052037685286 13.558145264366646 13.954414248307677
Zn 8.528785016086026 7.177500516711475 12.276593643676627
Zn 10.122399685224947 11.18167394383141 15.065806679240588
Zn 6.549579494559888 8.09829921669202 11.014537084507454
Zn 7.735525264483779 11.938163782038734 8.733406560104363
Zn 7.532648801018154 9.435950788098605 9.037770787296283
Zn 8.133315831557601 11.39239164425966 13.457330042106957
Zn 7.192514215875256 9.038603855349578 13.384798881330507
Zn 8.635999498897347 14.31257528183424 9.208726870146304
Zn 6.79667738048092 10.659262651395794 11.261560723612813
