43
Energy = -29.51841406 eV
Zn 7.659461328064877 10.912945286928938 6.417798854190758
Zn 8.183772712028027 8.538385077975136 7.249594692139138
Zn 10.1435807576982 10.244145256554702 6.5877982009936344
Zn 9.320655397793367 12.706237643932978 7.0938450378931845
Zn 12.591698635031332 9.573463400553738 7.246472311442652
Zn 10.616930877051225 7.805646489402715 7.395784722806202
Zn 6.9796222160702515 12.441170315990032 8.417348635572166
Zn 12.970547680159243 7.21564428699418 8.204524975942109
Zn 6.12447127564667 9.767123709425304 8.100013084484948
Zn 12.074106112814937 12.119639877181568 6.640879220063557
Zn 11.00647210951346 11.289847324269214 8.96403771308688
Zn 8.941058381420898 7.314060304338346 9.4693940564681
Zn 13.810604062772939 11.466171648474608 8.56538295927972
Zn 6.708077975225701 8.473954191357812 10.280781275400365
Zn 11.274232353030833 14.028870753741638 8.104658689275462
Zn 8.756243958619589 14.158786803760124 9.164372523224579
Zn 11.230115033975249 8.812156360783675 9.880912948507254
Zn 8.685194307295783 10.287653239456322 9.300621779484917
Zn 14.056931041499158 9.038352895472272 9.514028939756312
Zn 11.107920088842965 5.883578239145264 9.272406940607773
Zn 5.869038618220608 10.981787015873774 10.263870900290762
Zn 11.613503403001697 10.412912032221529 11.774943664987482
Zn 10.893759014008657 14.999271092604761 10.37202465464811
Zn 12.482602735061773 12.949625515579424 10.404028903543502
Zn 9.69104992522795 12.06481979542248 10.975618886833727
Zn 12.266186848053845 7.4834942295720275 13.063344802795353
Zn 9.300443622591466 9.195591809465647 11.59916996806715
Zn 13.330866940534994 12.558881039786645 12.886699240588802
Zn 14.275499464427346 11.0033568117294 11.12626336377908
Zn 8.781583891695657 14.689048213132917 11.774766031953742
Zn 6.960448216185941 13.166545438311365 10.991438276936067
Zn 10.510838278541032 6.114547909188462 11.672922584112401
Zn 7.968523135573065 6.827835042830955 11.864435655129979
Zn 13.071599408780374 6.734233720543662 10.750881659627087
Zn 14.335197808068814 8.563259869868837 12.012622388430403
Zn 8.805713473497915 12.712430213688664 13.445668090206704
Zn 7.416825591170401 10.893526137279515 12.214837828669435
Zn 11.382121638458525 9.197745868070959 14.687571371430426
Zn 11.109268368280592 13.79648195453807 12.598752273741232
Zn 11.231297895398285 11.708027437097128 14.160079519799453
Zn 9.748606806901572 7.5237934666670885 13.650899254411348
Zn 13.565473861981491 10.1588455724901 13.811582894069181
Zn 9.140534319608262 10.17878627812265 14.01959979515415
