47
Energy = -32.51940005 eV
Zn 9.769995942965489 8.110203451350147 13.961543104704473
Zn 10.88806607980123 7.6054094378544335 11.630403445484767
Zn 8.323239465408589 7.697958515140509 11.737128310236747
Zn 13.327618017487806 8.167144560441344 11.44141862114444
Zn 14.692899020448825 7.751559109336449 13.504017916645838
Zn 13.588820519528891 8.746827223461462 15.471456047972293
Zn 11.196844831792301 9.406115920578596 15.781764146872327
Zn 12.212277811556964 7.1676172582922835 13.923633716977614
Zn 7.5928975364400335 9.5292372334734 13.230548728994176
Zn 9.553411210954586 8.766040828880856 9.675421911978747
Zn 9.42376183529225 10.744138919436063 14.428352923272843
Zn 12.117691868726551 8.924162347623877 9.373039044474575
Zn 10.151963782617187 10.4741442707324 11.667089727836863
Zn 14.690968816655054 10.013965757576372 9.190959765153076
Zn 7.436908737559784 10.052696200650482 10.760263096636235
Zn 15.544598800693079 9.422387900829015 11.495998007035025
Zn 10.835233774022313 12.11271943308096 16.039167641971346
Zn 14.98070006247555 10.32433925294641 13.841003557752732
Zn 12.738341101063622 10.996913553210547 11.027563803808489
Zn 13.114718312714185 11.317672219847331 15.306571788492862
Zn 12.127206611312987 9.868541770062794 13.226791607812231
Zn 7.981601185084755 11.988897796293903 12.59140917014753
Zn 10.597085406267908 9.410412308447944 7.324319861831953
Zn 14.098265143108092 12.57211359810257 12.942697733233379
Zn 11.259672050311766 12.355220239173692 13.058333437016262
Zn 8.177321380220846 10.603394447271874 8.40394003551572
Zn 9.048496051825316 13.38081353299906 14.425472289909994
Zn 13.086405934947479 10.490805152747562 7.351167563439143
Zn 10.61382006872267 14.661790733895913 15.9961025041931
Zn 10.831886670830869 11.374935378910905 9.232045194533539
Zn 15.440335244622574 11.904221151924917 10.821599672508068
Zn 8.528148158543745 12.60205821811395 10.099664476111453
Zn 8.807490710908537 10.783444511741038 5.967063549570645
Zn 12.717435437513705 13.793246679123076 14.798915432695235
Zn 11.837258475450248 13.344982744291153 10.62017860431567
Zn 9.259832905896623 14.283307297647179 11.887419312766013
Zn 13.949858214973029 12.588010827406517 8.715158745468365
Zn 11.212618419972362 11.524260261218503 5.987675490824295
Zn 10.768261395478156 15.419893377537822 13.603832543268023
Zn 13.092133011434832 14.935987960751334 12.465495926118733
Zn 9.189435525487712 12.87903869603419 7.548068459250429
Zn 11.706784727810266 13.331707421091275 7.655105378110927
Zn 9.910706522698451 14.72775527896524 9.181194258346443
Zn 14.714863977094822 14.33983069505986 10.50469576624587
Zn 11.094582875753655 16.02737734090509 11.083074946379341
Zn 12.723617795665492 15.214991131919007 8.891566392491786
Zn 13.536376368812288 16.752911292608527 10.621571044802494
