44
Energy = -30.08438264 eV
Zn 8.936481549428825 13.252913621037244 13.31078033652444
Zn 10.683666535691275 15.642367390180262 10.440617409902623
Zn 5.484163983566418 10.818547649854553 11.89636717614216
Zn 8.52685529333029 15.016288351978579 11.55469915238016
Zn 9.363601922564953 13.680633878826946 9.500229059944802
Zn 7.716568158570393 10.919712986050037 13.021868816604476
Zn 10.835203450967212 15.168393411787715 12.959908301958777
Zn 12.990445269253163 15.027620159036978 11.082963697367548
Zn 7.262381883544623 12.809058367176231 11.083087168915434
Zn 11.26300713372479 13.304384176052757 14.659206631793037
Zn 9.102206634759444 10.938740741359231 10.698162039444785
Zn 6.217142030731938 10.915671280350598 9.542304463025205
Zn 10.957905536084088 11.57770117169972 8.901444494685876
Zn 12.024958043820225 13.946818394372748 8.971010430933633
Zn 10.273927159972859 11.059272919078355 13.683745608279526
Zn 10.699661348889203 8.890969985755545 8.360904148111322
Zn 11.005130709898635 12.795468883006755 11.565346216375808
Zn 13.705120154960696 13.0100127214572 15.730902448363688
Zn 7.180620820684062 8.979737592786975 11.27821009313308
Zn 9.126758512586576 8.758733774924758 12.996122565840961
Zn 8.141258023632908 11.889062397054225 8.260267876716343
Zn 12.96126477813742 11.563084137171495 13.025056386325742
Zn 13.395050747475079 14.364903197823429 13.531443215626048
Zn 8.060612598292177 9.22144228354714 8.753389634366792
Zn 11.415243165952708 10.201355465893808 11.403900297606004
Zn 9.487166407564867 10.394657008994217 6.73049156174867
Zn 13.222197297263161 12.02498419874468 10.570708365876744
Zn 13.686482498538801 12.511124679986214 7.661847061593615
Zn 15.152653439146356 13.769631930061752 9.344712566844237
Zn 12.251193624110533 10.896823255507673 15.505790059311408
Zn 9.527955923325779 8.050750138702806 10.463098253027646
Zn 11.417763277404879 8.78799069094907 14.312588407420204
Zn 15.291122943502424 14.234082314044718 11.780051002169598
Zn 13.121970723982654 10.091863681204376 8.506211252033575
Zn 15.393503024175676 12.613376044743404 13.685346362061122
Zn 11.156321216555469 7.297790090623271 12.245506196436624
Zn 15.870780500080672 11.794542023297762 11.195399213605013
Zn 13.900838569936447 8.896105837098238 14.930461654829227
Zn 12.499175874415503 8.122280349847195 10.073974866594842
Zn 15.599901782984704 11.196032736187755 8.646080490098303
Zn 13.418950995576113 8.484150062293613 12.444230977758048
Zn 14.725295379032023 9.591032550716013 10.520047040887095
Zn 15.361969325885026 10.088302666783378 13.095922158496641
Zn 15.101989112745615 10.918052164696544 15.59206220158628
