48
Energy = -33.41697334 eV
Zn 16.511819979447303 13.063908969429791 14.012843103316504
Zn 15.908985451930763 12.65556975102814 11.106568758165263
Zn 15.394872503316892 11.080235512752996 9.194820823328044
Zn 16.11097837317179 10.834506279112404 13.069489723962503
Zn 14.403392643109683 14.196271746086161 14.789581913720207
Zn 15.49826927252019 14.893895708807623 12.560915635043726
Zn 14.373324272702307 11.581085424110483 15.052926665538337
Zn 15.391647298900056 9.348774518823907 11.222144556418469
Zn 14.347816234476944 8.645168508333617 9.055832033903783
Zn 13.714255790139594 12.533585464050354 12.534213831193082
Zn 13.644459272891488 12.960596675696996 8.589970600121685
Zn 13.674279429380448 10.382083187115517 7.390540446836161
Zn 13.643785001288153 9.73692633782157 13.149419560197279
Zn 12.07822560097281 13.161155594122048 14.783610087567288
Zn 14.237513912196967 14.65632249774694 10.403198108892376
Zn 13.055965355012498 10.988347133572207 10.648232106881732
Zn 12.887815762594403 15.141437812055052 12.800050530457623
Zn 11.354214530558806 8.537898561611934 13.287154113851896
Zn 12.946518258828645 8.060040876749463 11.128328535664773
Zn 11.428743622178901 11.594416206643233 12.725253678376424
Zn 12.080350854692208 10.343471478928967 15.16297279781289
Zn 11.831514095316727 8.786709281188703 8.787441711152631
Zn 11.825603287660911 13.693489643554951 10.643417935387934
Zn 11.199321164921315 11.461200412252367 9.010466165725287
Zn 12.289089922143715 12.318718954315184 6.423634801468484
Zn 9.522698511558263 9.306707398650708 15.011242801443899
Zn 10.673265120930589 9.760581785467547 10.89377692823482
Zn 10.621647581121062 6.88051628634471 11.261993254034358
Zn 10.485565670001852 14.416562798715287 12.930588175362466
Zn 11.312381297559252 9.78012864447242 6.432211344277395
Zn 8.851392988465694 7.787984842111737 12.885993134077983
Zn 8.772616006610184 12.494216708261408 8.350627651419567
Zn 9.993931103421449 11.804641166601101 15.40589969872809
Zn 9.392883539659048 14.780684871684711 9.652751423442284
Zn 9.643144065148386 12.330919520801295 10.970486479254681
Zn 9.103494335455089 10.59447462918597 12.734597979693447
Zn 11.05113680400443 13.92093570748887 8.010701957175284
Zn 9.34763411510521 9.4846015430052 8.047971010796354
Zn 9.802780459655171 11.731298716534667 6.1848317246256395
Zn 8.144203369831944 14.510611424274071 11.830459545759465
Zn 6.935156682019874 8.781544329750174 14.433705015177354
Zn 8.631186527854432 8.147695931219523 10.24159881341096
Zn 7.424189496561873 11.116142244526348 15.020073159324783
Zn 7.8060824248894125 10.543092099345916 9.85493175245908
Zn 8.478688777312163 13.17289034918013 13.917955771617537
Zn 7.007742487814878 13.022956640372223 10.14751451398352
Zn 6.602176308670305 11.960145762374012 12.480735626964645
Zn 6.896928632085447 9.380654008958794 11.964481531865843
