45
Energy = -30.59767566 eV
Zn 9.65269297173761 9.264674759857861 7.558021817718047
Zn 11.863516152019413 10.546075072816778 7.310131160350874
Zn 14.17462039770555 11.042927229475755 8.102856930709034
Zn 12.007864925490056 8.120881739205418 8.007124284174838
Zn 7.467758062909907 10.671674316893943 8.127191247639034
Zn 7.59967333842155 7.917462324988622 8.259640819320557
Zn 12.301799394985098 12.828159862761545 8.633358754975417
Zn 14.107745891147454 8.732716045988752 9.15750784527459
Zn 7.831951371180604 13.179197335396811 9.291595575362223
Zn 10.308184775156862 14.357315367819366 9.412974042063091
Zn 9.857668973520264 7.3756067832262096 9.392787196984603
Zn 14.952156577527056 13.277551099434696 9.234855423872437
Zn 15.461221187787903 10.764192612588898 10.279640492692245
Zn 5.802327073828348 8.947757702523234 9.648385250480892
Zn 9.945483177779243 11.8686379788836 8.462303673014334
Zn 11.937070421137932 10.443183062896221 10.093976670555856
Zn 12.880155136531634 14.97991108837538 9.952987211474653
Zn 12.07042156442416 7.864525255487814 10.685900181322033
Zn 5.97121719483731 11.461670052369067 10.085548344868824
Zn 16.36235139688566 12.876427750588316 11.39159998156608
Zn 9.04743419695992 10.132788856613303 10.19417435542724
Zn 10.567584786350771 12.311054762868714 11.157228558816058
Zn 13.229870462500145 12.553803465044762 11.162982156307887
Zn 8.47507146774389 14.69668028947314 11.237658329860388
Zn 7.76906351198642 7.776714727075699 10.891556307359524
Zn 6.723615366600303 9.885972644956988 12.034700428917839
Zn 7.854686614371859 12.203287453045668 11.747421523191887
Zn 15.301218058970957 15.071736393701068 11.13988353625904
Zn 9.979283607892647 7.147761817216738 12.054286720415462
Zn 10.804899050535106 15.205155342314043 11.936197534644942
Zn 10.349543098981037 9.844325032181354 12.234150824333366
Zn 12.510466039064234 10.870792357973906 12.848613078521621
Zn 12.190553760614025 8.12435469310797 13.368102089717995
Zn 13.230009853546788 15.558696612434714 12.421341373102779
Zn 9.439885277845038 13.4075262488232 13.33985341176338
Zn 14.037685849644687 9.059949986277369 11.725465799030856
Zn 15.200797827244674 11.070671338580855 12.871852736903836
Zn 8.12861455085753 8.223558728513098 13.456548341926592
Zn 14.722693819959417 13.632240286173353 13.340229338716279
Zn 12.074295630691177 13.557336277834713 13.619448226354521
Zn 8.418363368234093 10.80236828627394 13.879439955395982
Zn 10.174335915215135 8.933886294722079 14.866105709214233
Zn 10.692398540671402 11.579703799106454 14.73838570969201
Zn 13.801449265445557 11.86863251114325 14.988951047653803
Zn 12.496953923444654 9.737108183350234 15.433689832436091
