46
Energy = -33.51389579 eV
Zn 10.661178044735475 7.343662289098514 14.151542911950612
Zn 9.546412145489523 6.543791723672744 12.120317484650226
Zn 12.29857661828434 6.96826080443649 12.039671485100937
Zn 8.384671509320656 8.65223612073062 13.08201289276246
Zn 12.726765266405653 8.71191233482668 14.099894065023307
Zn 10.618332253719087 7.039746900336632 9.943555815937806
Zn 10.264810188278434 9.79083056693891 14.616502002563754
Zn 8.348105210587386 8.201772976863056 10.540429371553136
Zn 14.10841386536403 8.830365929543753 11.850194402119143
Zn 11.06843581905685 9.380314829163133 11.894810908495502
Zn 12.435182126304316 11.116878515746619 15.14746327740455
Zn 14.486258360836084 10.428320472524266 13.866858022932695
Zn 13.02813502473392 7.855941184693259 9.64394444999392
Zn 8.78831912037821 8.052700489479497 8.081954326677247
Zn 6.9503425023004315 10.09749409177638 11.272125310786002
Zn 12.032585974095594 11.728130772183425 12.550590308355455
Zn 7.840365307849097 10.81791921132948 14.294901486658592
Zn 14.970291239857888 9.562845869434636 9.45553545787911
Zn 10.322235802565968 10.222800338918875 9.622049393753406
Zn 8.070425060340241 13.342425315064263 14.080200770201088
Zn 11.211612216082461 7.722146384465964 7.623058751982553
Zn 10.13256185902305 12.280670414875358 15.070492803912535
Zn 15.263684919489798 11.204294436452981 11.664502511269038
Zn 14.326182156327329 12.927929302175276 13.464174859001666
Zn 12.798438724027639 9.537590573422602 7.576854679585954
Zn 6.606288922694322 12.29111722726669 12.349155962317377
Zn 12.299726260564698 13.692437372371842 14.823146116891186
Zn 7.7089040978695795 10.232856614166229 8.663002121671425
Zn 9.420152782025266 11.493218724312579 11.999501181216782
Zn 12.750177245386405 10.990998555993741 10.179172729985869
Zn 10.012103288557704 10.017674827307191 6.914798433089169
Zn 15.539148851769584 12.133861303640517 9.391623803202148
Zn 8.289460268217976 14.13032821757642 11.643694921451965
Zn 14.112558079957205 13.509359026771772 10.962218050237878
Zn 10.224657579092458 14.434952108205128 13.406793034673797
Zn 14.344846565296958 11.39240641282383 7.369121012997722
Zn 10.842923188906758 12.828234134514041 10.341872816494513
Zn 12.560470473198622 14.811197880797193 12.462495638817785
Zn 7.4712557492983604 12.396129773597625 9.898679371091047
Zn 9.167823335714631 12.285191434257328 7.864038519732352
Zn 11.71289373668784 11.873888709241202 7.30423755512945
Zn 8.837130435769408 14.470771013155337 9.210743155911144
Zn 13.424674015372782 13.500855431659403 8.4344756801575
Zn 12.500553676779978 15.354918504083955 9.872460462292617
Zn 10.31885475570976 15.543757541893346 11.065327667182776
Zn 10.987772936215302 14.279187189116476 7.93951605451419
