46
Energy = -31.67513768 eV
Zn 10.5157249071353 7.816282364922238 14.681897720483125
Zn 13.010576557372422 8.170039670494573 14.221653117984612
Zn 11.385731544210714 9.580437374671385 16.217203970460947
Zn 11.450813964199456 6.827413336308924 12.490255295201868
Zn 9.09260153451555 8.05225859866501 12.617068051977176
Zn 9.145569075994116 9.975013022313345 14.696777315717874
Zn 13.527760921816832 10.593406472090301 15.414877223328988
Zn 11.860409932961504 10.267338459088943 13.181994761304564
Zn 13.985082642989234 7.346025933202905 11.959167488870008
Zn 14.639448041677245 9.882506684980383 13.124335767830305
Zn 11.135633253402556 11.869430034059244 15.168519320554358
Zn 12.321812021859177 6.1361359642309825 10.171551772532029
Zn 9.991333937519006 7.174316052933841 10.27234070527226
Zn 8.146607219103434 9.118397494020195 10.35196055703663
Zn 7.250035004475904 10.486676350753013 12.806895930398055
Zn 9.737857692240565 10.477077929553518 11.954602766689055
Zn 12.05281324520498 9.127093859318272 10.891996810782693
Zn 8.779834804667 12.439322664908953 13.981667824875327
Zn 13.720128251786308 12.352404295493185 13.505465128463358
Zn 15.345267980577177 9.151996121273587 10.794411763827323
Zn 14.083772458088296 7.5784550324175886 9.272716852924896
Zn 9.022119454516547 8.039138418119398 8.103743630376718
Zn 6.6511342093771875 11.2483993629799 10.380892504278615
Zn 6.761146277561935 12.999701330929648 12.320924765644648
Zn 11.132994012490952 13.246536445460897 13.0119109615867
Zn 11.733849827039508 8.316652739139364 8.304703736174002
Zn 13.83030675761661 10.080576707653256 8.877006690343327
Zn 8.966218851012277 12.511190426268726 10.832391280898573
Zn 7.8921641139427825 10.374505840115921 8.087815176961266
Zn 11.973974106810356 11.694152382912678 11.029219929306748
Zn 14.759835822545497 11.607787319701401 11.134570408055406
Zn 10.081181779587572 9.632997612043447 6.526429921169373
Zn 10.341588539274072 10.43922354672877 9.365091123650203
Zn 8.797397268207787 14.614469376565912 12.508081270842531
Zn 10.783350838565672 12.975040120107668 9.243653628373002
Zn 13.505893895549082 13.97203527018504 11.541616050657387
Zn 7.606717919759791 12.901618323524271 8.548309888122096
Zn 8.649956636104127 14.951650975288556 9.895044697945103
Zn 10.990163439448743 14.90261348851512 11.106859227454626
Zn 12.025935882556507 11.149375678624374 7.405509211614238
Zn 13.56691086000655 12.60687770278873 8.970724319285722
Zn 9.680536257104379 12.097976722792732 6.916000969151827
Zn 9.130492135043252 14.567084536179964 7.329691952891589
Zn 10.67371475947225 16.028921052003582 8.65632458042178
Zn 11.738951321867319 13.97500710706547 7.123338936521105
Zn 12.954179071614773 15.030395128276387 9.290760754970389
