49
Energy = -34.37552019 eV
Zn 15.092398874769957 14.52778493708615 9.725181184413257
Zn 16.12461153812105 12.475750718668957 10.857487506598433
Zn 14.494657013404348 14.227901736853836 12.193496341851487
Zn 15.364744120712144 12.090176586206944 13.417971919738228
Zn 14.002159324440104 13.86334793462674 14.706377954607408
Zn 14.037472264638083 11.671506486408216 15.972327303737663
Zn 11.562497580634425 13.544660156894725 15.584836346370613
Zn 11.897999207358895 13.398505922850557 10.458293635399615
Zn 11.933516532807266 11.818943550944201 17.499221200968453
Zn 15.667002316114344 9.96022095801173 11.940701858390991
Zn 15.44463676416271 10.476267518235966 9.48540033168964
Zn 13.983111594973876 12.440586221874021 8.886924008137093
Zn 11.976799201964258 14.08104404021395 13.008151044597078
Zn 13.419205827131393 11.597741977637709 11.56271814094895
Zn 14.32148376079451 9.775336131174356 14.163887988061067
Zn 10.832875305938838 15.826586118588445 10.220129404624362
Zn 9.30369496214537 13.47695748655261 14.326011891424535
Zn 12.303200147094909 11.471433926702801 13.905366676087052
Zn 12.080933378636662 9.72316193767976 16.083180173649463
Zn 9.652862496288023 14.979016948829775 12.2960646821994
Zn 13.394109331362888 10.134265684023436 7.818555178277759
Zn 12.858398715708597 14.743635978042201 8.174227458362829
Zn 13.28939413050976 16.037460977051015 10.500932615428084
Zn 10.01745151710546 11.358710975733064 15.557184673459686
Zn 11.929087810249866 12.292557093785868 7.3364449859508385
Zn 14.192807926783601 7.832861868699553 12.508399225412889
Zn 12.348162690843475 7.870993097013186 14.501665921471634
Zn 10.288471400132892 14.243657919522013 8.18609629089356
Zn 9.962411232867623 9.094897276824792 14.282802520589325
Zn 13.507056104237938 8.922400476918602 10.11913064221807
Zn 11.94464136079009 9.494172344711957 12.284259708518654
Zn 8.255024737816386 11.000584475476597 13.626228674288154
Zn 10.467129754157238 11.830490074920514 12.28913049901158
Zn 11.428440031364607 10.816800064973865 10.004633736953544
Zn 7.7476366084113035 13.223391987880717 12.291586216266861
Zn 9.405418289509681 12.470575733718485 10.09691077476333
Zn 10.890754737961743 9.669688384869707 7.561529559937911
Zn 8.37829053419026 14.976874266514077 10.099321071218466
Zn 9.380280917391735 11.785601971598615 7.541668449977745
Zn 12.509138155089714 5.778086496061458 13.155610572371216
Zn 7.691594492885796 13.753362284391343 7.948462507500201
Zn 12.381249316366063 6.793498288337903 10.872590856809358
Zn 10.372083288581557 7.190237278119971 12.538161991659841
Zn 9.240008801904358 9.374379029246292 11.689171494331474
Zn 10.686406331145564 8.179030696796321 9.721000710066553
Zn 7.308118680476471 10.972639360220391 11.089248170360197
Zn 6.388058448814445 13.252211500690702 10.099477474368793
Zn 8.788973744038124 9.800632895856324 9.171347354079245
Zn 6.854893280223703 11.341845116900696 8.481173632036741
