41
Energy = -27.54720217 eV
Zn 9.404901022465818 13.616932384475977 10.921926891457435
Zn 7.735856264277538 8.953443024807752 9.989901291129305
Zn 12.002521393355389 9.20052999005262 12.884726218844836
Zn 6.50571489411093 10.45755098858839 11.920721610280644
Zn 11.64956246734068 14.246658709004047 9.350979032457909
Zn 9.453168616870451 8.140891683301527 13.991826220053024
Zn 9.636899360947899 7.403344856132923 9.055452498090165
Zn 13.875875564383644 11.079189832530975 12.484129174180767
Zn 13.633113836391935 13.29052957619323 11.040957890938083
Zn 7.882362151861588 10.454084366629194 14.111629323003857
Zn 12.828881134510318 9.70655608133105 6.621795341873137
Zn 14.81499730727027 11.25131466992254 9.975556806464144
Zn 7.985424895481543 11.628047698537985 10.155510680220408
Zn 13.27446333762105 9.263596895089162 10.679694290087552
Zn 11.362686196916828 7.473387094014268 11.11536833065636
Zn 9.850483189800507 12.448786385897277 8.610360894444144
Zn 9.890093446623661 10.56777506858381 15.75987342202786
Zn 12.6813881646186 13.151283282196061 13.518738427944692
Zn 14.574847438335397 9.076902177613011 8.47659300787117
Zn 11.589626941842317 14.683432806572023 11.830834596683614
Zn 12.254312803467775 7.956903348760343 8.497132744782412
Zn 12.313982346928888 11.289019379294999 8.711941581182481
Zn 8.569283740640024 10.225856331935082 7.867691666610836
Zn 13.867001812120343 13.370156718038908 8.304293505376299
Zn 8.898285783341567 7.1319853567216285 11.462790130148116
Zn 9.766176336682229 14.202519033727114 13.512615036786737
Zn 10.593114827176636 11.273024788414663 6.371407352419512
Zn 11.506020061434922 8.655079439479408 15.382523218264435
Zn 9.491261225647529 9.801902510485181 11.85022200976738
Zn 7.077842734436419 8.228706011393864 12.903484518800541
Zn 10.376828548590076 8.704722269529586 6.812116552846044
Zn 14.979260998462161 11.266202192509647 7.29688511649506
Zn 12.533511557580335 10.944014258183923 14.829972283079973
Zn 13.068413832984227 12.26684446615528 5.990504750848633
Zn 11.428466960136204 11.667580924379827 11.04008404893808
Zn 10.588436237102341 9.795237397341369 9.586442301906999
Zn 7.649921733561036 12.669264293204677 12.722613623271334
Zn 11.295547383421557 13.761412880183846 6.84762971155511
Zn 10.954113377486443 12.934565665362019 15.63363819253032
Zn 10.360921965364648 11.541110731828475 13.24346109601914
Zn 8.438970277446689 12.80715273110011 15.178397957378989
