48
Energy = -35.04755429 eV
Zn 16.762868522523434 9.67616517385341 14.363849036876841
Zn 15.770487440801057 10.419446215759898 11.349742082436483
Zn 15.849226610389412 11.849085997440236 13.534707931123675
Zn 15.092000810550244 13.018054071770846 11.332834211193754
Zn 14.89094993959052 8.070240742136427 14.110483738541665
Zn 14.398933377603782 13.915593838143014 13.749021726978608
Zn 13.520918057733873 15.100752721166995 11.187428718051564
Zn 15.269002828686258 11.541673534054489 9.182641681615676
Zn 12.541656608055762 15.600388182229675 13.484803709816468
Zn 13.638500933865322 10.39902963199538 12.82875286221095
Zn 14.479692344065393 8.228077853396643 11.385340521832271
Zn 14.042825274879636 13.75046326787702 9.086236693737348
Zn 13.705469269334252 11.662118658708593 15.092215449302532
Zn 10.907373656240342 15.594644099061329 11.463302857051636
Zn 13.252650874780837 11.30433034113061 7.669961246152395
Zn 12.369423626484696 12.756795791629624 12.387583372170482
Zn 11.907259214385139 15.383365426122097 9.102172053933812
Zn 12.036957195717754 13.55758448177622 15.082322478182576
Zn 12.392472041178252 7.799436489185926 12.890754155273516
Zn 14.139208818582516 9.19660379253136 8.963615238397832
Zn 12.758956098203022 11.002004168717262 10.44182342723505
Zn 8.349487019449708 15.090480655362384 12.100511023400058
Zn 10.16431976995914 14.852440926556474 13.835381756440757
Zn 12.400221194032552 13.632843589499883 7.213980352685879
Zn 9.114635725952262 14.954861053863896 9.701920865326613
Zn 11.166020337235265 12.995443322379355 10.025601984717344
Zn 12.850882268049476 9.19323699812179 15.114231896577666
Zn 7.591899975831538 13.02594245933762 13.562714064192987
Zn 9.535258687942937 12.923940049028392 15.240366857777683
Zn 12.260071267418722 7.890447350340813 10.193444035440123
Zn 10.149824774211893 10.575598370074967 10.312624118466562
Zn 10.675563447366033 11.640238942725729 7.415618375953475
Zn 11.166784535517635 11.040084077278483 15.569759561078765
Zn 11.648953214679997 9.319891910285106 8.003213444164949
Zn 9.824097300126281 12.43789028446377 12.254919677919757
Zn 11.070477106142237 10.181660532288582 12.642802527927914
Zn 10.04083815061744 14.271033067957205 7.4652815031152135
Zn 8.579730265855888 12.57438597329276 8.711176063673525
Zn 10.425235694024947 8.516098488780477 14.71437571499763
Zn 7.356597411484643 13.049877818517217 10.907551159912943
Zn 10.181974712559146 7.594310467640119 11.684893988572334
Zn 7.349126732869824 10.763960489160215 12.274715171485354
Zn 8.858204365254394 9.929658263046582 8.078240178660845
Zn 9.92585024049651 7.826930339138613 9.136583912937391
Zn 8.073800018523137 8.754666647398825 10.638548396396434
Zn 8.695412095527665 10.670643222439475 14.57318833174894
Zn 7.035821679581919 10.812887608318908 9.68661554652294
Zn 8.45838692746838 8.637046643324766 13.14421386001096
