46
Energy = -33.59560917 eV
Zn 6.613893060154601 11.075063419986021 9.350949160685811
Zn 10.945754734417209 10.597922879520842 6.645478180855938
Zn 9.67050535820935 8.402004290098501 7.720622358910163
Zn 8.43593084659683 10.641136153601003 7.548695385105228
Zn 6.832615859112036 10.251014839774738 11.760408802397304
Zn 7.315644633120845 8.682610695921632 9.39862799334724
Zn 7.174359330430156 12.881844534470128 11.074968753775304
Zn 9.796451043310455 12.815553070406171 6.974334675862558
Zn 7.875918612465441 13.131925497986801 8.515268809159398
Zn 9.054734986017476 6.911186072464008 9.752058866000676
Zn 12.180640557616396 8.480429520177067 7.2259822572248265
Zn 13.705013160940291 10.530390663175366 7.359721479459259
Zn 9.502817348409836 9.95464200152958 10.03314874169993
Zn 11.532870938859693 7.281366571314687 9.347610365008059
Zn 10.597190379680177 14.754168130406166 8.547281521462175
Zn 11.853729784170861 10.593440561132317 9.251693234968664
Zn 8.169938515628102 9.858739087427596 13.993268894187413
Zn 7.15053365928007 12.181751568783246 13.533839044373662
Zn 8.148239026808573 8.052294030113252 11.904956456486236
Zn 8.609750485647265 14.863380869740457 10.263672316783435
Zn 10.347999665194555 12.526380232315528 9.902387527135486
Zn 12.244321053186129 12.859460719652624 7.4477758848928195
Zn 10.895949714192113 15.021466964602503 11.28276825913686
Zn 10.57778985896541 6.788749902216877 11.795936718534326
Zn 10.903574979829326 9.459458344019804 12.135989751976883
Zn 8.804067889206058 14.14895823444826 12.762112386710074
Zn 12.88888430602643 14.352973594982776 9.682686774959658
Zn 13.93980137748711 8.37138104001739 9.102013989445679
Zn 9.47131327559602 11.56827011311858 12.118022021261863
Zn 13.128952016251707 7.059503692954508 11.320537720481079
Zn 12.029717454815039 12.020791367450235 11.848265169358692
Zn 9.592529932105805 7.756730366824569 13.969625698024183
Zn 9.377532271820721 12.29249907803879 14.751410234496085
Zn 14.406214534906233 12.596175442506585 8.658661141053793
Zn 13.258855950454654 9.791616948587828 11.206306924565075
Zn 11.190126100224228 14.066380636934634 13.697216408320097
Zn 10.614321999992297 9.897731963288267 14.959339898861872
Zn 13.219378688446744 14.73604144022042 12.222158232087232
Zn 12.14477818283115 7.7750748715503475 13.84914428389128
Zn 13.216699275922554 10.166376996269337 14.352644732504764
Zn 14.506234410917983 8.38526570043029 12.998112999540039
Zn 11.845392141462613 12.115470831927631 15.129113233474643
Zn 14.655969801580012 12.862864834764103 11.134645529712925
Zn 15.25915686448557 10.515556209199834 9.8089061786655
Zn 13.832328688890312 12.72657396120241 13.700171369568508
Zn 15.254407938683434 10.840809503562312 12.606530779438971
