42
Energy = -28.64234912 eV
Zn 8.299829945950822 12.914880522699484 14.808544343149515
Zn 9.879130414971174 11.195722425724988 15.82051553154882
Zn 9.002696248411501 14.654968820752968 13.047651551018792
Zn 6.966984224630514 12.788044730968634 12.682510217751483
Zn 10.79613705214075 13.23107612811055 14.297912065625868
Zn 12.358054488450094 11.306269881010595 15.296017288096877
Zn 8.240638076016065 10.504405088080846 13.861039261674438
Zn 10.432199616185093 9.029471000806815 14.600823790218938
Zn 8.064979806864809 14.613437384940998 10.71082566075993
Zn 6.557635302966208 12.629021220458112 10.20552916218389
Zn 13.199229301678198 12.909805510031966 13.401078318290626
Zn 11.446462152088829 14.887870259229516 12.387314947926575
Zn 9.567269482289468 12.398743118662386 11.708795089888321
Zn 12.923079913837135 8.83473522738185 14.99893943095561
Zn 7.337289218066843 10.374862428885471 11.470394647110751
Zn 11.343203377876021 10.857184191362167 12.810434547797175
Zn 9.503286616689897 8.794400089028587 12.174909540945759
Zn 10.411199348380947 14.639877420735518 9.697738513286204
Zn 12.44621711873731 16.0636963699 10.369731127057403
Zn 8.755788594322516 12.807774754210131 8.821484774652115
Zn 14.494157184282924 10.583598667664779 13.759290844521438
Zn 14.489090840047924 8.066301973457518 13.15482623947979
Zn 10.524394886640314 10.504570342807225 10.222348084608507
Zn 11.959058201546263 8.07638570137109 12.593259095136546
Zn 15.279050208687178 12.067134439119897 11.821329446584548
Zn 13.067226241992664 10.233389656607107 10.960989858084202
Zn 14.019845826011618 14.482729996754086 11.578982082133475
Zn 8.647056108875727 8.570587064452265 9.794234402256
Zn 7.345637703446656 10.589312016976294 8.920711463364329
Zn 12.07912676509651 12.632106188540492 10.850667072762059
Zn 9.547510174337093 10.466216787485093 7.672511905856564
Zn 11.331603557719479 7.834720111019535 10.062242934844111
Zn 12.913776863522685 14.142245017912524 8.76520711651449
Zn 11.233510837774867 12.31445600916697 8.181009346401991
Zn 15.734727057083342 9.445024750182938 11.451509667954598
Zn 16.00070551830936 10.962055592473428 9.457248376519482
Zn 13.774173860102168 7.629510872522103 10.737229666288343
Zn 12.100115582272904 9.621882654936966 7.94738278741652
Zn 10.13016808672264 7.974940663529838 7.828153609836546
Zn 14.470262961396 9.039645005041447 8.772528171271897
Zn 15.189610870893492 13.376455673249385 9.61665930588121
Zn 13.768244677538064 11.590175074416226 8.309562146746394
