43
Energy = -29.30308614 eV
Zn 14.527884565653222 12.749658924469848 14.282368728779444
Zn 13.39399183248282 10.607335805206683 14.781789926456076
Zn 12.710695002679286 14.578501854682575 13.919906887674609
Zn 14.283481945732717 13.840149024598972 12.049407588340822
Zn 11.819367533238283 12.571872303458314 15.268281320179304
Zn 15.47336751024149 11.9987161616274 10.826058460510803
Zn 14.774658333535491 10.194916267718305 12.687540333609324
Zn 14.331675296230408 8.25157936860276 8.673607299917192
Zn 10.845083506294186 10.176235571462357 14.822421491908694
Zn 12.329325767406003 9.056850143772687 12.953524110327706
Zn 15.64628492642525 9.578817414260373 10.36222184734107
Zn 9.292726753349891 12.230103767874922 15.519005774537682
Zn 10.173984317188351 13.911111902346525 13.689868752178354
Zn 13.90222606107094 7.936114588784241 11.223667734650142
Zn 11.704359684594488 14.44457074523344 11.588490940661941
Zn 10.06852498089152 7.918407470355711 13.538216759640711
Zn 12.358654067343366 10.137537701658482 10.497695449552555
Zn 12.964087238363557 12.706951471027203 10.107386464365835
Zn 6.906908863739496 11.73969292525984 15.08622412862028
Zn 14.330085147161924 11.022123623952744 8.580058655960467
Zn 12.103373711495912 11.832928472770254 12.488377674380091
Zn 10.38760375287036 11.866348890821726 10.400400974138021
Zn 11.741314157881265 6.788324954477464 11.854615487330815
Zn 10.872746225408326 14.222179156194494 9.148098898755462
Zn 9.620460357644532 11.138449740069566 12.69800216753319
Zn 7.768549410910835 8.293375091296271 12.560113210953318
Zn 12.347075179439384 9.179194640979889 7.525282522241868
Zn 9.128525315968426 14.38594496268679 11.352763242167834
Zn 12.830711625160777 13.325490406910575 7.626931436816641
Zn 11.858694465416516 7.425541351091131 9.420513308969419
Zn 8.330956289314187 9.611424892705612 14.67474045479207
Zn 13.235225905991648 11.23014046519639 6.315586003209159
Zn 10.129147805567776 9.281890492071792 8.988442801912116
Zn 7.702901112063318 13.296494538436987 13.19860029082846
Zn 8.305468844239213 13.958647355149537 9.02202421286085
Zn 9.535354240587077 7.562450858349434 10.8527530801233
Zn 6.937415576263273 10.777796358420225 12.701142025878914
Zn 8.291903825416194 9.913767526648712 10.651878871083689
Zn 7.318155674755297 12.376842333414643 10.754397463275245
Zn 9.642571744986531 13.29842143312557 7.0210528695900525
Zn 10.51587308942709 10.870425294667355 7.012367845681853
Zn 11.48701865893529 12.829137366104383 5.383141428353363
Zn 8.49009253837021 11.397042478332532 8.532943767425083
