45
Energy = -31.33157429 eV
Zn 14.475483229647187 8.758137398463184 8.87321940792775
Zn 12.766216068059132 10.086145414928001 7.467469335165452
Zn 11.160787570924441 11.943510964694532 6.650455884097723
Zn 14.97094670436741 11.17058125997111 8.49772700333335
Zn 13.294651563943823 12.974463278947646 7.829982379859791
Zn 11.087348426549372 14.359806042410671 7.28284888355924
Zn 12.009298289910786 8.51123530234199 9.479360954240843
Zn 10.31128865285857 10.338386988052672 8.480736069248728
Zn 14.195612833143894 8.018450743686081 11.308086142889648
Zn 15.293078471099014 10.349262225647538 11.017726908756451
Zn 8.895345904854327 12.493238079441248 7.877744948180341
Zn 12.62363072033419 11.025428144202868 10.200441077427268
Zn 14.703745668564899 12.864486469396313 10.452347986858868
Zn 11.038355793709359 12.969321277716627 9.600968539494882
Zn 9.520673435342054 8.705478329085581 10.289222388379804
Zn 13.354146262234428 7.423525422992759 13.54710651184932
Zn 13.226125611417872 14.724734148021591 9.671514897093134
Zn 11.433665298315933 8.545231425861706 12.007241239995693
Zn 7.991553297015042 10.819680522993762 9.675508188327143
Zn 13.059466009306446 10.570950492865093 12.709293584852745
Zn 15.313717630034818 9.316416548453885 13.480984433296156
Zn 9.041254817800057 14.854474816653045 8.75830328560034
Zn 12.019543909845845 12.896400358712583 11.93148299221747
Zn 14.012212224410614 14.608792877159782 12.373069249429513
Zn 11.17642910800546 16.178841477174966 9.067850720604184
Zn 7.375617865174739 9.111831001442352 11.537295450635662
Zn 10.23539686898871 11.11297007902896 11.316631277073437
Zn 8.260263352540388 13.234788447056 10.57734805513883
Zn 12.973150249369237 9.338163561747052 15.297743689149877
Zn 10.99631672636292 7.873774938055133 14.494436207850597
Zn 15.152400936598369 12.268693976315996 12.970116984699347
Zn 9.205514332335916 9.333392740078446 13.351003163643911
Zn 14.704440777066692 11.184010318080784 15.193009152129433
Zn 10.051874362064574 15.03065977794557 11.204999671349325
Zn 7.759482274513208 11.475800781944407 12.392535447990817
Zn 11.045733514294245 11.40489701840367 13.87707091978982
Zn 12.280710695625407 16.290935791291513 11.455997850171789
Zn 9.45643734937902 13.377236599238811 13.111984980512492
Zn 10.312861726380254 9.820726094401744 15.920375786177434
Zn 8.370896204787979 11.431746007372828 14.858438097211526
Zn 12.330738281721299 11.666467771169641 16.27620838927761
Zn 13.357832618017104 13.368578523501519 14.571291610520847
Zn 11.56860128772217 15.106993542529397 13.563218417807215
Zn 10.936210579431282 13.965308478733451 15.657275694954276
Zn 9.742390934601843 12.168709027839972 16.823936420552627
