46
Energy = -32.01482606 eV
Zn 15.144258739415159 9.221493328385467 12.123770495522024
Zn 14.303502610350886 11.090720492709501 13.742654957259647
Zn 13.324506326916637 7.3957755829816065 12.801997140639317
Zn 13.8488155671143 7.4201406511096515 10.340699881296388
Zn 13.944812770697443 8.20403357876507 7.910825234834916
Zn 12.675260659764279 11.177259246900894 15.901749034671738
Zn 12.723518396557214 8.9945280994725 14.658009198014668
Zn 15.35277290944396 11.764304446279539 11.297159628873839
Zn 14.876061799351488 9.894683204182023 9.609896394736705
Zn 12.653380932427446 9.879955352911612 11.859486686198727
Zn 10.300015811210194 14.52130168219253 14.158763514213625
Zn 12.82670721861265 13.542735901106312 15.13956333212644
Zn 10.320909706839887 9.945434670560601 15.237702038988736
Zn 10.685593052051827 8.60756046509508 12.998085991962725
Zn 13.797138746322556 13.42407918539456 12.596818210653202
Zn 11.714473356515438 11.65013504280322 13.343528000158106
Zn 11.206228072099401 7.406568493216859 10.785242814243583
Zn 15.107937317926869 12.296428629861666 8.60076278728255
Zn 14.466960082542858 14.174533037279335 10.105164697895564
Zn 11.751934832280888 8.734112231092125 6.698313258331309
Zn 11.871045996947606 6.804885706454389 8.396675445294337
Zn 10.328387909583311 12.478121726244103 15.75103314876385
Zn 13.448490858637674 10.691503311540327 7.379145868343497
Zn 13.15879885420398 15.980687927084313 11.295164588561287
Zn 8.076298936942866 11.232860852118593 15.278693328166803
Zn 12.69500135014557 12.015272153541146 10.296485001752655
Zn 10.675622987288657 16.27944567710709 12.041503562577681
Zn 9.348957197353823 12.379974646514873 12.831470875121216
Zn 8.469738745165394 9.85371771540925 13.126973205137585
Zn 12.647920945369588 13.037152241936854 7.713780759502425
Zn 9.830788801698482 8.400525730066235 8.476721629538726
Zn 11.275036991770394 13.578954181990532 11.661502012700156
Zn 10.353188727394267 10.950859100426802 11.045816568034358
Zn 8.952890494802508 8.70577777308982 10.8625240528591
Zn 12.588206852183292 15.55615465509802 13.67001221699957
Zn 11.957519094132552 14.854868808926511 9.3415094901377
Zn 12.027370799469983 9.692336465401787 9.448053689575177
Zn 7.748824220004272 13.668874455710624 14.571947729928366
Zn 7.078691159768414 10.597328950667576 10.905064670125554
Zn 7.9562909912791016 12.957320940825666 10.571461020796315
Zn 10.742587281472908 11.032043740025557 7.341654158892595
Zn 6.70716802086454 11.84703948593249 13.096594838998495
Zn 8.638775589175697 10.692477109927994 8.877826102330713
Zn 9.441860679294077 15.115026908056345 10.177626933739864
Zn 10.213218872123173 12.833895162500351 9.09369418472379
Zn 8.291293286498655 14.965875803113734 12.38563617150601
