46
Energy = -32.10317899 eV
Zn 15.916550755355683 9.626746662083283 11.541973766146308
Zn 15.995357825042785 11.687848506431457 10.194948280819718
Zn 15.45235815883507 13.96186756886431 11.673451387631196
Zn 14.269639955077439 15.628118701687825 9.984745953817928
Zn 15.712498748165734 13.884622925767175 8.917695057780621
Zn 14.931540388633957 9.261712969898692 13.9752551488403
Zn 14.971921834181996 11.695462288538474 12.90526023484592
Zn 14.293007592605184 7.814622236461328 11.808143349108263
Zn 13.632367006357862 10.011046285195427 9.785590653473973
Zn 14.386871339169714 11.830710213104966 8.125210949507926
Zn 13.711064600327914 15.694603948940632 12.495718068645626
Zn 13.739578086135934 13.72050606760726 14.081087330942541
Zn 13.394177826647356 11.358686319344015 15.049146323690257
Zn 13.43354923543956 12.54344902434541 10.800637928799718
Zn 10.156805650542173 8.036863787120021 14.388236908122252
Zn 11.897044138853394 14.81063945177007 10.695569652100517
Zn 12.989778553513363 14.002069485801758 8.41030577865873
Zn 12.784818595810748 10.274741337352813 12.26362741144377
Zn 11.940643420160729 11.702627623492365 7.472179564330382
Zn 12.170710912104456 7.962863020210423 10.348460339780287
Zn 12.06395449408197 7.378818564763227 12.86593235400453
Zn 11.65701011222509 12.559741985255453 12.619096427234146
Zn 12.65342685619376 8.918351530220686 14.890023882294972
Zn 10.487173726739197 13.626371750295498 8.77788513794136
Zn 11.20545074006871 11.539232882542274 10.241793205324731
Zn 11.367429509848185 13.125788570235217 15.287341065198442
Zn 11.320699898513604 15.17495368931325 13.260353966827271
Zn 10.980971424095776 9.469151786843886 8.549167669822136
Zn 10.804497380738887 10.659074209003245 14.405411448080837
Zn 9.73605951943478 6.706664891541832 12.151273977175833
Zn 10.42642006277351 9.578421130869636 11.800581291948662
Zn 9.601554093025015 13.930789885374105 11.337368912722715
Zn 9.076219763372105 11.804027924816156 12.908034044963909
Zn 9.429994321249868 11.379031714913845 7.459523560445899
Zn 9.704837758397879 7.438352564917778 9.713903556518984
Zn 8.230981627484233 9.541491637304098 13.95363376504026
Zn 9.26345593864021 14.104040063290022 14.232278497566318
Zn 8.777887963295996 10.82394589291524 10.331441027097558
Zn 8.386990797735324 8.984968014478119 8.226467163089797
Zn 6.711705561400768 10.603180258464748 12.164269174840472
Zn 8.0540221247526 13.093534165382831 9.151187946352472
Zn 7.949853199276741 8.417630363194892 11.422247690629238
Zn 7.188342125503524 13.14560537061627 11.789099662720758
Zn 6.926631333819154 11.088862085334847 7.822699562129255
Zn 6.341109261937316 9.473989281182721 9.708833421829471
Zn 5.866272107116092 11.949583089438688 10.006790374135182
