40
Energy = -25.89600033 eV
Zn 13.54791981774232 10.281132139867958 7.306294605515514
Zn 11.223266241268906 9.469788168457617 5.672734619545325
Zn 12.363929938513067 11.688767795046411 5.36000564397323
Zn 11.907376621697056 8.41424260110466 8.083135352353676
Zn 14.058710936271874 9.216292877501568 9.571974965026783
Zn 13.66196675682002 13.08246558435021 7.070258491935694
Zn 10.015708520234064 7.952847671512578 9.91558035933545
Zn 9.778894575537706 11.567650644759782 5.870692330577493
Zn 11.089346811685495 7.482231017428812 12.376416570980428
Zn 13.66616368346064 11.902204604899719 9.448976099435974
Zn 11.313267981097077 11.47287972155063 8.27414114804996
Zn 13.909186494682569 10.90067681909968 11.751389334590387
Zn 9.498577467604248 9.577048309687736 7.822558102887015
Zn 13.693109106092702 8.33639504939895 12.026886767018388
Zn 11.25288480053787 13.80434895880918 6.65636054934418
Zn 12.4665969415716 7.157561584961764 10.2193597276973
Zn 11.584698741670012 10.146924684048097 10.393466903883656
Zn 7.71386597845861 9.23060108190711 9.58223137538804
Zn 8.181004120847929 7.499789161436801 11.746622877054621
Zn 11.917261144854505 9.935184232392196 13.115981326100579
Zn 9.22522255338021 11.459417678571725 9.805567331510884
Zn 8.86225989539687 13.321027926177333 7.470547195768421
Zn 10.752408197039678 13.811559123352543 9.360512780019103
Zn 12.960494423020034 13.386209398374778 11.362661674378854
Zn 6.027429054618985 8.979699252583192 11.428723703806279
Zn 11.47379658589044 8.127474542536776 15.072186017468427
Zn 9.571221253391462 9.809250394920666 11.917849085352994
Zn 10.850163505691295 12.080941331852594 12.023371564668043
Zn 9.118231293864953 7.594869208034226 14.137854500005254
Zn 12.600234204497788 10.36835981963667 15.784922996232236
Zn 10.908621951569263 15.120269491770019 11.469853923254071
Zn 13.313817004504074 12.05906209926831 13.989858893369863
Zn 7.147388726502874 11.29887399134456 11.4410630864903
Zn 8.649993243742808 13.547982129657957 11.216276723373877
Zn 12.152787031028888 14.355733436209647 13.627685750756893
Zn 7.460966354039962 9.473329500989113 13.52812670548014
Zn 9.676084696077552 10.080107823256276 14.876220926400453
Zn 8.511776431624869 11.937680951027444 13.51787082198439
Zn 10.859823784059543 12.391330121990894 14.89962886937599
Zn 9.618781307000196 14.231399901566707 13.466785399211709
