42
Energy = -28.97625131 eV
Zn 14.03338546248543 11.936784353451271 8.450575862309494
Zn 14.832056563844366 13.022362920289472 10.858921678786576
Zn 14.821683403246512 10.487532081221318 10.44967395714743
Zn 14.025545800946388 7.976067674546869 10.236345284020315
Zn 15.218785428957839 8.878553986934866 12.408266622595841
Zn 13.616759197666422 14.545681817863477 9.037932689694358
Zn 13.373932318123789 9.363265585955661 8.310973563338317
Zn 14.321629488633596 14.000986653712918 13.384215205567319
Zn 14.964410810446283 11.420678286590363 12.998732491521038
Zn 12.200198050427828 10.921810798495367 6.800385200891334
Zn 11.289359406842019 11.26251907359501 9.918090020647725
Zn 13.794734487056738 9.132931019358377 14.493379491956322
Zn 14.22278893420792 15.531642927270923 11.339428830389576
Zn 11.931464831245712 15.994826351273623 10.467095412990714
Zn 12.353469045055252 13.368148219762277 7.18144905584248
Zn 12.922616898572713 7.6694136749487924 12.459892276602975
Zn 14.686510948527266 11.159207659475781 15.666631697706471
Zn 12.288010198530635 13.14456944845449 11.427282941745657
Zn 11.448930673419166 8.533737166414097 10.44003564718908
Zn 12.58260342281486 10.452720716991355 11.98982288400726
Zn 10.583246395992528 9.388880603942562 7.951512079302933
Zn 12.423207864071044 12.181486483054595 13.912883352185402
Zn 10.911026126071944 14.08631847370713 9.134660254463283
Zn 9.994129234532407 12.158625470738944 7.4418525962980695
Zn 14.357538322972774 13.488888251936956 16.26165423939196
Zn 8.17603056505021 10.720725344370981 8.412404466489198
Zn 9.010776433070493 8.919757501108531 9.891546515823759
Zn 11.294534122530283 8.953279335503542 13.864551411234377
Zn 12.149870611683587 15.661637390151629 13.0029206545069
Zn 10.271083891822279 11.767637115358578 12.421471763045282
Zn 12.074631686673564 10.443013695989237 15.968376151637912
Zn 8.886081101136018 12.704467233845312 9.925322616171258
Zn 9.979685047555718 14.582427881058923 11.542675117695765
Zn 12.408745918083385 14.604361633137447 15.281716565884398
Zn 9.244116760827657 9.284259168555641 12.434442452511465
Zn 7.456882129788977 10.713630793917359 10.987768181731823
Zn 10.203047074275018 14.326149984426255 14.10212611289693
Zn 7.960405280867038 13.112098572465523 12.325215062385954
Zn 9.607523800150453 10.46417691385873 14.981148920775942
Zn 10.820700230402272 12.65032203102802 16.059445678583284
Zn 7.450535371107871 10.88510939770273 13.48355180326689
Zn 8.443138883378202 12.735118530629313 14.929435411862194
