40
Energy = -26.45281865 eV
Zn 7.4906107333424305 10.286687325447057 6.428878404217515
Zn 7.02786921005142 7.745090284763372 6.627512713082322
Zn 12.950584942789618 10.77064246744861 7.109008152208949
Zn 10.6085084613508 10.700612604297708 6.150937281144063
Zn 11.525667298440906 12.929405639988989 7.504335100479114
Zn 8.935125470209833 12.062430985723676 7.570813924127219
Zn 13.579470194348408 11.991578165404821 9.304763799351754
Zn 9.433382991477066 8.410654604367327 6.014778360007953
Zn 11.459429018596046 8.731271985695933 8.103276595724692
Zn 6.022742691570689 9.311395983418683 8.454925991170473
Zn 13.80450924382321 9.32630457233241 9.089455782667404
Zn 9.7337266473904 13.687214097903116 9.290876634663858
Zn 10.89414033684671 11.102225791765761 9.301849256757524
Zn 12.106496592182435 13.72650893191825 10.438229254970816
Zn 8.939641954280786 9.471699642186952 8.709246457889023
Zn 8.101503849518808 11.63468127380557 10.149626387252514
Zn 9.94301292147003 7.1222160545376685 9.718211257001093
Zn 12.238439919848885 7.737408064087969 10.595595053841915
Zn 7.474567369140377 6.987406199133616 8.957642442888643
Zn 15.30365002173052 10.60819207444422 10.74605532941742
Zn 14.647199815255052 8.227118506386974 11.50566573901962
Zn 9.909333265287861 9.421619234955653 11.143959281656723
Zn 9.955840930523316 14.901660743525898 11.470110600914278
Zn 10.412070645617984 11.988730112413933 11.63726951273754
Zn 7.212129174182811 9.170913323455208 10.797618045335167
Zn 8.092947034107974 6.534579878357621 11.359334062117526
Zn 12.32314838736841 10.289639756793957 11.230377296338952
Zn 10.42104200642152 7.119400276722066 12.49212287909196
Zn 8.062783174022147 13.221150160554705 12.212782545185508
Zn 13.83342283480671 12.403349809739701 11.983442070958802
Zn 14.661477033498688 10.149725481671904 13.184950249343487
Zn 12.60801340550412 8.326623755318359 13.211373900577371
Zn 8.081493077203552 10.742203227946089 12.767045708930585
Zn 11.95792327051269 13.471007133270152 13.325169895235128
Zn 10.261280631452546 9.39763195035749 13.855721480957872
Zn 8.057302738639464 8.234296949872627 13.128572277489942
Zn 9.454749615952414 14.346588988440814 14.013111049365675
Zn 9.935259788392411 11.888969423235116 14.284571170663007
Zn 12.361544684601684 10.943282217564983 13.909265795248077
Zn 11.391010485355547 16.090934187859954 13.434570127084806
