42
Energy = -28.64080955 eV
Zn 11.274626327453294 8.911972875188097 7.367817784759981
Zn 8.722427057747458 9.804838975852364 7.821743851327036
Zn 7.8093868272898 14.655232019648864 9.343339981888967
Zn 6.53277782207541 10.74388945782403 8.916952267758438
Zn 13.188771646454796 10.54830829292811 7.8018540947703405
Zn 8.244734808278706 12.435087864180888 8.134330230144963
Zn 10.754822670195825 11.455842990784678 7.884826641106393
Zn 12.721243547317707 12.96886945557646 9.004675891011813
Zn 14.75558156956779 9.048984351357197 9.047523664726253
Zn 12.502623807094158 7.916014979516559 9.456431191978174
Zn 10.005984258170447 8.369874880693732 9.620621204617986
Zn 9.896948090349719 15.936808442554907 10.34033038880284
Zn 7.536177027335322 8.65147184737699 9.840222330777733
Zn 14.754180790207922 11.523567447974886 9.741208735061223
Zn 6.926095228546825 12.640146402559912 10.645958789003739
Zn 10.33683953957458 13.882944638274592 8.814862648453195
Zn 6.53572698937342 10.246630929793497 11.502653449294318
Zn 9.341931580970755 11.136614422445547 10.412513869138031
Zn 11.86768292717178 10.467427708170273 10.204716229904932
Zn 12.327738221500073 15.261030237563842 10.278924820360395
Zn 16.31294289767267 9.839898915479369 11.05320204906116
Zn 8.80652964033866 13.959161789049132 11.762509922386387
Zn 13.967821656593946 8.571154085626256 11.50329823172169
Zn 11.28142318192777 8.050459227947494 11.876806540042233
Zn 13.326656402559928 11.246228209911799 12.162269187717753
Zn 14.339168209045756 13.851144123847714 10.999144327354399
Zn 11.248466619081245 12.793493769953926 11.244601241217788
Zn 8.035306565152164 11.643053993475041 12.9961817620556
Zn 10.922850060438273 15.332214394318187 12.566830072404848
Zn 16.011019060198887 12.199528743821615 11.953926426903008
Zn 10.781394251752983 10.664962428885572 12.627026898595135
Zn 8.683166347438938 8.886288922520691 12.13459942302519
Zn 12.820457957656378 8.74654566094708 13.829254592206775
Zn 10.167798224432914 13.088923928659952 13.786721171792253
Zn 15.335344794529302 9.892604480000902 13.384790961562354
Zn 14.751310803162504 12.417848766086554 14.154506451267215
Zn 12.908208008142395 13.968486685092753 13.259356992137635
Zn 10.058435914088324 8.365815993338776 14.213591982637746
Zn 9.331340773478235 10.783679447203978 15.001798913140775
Zn 14.079072422700678 10.302666881521644 15.496115030360953
Zn 12.176433790305168 11.909023272379061 14.775944249751165
Zn 11.447332832922868 9.710039209963403 15.864796658067208
