46
Energy = -24.27975869 eV
Zn -0.5545290726634415 18.33258188470013 17.40370927690002
Zn 0.31111185582862505 15.896110487024123 17.658884407373147
Zn 19.501245814088264 15.010295277650602 18.174915420818028
Zn 18.919040686633075 17.49362487268291 18.499066678470122
Zn 17.82346284996432 21.28944441161868 17.631009281608225
Zn 14.771127276874344 20.011325033061677 19.34085979475832
Zn 17.146145234735517 15.992247886019303 17.56963176216647
Zn -0.7646782363763965 14.639554655568741 15.497468901752582
Zn 0.3783660400917246 19.58574510917779 15.084857523118949
Zn 17.318387942763646 19.525105801498732 19.788730471813153
Zn 15.75936497077813 17.599475617865764 18.934716532526068
Zn 0.33871492755326704 13.387571133109137 17.585929456786523
Zn 0.1419133475840563 17.035511391122643 15.300430438056768
Zn 19.611436399954858 19.88886826407444 18.911632057517835
Zn 15.801293634569367 0.6886170069291943 18.639288691419203
Zn 20.251020422021963 20.746766546194124 16.62064797016104
Zn 17.709974058758263 13.399824422386473 17.192386438695507
Zn 19.76830734842761 12.394239361451127 18.63292483946814
Zn 20.276100238063584 12.1190077700119 16.14473618437025
Zn 17.036487133364655 16.91428255513328 14.8848279028643
Zn 15.678482639070248 15.097277789942417 13.709727398094515
Zn 11.07332566362266 12.058304976062894 15.155922904356075
Zn 10.27070522448531 19.766935909930123 15.30422432835318
Zn 15.226920310400262 18.474675597043404 15.411738919775008
Zn 11.018457310178691 20.998380884188993 17.453654728818503
Zn 12.843510350388197 13.651607637336364 16.47936591853985
Zn 17.212570687675033 13.013531789375547 13.058663241584583
Zn 19.411178914545605 17.862620328748733 14.476623081670581
Zn 12.795804856904184 19.10571457395332 16.296832463317955
Zn 10.32381618567975 13.029545928451824 17.469600437793424
Zn 14.705543589274454 12.663862112781446 13.70911244300899
Zn 18.750368504379505 15.297823158871891 14.294285711952114
Zn 15.417469983316094 20.827836706994034 16.437512553923185
Zn 17.719168250601133 19.419239551738695 15.802087672362324
Zn 15.432912248315787 12.05223791463403 16.511181991960605
Zn 15.708499423020845 10.359776958895237 14.555916665312663
Zn 13.333633069468656 11.098672077337937 15.201706747816756
Zn 17.820198634004434 11.522064200391203 15.385421227194925
Zn 15.199562485153155 14.51912295454755 17.391774861278755
Zn 13.349872627623546 0.053507280360634076 17.890018273455816
Zn 19.603370525699102 20.40283074082721 14.14129016382625
Zn 19.569477718083117 12.908084144516348 13.925008175953613
Zn 10.600754743016859 14.527448533961437 15.192090004593576
Zn 10.62578449542961 18.46831230809046 17.60464177820121
Zn 10.203863133694977 17.125485531926472 15.179356367146502
Zn 10.238433698317841 15.810511050751106 17.725014029791957
