43
Energy = -29.53646392 eV
Zn 10.990058197921368 9.566657143475952 5.973036112215777
Zn 10.473745968094942 7.447578446541404 7.295454459353455
Zn 8.62683050116411 9.4095972820887 6.916205915781811
Zn 10.261569258759318 11.560464979590574 7.529006498611702
Zn 7.672278013530315 11.756376430437319 7.847682047327046
Zn 12.797679268476513 11.076815138461468 7.050000001642543
Zn 12.975257435551931 8.06539296057587 6.537619381446363
Zn 13.265672169154671 7.108751097573629 8.919870093528445
Zn 8.484240294056297 7.664453707680685 8.967152738825492
Zn 9.271960657037114 12.851205917924846 9.618750059274113
Zn 11.609840304681319 9.326378077270087 8.817802578046404
Zn 6.70128143279962 9.674040887554318 8.80917196522981
Zn 12.091884262987536 13.297874003908403 8.300914734753151
Zn 9.37903681180745 10.169412273288112 9.630798078102325
Zn 10.788198617467703 6.437645105355203 9.622721094250636
Zn 11.71186937300603 11.38905488195202 10.232510051587932
Zn 14.373536819177371 9.382161087867068 8.297485701398672
Zn 6.854651922672862 11.735948385632064 10.365426947859108
Zn 14.279295592742026 11.849727028665534 9.034013520501974
Zn 13.436137847697301 13.82690477151653 10.534171850006187
Zn 10.987659321886074 14.758903256399812 10.065675847828874
Zn 13.586149984176409 9.275620742092068 10.77070540102114
Zn 10.708888635468302 12.897470964533408 11.962649074451143
Zn 7.676843932999941 13.925143851672452 11.54173918157724
Zn 9.40837998767324 10.834459801988716 12.103140653568277
Zn 10.989354426616549 8.960646453631025 11.28439481004718
Zn 9.0984200324924 7.184620908557373 11.45615968016524
Zn 12.687777547072553 6.66916716674561 11.355811392753376
Zn 12.114492649132458 15.413044645864586 12.268584568448153
Zn 12.231005482756588 10.79014703865971 12.833705851185044
Zn 9.547986176430163 15.409070548188456 12.340979338595456
Zn 7.045711797879967 11.778555349548565 12.98786937716999
Zn 14.313765619667931 11.650882365862898 11.569407864820967
Zn 8.780644034967358 8.685315721593824 13.46259307612829
Zn 7.437459260686273 9.237056018064026 11.21909210455851
Zn 13.052086854780955 13.218781764143923 13.32669670255772
Zn 12.973965234095443 8.389754941625363 13.223931285968312
Zn 8.86057020028065 13.41425176242046 13.953685300060815
Zn 11.104071337606705 14.604578285602024 14.409687774697339
Zn 8.788766911209057 10.975379894048205 14.803718602701077
Zn 10.986050860060491 9.509362665944364 14.73166763276233
Zn 10.847446620132802 7.124279268444156 13.459013395623787
Zn 11.13959959472089 12.109188228587861 14.981418505146827
