42
Energy = -15.5248635 eV
Zn 18.705366545579206 19.32858343121486 18.39162767728051
Zn 13.162130663282973 12.411574500895075 -0.10923190447194556
Zn -0.14000444482250005 -0.24628806926874125 13.618873639775934
Zn 19.888974987690222 18.02662949877237 12.559030600209423
Zn 14.91482308341274 19.099248541573523 12.36267352433074
Zn 18.986985442633824 14.318964437663592 10.253637286909875
Zn 12.599462332016381 19.60356722957786 11.40538386969412
Zn 11.30253121529762 20.251003999558435 13.530046921700961
Zn 17.107258899309894 18.224034559563535 0.10465522052493527
Zn 1.051414100138734 -1.074491922004161 11.321575365880516
Zn 16.773825364862233 18.403820564239282 19.782806711447346
Zn 15.97363805697054 16.377100152227285 20.97397996999359
Zn 14.543908089938556 20.26879593215443 16.42116037535202
Zn 14.100110077745546 12.23098421598473 19.458244710257357
Zn 13.167427062969107 10.473480150113447 1.757151771682459
Zn -0.34057339428141914 16.531335171120464 0.8096042457956217
Zn 13.64222423795169 20.494451247845333 21.167543292748398
Zn 20.54147563056195 19.55988903477886 16.766012273424913
Zn 18.173698928381764 16.872884461795586 10.757525594197883
Zn 21.647239141949697 18.47829001123725 21.55988682807853
Zn 15.731121034428218 18.634071481780584 14.81469085675242
Zn 21.552396058281744 14.784381276799836 9.78313000303741
Zn 16.67177305384471 18.63654394732136 17.14102812507341
Zn 20.126611573605828 14.969395767911921 1.6182722513144037
Zn 14.994773914463158 19.947770423031283 18.976304781025142
Zn 14.114848494655128 9.996559864556628 21.552947692508138
Zn 21.302701368816955 18.97253890351212 14.451131740358948
Zn 13.181508866954427 18.797086128517478 14.68349429891727
Zn 18.06237512862956 15.741325640382515 0.13805877839755404
Zn 11.58725453001796 20.477191582298644 16.049666283842868
Zn 19.108588302140525 18.875909323205416 20.855502563284887
Zn 19.583920629567636 17.827770234908407 0.8646741976363843
Zn 0.01273512297820177 21.190238193087648 16.048295668105542
Zn 21.286836279897017 18.931685170588725 19.126280713140343
Zn 12.832792529310527 21.30690982098614 18.053999170812766
Zn 17.348214228282576 18.055401818825707 12.932437469092594
Zn 21.065665049105863 20.27197173868097 12.100473117876598
Zn 20.510677393773246 15.496131993709175 12.147912903066233
Zn 11.519321712573522 10.257347783098407 -0.3582180950544307
Zn 14.561702633422865 14.318552962520751 21.186871910390263
Zn 11.548276980941553 21.9887569197481 20.2476449287843
Zn 20.855804309022947 12.822725053129409 11.566809875950147
