43
Energy = -29.40042447 eV
Zn 15.104945602288627 10.704745064881365 8.500656639245546
Zn 14.296647359060342 13.025283399169382 7.799996149437209
Zn 14.281682224810243 8.9683506835788 6.666512825881373
Zn 12.882685181520333 11.139779952631423 6.726066710676862
Zn 13.262282986653899 14.711025198757097 9.430297185075407
Zn 14.542744758642081 12.654998662446259 10.343955492963419
Zn 14.760318216824794 10.085574417501448 11.021631660346419
Zn 14.286394645905322 8.274747251584252 9.087182953204803
Zn 13.388972775028275 14.447142915522091 12.0058226042059
Zn 12.487004478014798 10.680689951754804 9.39446903854041
Zn 11.860112074597133 8.828019061253338 7.409943770979278
Zn 11.729930165353014 13.106268316014473 7.916269813329586
Zn 10.32724761370658 11.028998951873387 7.190933060990333
Zn 10.779394105627947 14.754592423134735 9.648200858376274
Zn 13.583635738330623 11.886789052878552 12.665287572321077
Zn 11.498310651433078 12.459421435281541 11.064306729698256
Zn 13.916699257000083 7.714623279628568 11.627768264113508
Zn 11.795761629952313 9.881964704840225 11.783648841921062
Zn 14.169132874346563 9.546785999452288 13.476630536633497
Zn 11.866778356755345 7.904850668586722 9.735701626440187
Zn 11.828337468978422 13.384937421223492 13.825670016643617
Zn 11.038998066441131 15.294248647728951 12.119773021080551
Zn 12.580621806619908 7.899502534354506 14.343115545797364
Zn 11.602018754683517 6.968144457574839 12.144230234041524
Zn 9.18768622487618 12.918787530503794 8.59763899135672
Zn 9.434170511891411 8.699665906321755 8.265720728357442
Zn 9.91683583615972 10.712248639916076 10.123843715756388
Zn 8.968906315046544 13.822745456053104 11.088117451401322
Zn 9.63114694681236 8.146621026668818 10.903513229724611
Zn 9.299111457206392 14.064437394844132 13.692906845318134
Zn 10.355300421427753 12.21029895404981 15.470937562655296
Zn 9.650492697049113 11.29260671196601 12.671498220974916
Zn 11.973255322511728 10.548380622779778 14.519195407365105
Zn 7.8397861870068 10.694446646001404 7.817041746643902
Zn 10.222561216472455 8.571315689860702 13.612132005271304
Zn 7.30368504385436 11.96293078302385 10.003797841792013
Zn 7.429730011124033 9.203240892852472 9.870212508602705
Zn 7.218640063465453 12.678174729853739 12.536374628659862
Zn 7.9038760312442164 9.06116067013847 12.562383026210373
Zn 7.914333752905198 12.3954231243827 14.959839141013914
Zn 8.881077310788518 10.058639311113994 15.116321509759992
Zn 5.958804439652354 10.557871944331117 11.623531864091708
Zn 6.4763039452288655 10.485880040984473 14.073282950399124
