44
Energy = -29.05572141 eV
Zn 14.597635129297057 8.487424533786374 11.105124368794659
Zn 12.347705702857636 7.642330720699429 11.995243612792754
Zn 12.726784809483458 8.260009063726267 9.500800530603863
Zn 10.76425509916256 8.129047795426233 8.00698269785843
Zn 14.20678645835266 9.03097138976439 13.50591494490948
Zn 14.700278668794647 10.301906744058341 9.377710576817082
Zn 10.006849386811187 7.46767795715534 12.832336559536284
Zn 15.676292239691984 10.634865952797915 11.777251035598884
Zn 12.834415746798582 9.961620506095196 7.585942279734247
Zn 10.310271046202987 9.874238418304863 6.34396648740864
Zn 9.308100698796766 8.656840113571166 14.945914271724076
Zn 11.91203351898031 8.403409723130988 14.503828023242665
Zn 15.562509654502406 11.136934297183494 14.1694757125164
Zn 10.17775802623687 8.675071087728414 10.551873876529088
Zn 10.849655876650534 10.375132735969277 12.717937331854825
Zn 13.591855757851256 12.36266530396521 8.335622881827698
Zn 14.649559067332904 12.760354942342023 10.763352897917601
Zn 9.512589167667768 10.523654771873536 8.68336486543105
Zn 13.327150135671637 10.44770529817997 15.403627676741504
Zn 11.130787739645777 12.017643811478324 7.3477221346156005
Zn 11.95558895519937 11.014582615375568 10.229997660949216
Zn 13.061197592928849 11.642203686025688 12.736128552030834
Zn 9.790682434208412 13.126959636279047 9.395066720963532
Zn 8.908011521522003 11.081727444238856 11.0757773955427
Zn 14.69637231983974 12.656198228172808 16.03421816702178
Zn 8.134473125671395 9.168638004948308 12.729924626139654
Zn 13.40010831619787 14.771097093868445 9.559429292827321
Zn 10.774777223687574 12.859037397529086 11.903878037547202
Zn 10.77089707092975 10.611211533884534 15.6483146983147
Zn 14.052318953372286 15.057299769006923 11.96870674906231
Zn 12.105370276117291 14.256462517366344 7.413538432953947
Zn 15.068485584484323 13.716851748972886 13.780676870728698
Zn 8.419035941634558 11.051049858634366 14.671440713562545
Zn 12.232211400161248 12.814615529542095 15.932108964138067
Zn 7.6866965436973 13.495207389181118 11.268613179034116
Zn 6.873696432365669 11.399265794746992 12.59136712553113
Zn 10.964400924501918 15.686354343724394 9.053740884415628
Zn 10.04828897242327 13.082448442162573 14.698026512257336
Zn 12.294549594504751 14.208175994195443 13.735347032628312
Zn 11.576437248733445 15.459274862617342 11.543990149399148
Zn 9.51641863453149 15.027977423868007 13.032779434519238
Zn 7.678323351898754 13.455383419251998 13.814999074662863
Zn 9.045358645556247 15.420282529928759 10.577983744937036
Zn 15.402614394556663 16.437778958754798 9.79954260389065
