43
Energy = -28.57678002 eV
Zn 13.242722111441685 12.410702105861828 15.684246299557836
Zn 10.887732314104628 13.510409676775058 15.929028619308204
Zn 12.702805634538594 14.72193864965708 14.751880805110785
Zn 10.289114945569795 14.761920088185711 13.749375832447727
Zn 10.842306157956275 11.05766549049528 15.575572205345932
Zn 8.96546791491687 12.658236410264985 14.494488120387604
Zn 13.15454267684834 9.916148404534411 15.087983693818625
Zn 12.502273638335687 14.754619399387717 12.234990667672028
Zn 14.511238020888571 13.609126406124487 13.403688129271359
Zn 4.951614395555668 11.080859389572753 13.626260625760512
Zn 8.279274007853429 13.893663168190088 12.357338030523428
Zn 15.127889354518583 11.318510864539357 14.31709824308035
Zn 10.208587779020403 15.467640940656008 11.313676549848186
Zn 8.775846522699782 10.161430712276886 14.362959924273474
Zn 10.951894248328584 8.85383233871763 14.274128778775037
Zn 12.53284855643239 15.098107892583686 9.698136728132974
Zn 8.17024455664277 14.607975322603556 9.886310326546724
Zn 13.130782100565453 11.218051837821534 10.828396580796023
Zn 14.476204745115504 13.878525781122383 10.81492963775204
Zn 7.353704575239121 11.471588112869822 12.762012222822094
Zn 15.83838787667159 11.947560731717493 11.91459902200598
Zn 11.52280901579177 11.687170568049025 12.9047091086874
Zn 12.863719223301691 9.240161400490699 12.52352731759161
Zn 8.895130835408468 8.25852676490622 12.733812505005929
Zn 11.20501053378881 7.166336836623423 12.389002342980463
Zn 10.208205104004792 15.576378855002543 8.796620475874157
Zn 15.61603601671413 9.495220977614308 12.712037353106037
Zn 11.057042737382554 12.787833439490317 10.631293622193414
Zn 7.874557151743665 12.175917478322859 10.331978772041195
Zn 15.887626640553487 12.318159073259567 9.376049969632566
Zn 14.63001977624211 7.785069241416558 11.197875484809105
Zn 12.368803575985776 7.261339571304199 10.222136829000318
Zn 13.928018649209134 13.365976390378668 8.229034362235556
Zn 9.489759140335403 13.022976993451532 8.341996081909972
Zn 11.69009939378093 14.14624148384315 7.3944860936999035
Zn 9.972013318478986 8.258578467535207 10.325986056425103
Zn 7.910354076510347 9.733873020354176 10.98583773116649
Zn 14.154907936569979 8.372163873625874 8.764992406741316
Zn 15.722656145931818 9.94954802784742 10.142780855155431
Zn 11.74878203098891 11.698671858742609 7.884215229161322
Zn 9.7475437535151 10.663672744010196 9.364410767329458
Zn 14.153170142186887 10.797632899285379 8.11537194730078
Zn 11.80040654346004 9.30945822463635 8.755056831502507
