46
Energy = -31.2454386 eV
Zn 11.053371044085289 6.57656819253313 10.917473770851878
Zn 9.152729131928313 11.212820125791305 10.78512458973042
Zn 8.538274815462437 9.59584750394839 14.270370658221252
Zn 13.253541513369795 9.253896550030012 8.029914131053642
Zn 13.851301714487768 13.495194557277522 10.096395626175658
Zn 8.765032884371434 5.778116715370001 11.802837578782203
Zn 9.366928750290471 13.450056543840955 7.18333499988766
Zn 6.502567276588591 9.71767539725733 9.117134470824109
Zn 11.588057139832047 7.221564845405049 8.495675803384238
Zn 9.498340286853155 13.96481382345524 9.736787571275784
Zn 9.162430136922088 8.802185783044331 9.644357994757568
Zn 11.582339804499037 9.634042328085695 10.098847279175585
Zn 12.772895775839338 11.30372945929873 14.431151465439052
Zn 13.387526117534225 12.051742892845581 8.055292783303477
Zn 13.969877185777516 13.527392653910274 14.805483909609341
Zn 10.519907333984122 11.322703736805636 8.501647690304424
Zn 11.417685457218258 9.072102310068383 14.47893576812369
Zn 11.634426601949984 14.830990482723669 11.095770459084402
Zn 10.23672869917964 11.341554209498163 13.329173255824045
Zn 7.296009950055965 9.52959107343649 11.786004871001131
Zn 10.961480844579336 9.008174581555258 6.684525784611703
Zn 12.616730020289964 10.804713861834886 6.008315008495708
Zn 11.683194404541014 13.521077895436203 13.471332265458082
Zn 13.822635638888451 14.599439346924248 12.446062272381722
Zn 13.355110831297376 7.789195986707461 10.45701780499391
Zn 11.572467240620966 12.062714189854576 10.954869963326983
Zn 10.014762802266794 11.238238826070647 5.5498757148828926
Zn 10.012857603156217 6.960035745364132 13.871270067452414
Zn 14.001932035385659 12.012625122547517 12.182963847241904
Zn 9.424951597336928 13.755020641614086 12.35851573156588
Zn 7.186574098850011 7.567807178928787 8.058399488288556
Zn 8.500571125923717 9.860317464847396 7.307466754054867
Zn 14.118916349990704 10.605056887294399 10.053613842319947
Zn 6.098239584775161 11.557262817663878 10.813860757547578
Zn 7.565995321484568 7.44931338385697 13.230948830155791
Zn 7.284131659533814 13.696543469609844 11.027199847270072
Zn 13.156405575715578 9.639193189767735 12.398261520653442
Zn 11.783026578922895 14.126741734158033 8.537087095426076
Zn 6.869862938644289 7.275024489226209 10.61354631352339
Zn 10.086752564014835 8.991368896047858 12.013508918345128
Zn 9.146209041392906 6.026375323945986 9.258660858076025
Zn 7.684007860927205 11.829506348813322 12.95991541567396
Zn 11.686143233147357 13.130776136634756 6.164103648096213
Zn 12.391803584184819 7.292211997904389 12.881262942764884
Zn 7.743112517191437 12.143872341390773 8.762732358546993
Zn 9.407378054666305 7.100027685332209 6.998192999993432
