47
Energy = -33.6751239 eV
Zn 14.038453337555385 11.049958999377711 7.930591463005699
Zn 10.615531215618251 13.980337827617712 8.407799089451565
Zn 11.94752708723133 12.158622992619385 6.943828103989722
Zn 13.933904644117574 8.699505507140547 9.015127341944304
Zn 8.86296298420636 14.405170128869058 10.376153963211735
Zn 10.576707891401993 8.455263030160095 10.882000485139672
Zn 14.340572373209454 10.924740714318547 13.03448848484732
Zn 10.129663111193565 12.032985637772265 10.670839881244397
Zn 8.182417469831464 6.71095188572089 10.497875789414406
Zn 12.35990302533707 9.524885669203984 6.679860205496632
Zn 11.426945413854119 14.459252790684088 10.773976039324076
Zn 9.378079755803894 11.650573137683544 14.452061593720162
Zn 14.348153761402866 10.96077098687863 10.45804227784289
Zn 10.571889826899868 9.11705500829239 14.464215171561001
Zn 10.04120802953007 10.453976646147702 5.723788197070839
Zn 10.066058051447223 7.852777786519927 6.090297391792748
Zn 6.378323919100475 8.248151735639304 9.17812889418121
Zn 9.321244413778393 10.2422271501457 12.255654383818776
Zn 12.039491986032614 11.524332230621265 14.344016634620726
Zn 5.66939189760572 10.262355625347494 10.607563942274762
Zn 9.022998041421657 7.2210588098872455 13.0083097084543
Zn 10.122861288339665 8.758632811840615 8.450248042773458
Zn 7.6766767915322545 11.657725966635228 6.119498967431655
Zn 10.467794841199028 5.782228122686804 11.46107619671698
Zn 8.262398938471962 13.225023130457478 12.627514457740391
Zn 6.820536084033054 11.09506728223444 12.747205537830785
Zn 13.124572740016616 12.904560875594004 11.884422976296388
Zn 7.991723620005817 9.260862792599386 14.204232623267792
Zn 11.781683628191804 10.457388748146334 9.392491757743995
Zn 12.6234329238127 6.759445154991517 10.268892985072686
Zn 7.833787111238628 13.383261263434882 8.190406118268925
Zn 13.875002447347223 8.54826965714813 11.660922721288632
Zn 8.179985003443308 6.952709824646728 7.909665787198137
Zn 12.985056246544948 13.03347444121477 9.251438004545042
Zn 12.277738395575753 7.198492459254476 7.701258156178921
Zn 9.649500384431851 13.110026758347116 6.1914898056839505
Zn 6.894644999281161 8.39837446584185 11.947078602863606
Zn 11.901609713888625 7.226175747507108 12.999867808153969
Zn 8.3345220248174 9.883598090756841 9.992654564778068
Zn 11.857057572102205 10.444024023141335 11.913169216896215
Zn 7.69838682120886 9.21969231706839 6.850424711728975
Zn 13.11668249852699 9.139409824745403 14.187913418342903
Zn 9.589806116964697 11.299729905213425 8.285332010316758
Zn 10.35259256493298 6.078057693730889 8.95315184158327
Zn 6.947880633200485 12.540612497343297 10.490662004486792
Zn 6.407927719324503 11.088203659762586 8.295666368647504
Zn 10.793052944770826 13.438340474790852 13.047038561539136
