45
Energy = -30.94532741 eV
Zn 11.861235558869927 7.196227570992965 12.716168536373209
Zn 13.726093611184526 8.42903281224626 8.966823494345274
Zn 11.603852202649088 7.708633629954814 10.17139267317357
Zn 13.95176286466632 8.132866656734562 11.500346973291146
Zn 9.56616968930354 7.5853781770620925 11.98564984583396
Zn 13.84802006116287 10.823498803859206 8.04180392834557
Zn 9.572530285013583 9.411575845836959 10.249647637293036
Zn 11.607605347153068 10.00262626249634 8.732813855378094
Zn 12.804027661314139 9.269046765287854 13.828816622415705
Zn 9.53956463275194 11.681553060023342 8.810535442818216
Zn 15.668606574535138 9.599331928264432 10.252339915785017
Zn 11.991568202786103 10.247151617128376 11.483702176529942
Zn 8.301085915252752 9.701233993430701 12.630464731507633
Zn 14.939006980823487 10.285461805294657 12.694919479546174
Zn 10.258435844690823 8.80051971190737 14.234095077420674
Zn 14.179678791980676 13.568039746135794 8.169632476502146
Zn 7.89094250863933 11.224795342730083 10.608118400175604
Zn 16.014823190042517 11.719512764186568 8.784797024236061
Zn 11.823981122197388 12.607988812086967 8.164470989382933
Zn 10.272651954293744 11.76080970355397 12.925857740751981
Zn 9.781115611651062 14.27688923278954 8.740784215014408
Zn 13.717186936884096 12.345945039630609 10.556778608852929
Zn 16.305130762463527 11.978635151058365 11.275728566106798
Zn 15.664122105028701 12.607850461000277 13.598262214580501
Zn 14.038428504528095 11.011094439052176 15.160475142503813
Zn 8.770138645291174 10.85201565749563 14.93385145034427
Zn 7.467883150497207 12.212436026549792 12.87174771833387
Zn 16.294133756444978 14.06766885328914 9.675884355792777
Zn 11.401538337586532 10.850084791225461 15.406302002888062
Zn 12.139295856181878 15.084212570963835 9.039423697904624
Zn 14.451011154142002 15.772292822531615 9.769859778285872
Zn 8.301439498125825 13.686230384118952 10.773644310510962
Zn 8.706722221482067 14.564514207710614 13.21454350495212
Zn 12.85838583628448 12.25566832444931 13.036763422519535
Zn 15.46723230393981 14.672742036794363 11.99753603988116
Zn 11.238173574991029 12.754543397522067 10.836893241690673
Zn 14.95772637546022 13.263774267205353 15.90561789280991
Zn 12.816891561663924 14.94252003096512 11.621723128107943
Zn 7.67961207805436 13.315145829528877 15.134428200382779
Zn 12.476124249182352 13.205314141866065 15.703373910168768
Zn 10.01924758974043 13.112037633161476 15.723515390377708
Zn 10.275623046448302 15.217178820227165 11.161259891909307
Zn 13.854394894846727 14.680074094393488 13.967522283398086
Zn 11.233414723983113 14.414417442239305 13.700914150750846
Zn 6.081354605948579 14.519399715178487 16.658740240986656
