44
Energy = -31.54928916 eV
Zn 11.527316489381457 10.169754957299723 5.9413212788518885
Zn 9.58890708599918 11.78915255005155 6.2709333623473515
Zn 9.240925660021036 9.039390298173501 6.509661934642688
Zn 11.56010658256864 13.210510171060728 7.236243514565291
Zn 13.522068118198588 11.633795331011129 7.01667926430904
Zn 7.350222054495653 10.774420819913251 6.851169012532813
Zn 7.24743003871705 8.392170954045653 8.210996757614383
Zn 9.184548436648246 13.822455918380557 7.859706208043344
Zn 13.402826261150121 9.095115080103989 7.257941080100536
Zn 11.370546091399984 7.627828968183248 7.232922912462144
Zn 13.381083039274513 12.90500115708729 9.294718701984605
Zn 9.09275972723872 6.682332452808039 7.837699816735673
Zn 12.63433684223805 8.361205882002785 9.649213009386576
Zn 11.46926063439009 10.81264373131579 8.714905594905497
Zn 6.055552000958833 10.518553501724464 8.968158143750754
Zn 10.892045094901123 13.359554649190585 9.92544451040612
Zn 14.306934703994234 10.407926723615173 9.283346108598668
Zn 6.889511759054903 12.901529587417665 8.460549399343034
Zn 10.884979889486663 6.415410356494053 9.713404498603524
Zn 7.502203489875638 9.38930672620336 10.814725785118219
Zn 9.859502272184207 8.94624410509048 9.316690237715541
Zn 12.027528732492106 10.936334494901612 11.224665143338495
Zn 11.379895035275164 10.313955339487514 14.682284361246353
Zn 9.339148397382203 12.01575197454277 14.453570868858918
Zn 8.962068632869032 9.4732989109625 14.816475504571695
Zn 11.74010871765107 12.805110234585952 14.069730747477612
Zn 13.63444647794985 11.158146099526709 13.54970579026856
Zn 7.793373556307269 13.248536811176725 12.867829375801639
Zn 7.366670286097823 10.631845854439133 13.20754943626326
Zn 10.205886198031056 13.983417088809222 12.422309258800405
Zn 13.116826111094815 8.618205220646654 13.860742950389211
Zn 10.71677192700551 7.734523284186633 14.127310573117674
Zn 14.668018098053729 11.869680129120802 11.342040917557103
Zn 8.207760119362097 7.9943427453985185 12.873579621030428
Zn 10.450643774044234 9.070951040033902 11.821280003423905
Zn 9.554751116302798 11.427188526969639 11.665330774908327
Zn 6.729679730333883 11.933049968939613 10.975352881953773
Zn 12.740819975838074 13.494284743058017 11.854036323490545
Zn 14.19943358433003 9.22815370445949 11.648426010186434
Zn 8.363898167636822 13.940460967514426 10.405759516961714
Zn 12.381967585069104 7.1400777377930815 11.909055279173426
Zn 8.28064143358594 6.924537110954127 10.306310005067523
Zn 9.970041395008085 6.256848466174667 12.14055673341558
Zn 8.972266750204149 11.312707699247394 9.175378864780845
