42
Energy = -29.19205611 eV
Zn 14.115656819834802 11.117801621815289 8.461590249848868
Zn 13.07537675763609 13.603873610380116 9.10252554956652
Zn 14.915076245082853 9.502423275424562 10.407821627387165
Zn 13.564650942962295 11.679187362375966 10.880462470598747
Zn 14.331320995901125 8.36442672335589 8.244081137811412
Zn 12.435107757299033 9.775374627368398 6.969919766115056
Zn 12.398130236482801 12.354087034732284 7.01932711383127
Zn 11.05410828949177 14.93281157856651 9.81355131925879
Zn 13.320554666385206 12.23076049881839 13.442884177163464
Zn 13.703332508581871 7.548436494046706 11.656035588259275
Zn 12.104811631020588 9.360781809508714 9.741093890322679
Zn 11.756593215643115 13.350525652610152 11.735204067625107
Zn 11.019710691893494 11.748422723555295 9.660269724256604
Zn 12.234802865601752 7.224032939640458 7.3712899007127834
Zn 10.081862553430435 11.166796033402399 7.004089027851719
Zn 14.07472936001389 9.785963568683627 12.804919568808442
Zn 10.30570102219214 13.646842426204088 7.725368710206219
Zn 12.820227472654663 6.3969235037044365 9.664113030783769
Zn 8.564410984381666 14.223798902995956 9.590570930077432
Zn 9.573682335131995 14.649353461275922 11.982887935370869
Zn 10.136870368321848 8.555325526991185 7.232963629214691
Zn 10.684249343734379 12.183693543995957 14.057576574661644
Zn 7.047734150916638 14.03758220391123 11.605093854608931
Zn 10.196256991625832 6.609752306713597 9.006766745760903
Zn 8.245691985451685 11.911203686652716 8.690724473322629
Zn 12.67549454392699 10.313862242544461 14.883828779127834
Zn 8.43889688868376 13.405101817049939 13.845120958725195
Zn 9.131780719976831 11.726105255393856 11.503030008302256
Zn 11.372811757768009 10.416461613201273 12.014057640520575
Zn 7.8540619373047305 7.465878384104584 8.291396411410009
Zn 9.534044187401104 9.62754528337365 9.863438123834461
Zn 7.929186042587704 9.789095357823008 7.340466503299003
Zn 11.008056747244135 7.419627035191465 11.293552486762378
Zn 11.953103151895245 8.216406711393148 13.580203491316121
Zn 10.285051794231968 9.695022279753054 15.033270219744702
Zn 6.380379976688103 11.849473733392733 10.399801510987778
Zn 8.197021739598668 10.756210463178496 14.180566470983868
Zn 6.412734597343563 11.973831928159935 12.963003706425454
Zn 6.628203673875279 9.43391165945554 9.519766565772452
Zn 8.170955831114041 7.506899291092033 10.780747847567591
Zn 9.341248822269725 8.855470852524808 12.704345350531481
Zn 6.981091142139024 9.674561846786734 12.003021655444078
