55
Energy = -39.79587646 eV
Zn 13.27544864079179 13.637103559536712 13.05982440834264
Zn 8.899206291807177 9.344671302598544 12.296146506220891
Zn 12.831725559311895 9.263825601868048 15.624435307250035
Zn 8.749071099427088 13.900044455007974 14.477192526122902
Zn 13.394247325166598 12.274139205853718 10.713691750749852
Zn 13.203755896010875 12.255172204874707 15.274062913453191
Zn 13.28601066169566 16.393932208327687 13.081340343966593
Zn 13.700099596503676 15.36840959793243 10.735899956235137
Zn 15.1275647102749 16.115270771263674 14.725412980605427
Zn 13.290884104062595 10.900524324976217 13.058411586520922
Zn 13.734820523826109 9.128193649569212 10.783426800218798
Zn 10.85419534942593 13.604084298694767 16.098850952277637
Zn 8.749974097517343 10.609293677371255 14.480447118676846
Zn 15.737462220623723 13.67946626396862 10.2971809140383
Zn 8.617795007525276 12.25806119185458 16.349992964985592
Zn 13.293755219260834 8.134168948955455 13.144340903663542
Zn 15.742188148218393 10.846601094256597 10.32097870743036
Zn 15.722491271710517 10.995557737156577 14.734224610674863
Zn 11.062100071039623 12.236530565186293 13.75360677820513
Zn 8.72818762270634 13.533138213383264 10.122816556053138
Zn 15.152980774418841 8.448660974800065 14.747572423565952
Zn 10.969753806917172 15.208655146099963 13.844734018065463
Zn 8.692833701755779 10.953149996158253 10.142961953078595
Zn 12.818814005036261 15.251539393821876 15.60006032892496
Zn 10.966366651203419 9.274273650299316 13.885470996019842
Zn 11.286080626921764 12.209256794423137 9.25452928410799
Zn 15.65252796748798 13.552034804938376 14.712053598968591
Zn 15.982725470495225 12.290509572225165 12.469780290756196
Zn 15.544883864253345 12.244910548108477 8.252919024323766
Zn 9.103131169189906 12.231745479938334 7.650722083722424
Zn 15.608425730110733 14.988971754913237 12.508640389311159
Zn 11.553069837319104 15.028442739158873 9.2621196159737
Zn 9.350060085988435 14.740218243664083 7.8348282047262705
Zn 15.621398160585885 9.580930361329823 12.540419269935057
Zn 9.257527350306752 16.09674175020833 9.99884457893681
Zn 9.354913537618419 9.73753833205887 7.880295493325822
Zn 11.098450024179243 13.553968920623038 11.487006781489503
Zn 11.58005462038044 9.383528819538894 9.270926416315435
Zn 11.339184170798994 13.548088497846896 6.8009522090161365
Zn 11.26935125056696 16.38874408685663 11.526137525822016
Zn 9.280235575257272 8.391810615208943 10.041059263136159
Zn 11.342546390087461 10.877310145775654 6.802845241057038
Zn 11.110709015152125 10.891973165594505 11.486060593146268
Zn 13.748727253463759 14.019317867523522 8.529119304734621
Zn 13.462819408554985 12.213880470656239 6.69381654897035
Zn 11.300170498921336 8.076462559492374 11.5646869459494
Zn 13.749990236392785 10.474603736684783 8.588144275783861
Zn 15.346995485808105 12.283768755012298 17.065492878752945
Zn 8.632884806058918 12.256064998337582 12.456504116863456
Zn 10.847111125469306 10.88170360211179 16.109921511352788
Zn 15.00417620551506 14.784080677499219 16.941451271493296
Zn 8.892138817410649 15.148519699547123 12.271626903382662
Zn 12.930732372567688 13.54148775372983 17.736605885162863
Zn 15.013906181942456 9.776440579821871 16.955161642194998
Zn 12.923896690475166 10.98303291887456 17.74480083145955
