52
Energy = -36.09266732 eV
Zn 14.938744744644666 13.425612178440756 12.369310392652556
Zn 14.009506874481911 15.07613118788678 14.258418949341774
Zn 15.123511254888447 10.874827194225396 12.309277556667837
Zn 13.987181917165278 12.464720210987686 14.670418748418554
Zn 14.033574889812229 15.865034094351397 11.895499896332039
Zn 15.07881702595681 14.573633298049375 9.920348429415709
Zn 14.682284780126123 9.84279903268056 14.589524483264
Zn 11.646408600205987 15.710776949902582 13.123834186752134
Zn 12.152313447475406 13.082774963969504 12.853038421339685
Zn 12.732926816515423 11.538746848322484 10.661378158909743
Zn 11.919986809693068 14.199836857205383 15.339660490614207
Zn 14.08632522311059 16.892364640372833 9.449094082331827
Zn 15.19750456710655 12.024610767949701 9.949174500017449
Zn 11.73056845162984 16.770434250198498 10.728010803164372
Zn 14.026763035691918 8.40022718924188 12.503623780881925
Zn 13.336571170388199 13.355143227269133 8.33651576125214
Zn 12.572148677081334 10.659930055024743 15.806241737705093
Zn 12.355114041548735 14.206259714737753 10.607652325363
Zn 9.643635964997475 14.105625286785031 13.933336312399586
Zn 12.609403272668802 8.15113310802616 14.809232796250175
Zn 10.690400865181983 13.834042514177861 8.45610677533063
Zn 14.676657286197557 9.418486753615484 10.186403658440797
Zn 12.358189067410079 10.625526244935918 13.031328439838923
Zn 12.149341228703937 15.952932992619784 8.222040614656912
Zn 13.61924001606371 10.793750879214056 8.138143717366734
Zn 10.410994112322161 12.559663534745734 10.902327136589683
Zn 12.013562012757673 9.007964351788091 10.837157958644049
Zn 11.609296811598105 11.901177301947072 6.757411811276906
Zn 9.856382238646045 11.561302819602636 13.374506525643055
Zn 10.286996507617253 6.810936265896254 15.557914881894451
Zn 11.921400168535756 6.838019842433655 12.621882734270468
Zn 10.503351203892771 12.138152767913942 15.813287647718731
Zn 9.64867348808377 15.005680147357848 11.422048631274336
Zn 13.026868864577652 8.306833121835917 8.55186453936684
Zn 11.99266357187395 9.368908989999678 6.478176807424608
Zn 10.507530659990021 9.01704590921695 13.260700254467084
Zn 10.437420668058696 9.323173359248486 16.017702332245097
Zn 9.075226918199672 12.58045669492583 6.959223662059907
Zn 7.9453074077191035 13.048636785991574 12.117489786593518
Zn 10.78157935927672 10.878796823836252 9.009947695425858
Zn 8.310737225181045 13.157289712196913 9.436142261677654
Zn 9.702932026349057 10.140957230889267 11.167425429558056
Zn 8.334686250396132 8.459268584727132 14.598884231105954
Zn 7.461318499982719 10.579419417982237 13.15772897436538
Zn 9.896198810860067 7.283379440323864 10.794581570414197
Zn 9.406431320178312 6.4428930593983065 13.246513127533678
Zn 9.586292141586389 10.084205987868703 6.5986002748540376
Zn 10.419763896476649 8.28778525757434 8.4014139972408
Zn 7.689704335462707 10.774932269664863 8.10623682427324
Zn 7.740533709453616 8.275843260437417 12.010470064133738
Zn 7.2487220058704 11.017304709363666 10.625392328611714
Zn 8.123318673254275 8.672625581524338 9.43865040444148
