51
Energy = -35.95605641 eV
Zn 7.477986751563297 9.29876546868561 6.020233446992207
Zn 9.791133752065562 10.313941074128772 6.464497243786086
Zn 9.690962637610074 12.682374062923065 7.467330625577257
Zn 7.260388519036864 11.775758484507389 6.54444380671688
Zn 12.007723556310713 11.333927327630011 7.181372578730878
Zn 14.184739308005442 12.235670733850005 8.089716171374565
Zn 11.606203809160517 8.649156251578061 7.138815850314778
Zn 11.994230387091653 13.861762728091062 8.009401764398559
Zn 9.124039623077344 8.300796212023666 7.928551772667396
Zn 13.939908049428846 9.68809593121718 8.0615252223659
Zn 6.668019413268483 9.908519079306929 8.376991149449513
Zn 9.341113739856011 14.404177548125016 9.343555877507923
Zn 9.218546750033614 10.628775178424986 9.217874984774605
Zn 7.3710596829731045 12.638281538446122 8.97397374581562
Zn 15.783263526779555 10.862895810657996 9.567577406644073
Zn 13.813185895508331 14.00858542540711 9.812660865688784
Zn 14.53606894053947 8.67107810810154 10.37153736454353
Zn 8.97389375730691 12.237389767451763 11.388268987317563
Zn 13.009008687154205 7.344965033793946 8.774315561205299
Zn 11.716698099990202 9.678776347627002 9.685959278408552
Zn 7.016355323917382 10.590015435240266 10.834885006692334
Zn 10.4872810227313 7.130619298799956 9.744117021418981
Zn 11.541194365225401 14.913954515217158 10.593085390302646
Zn 11.164349966414227 12.232859804419876 9.899719114661792
Zn 8.326720177700507 8.3173675038788 10.507627886723592
Zn 6.549945874806406 13.371922904117845 11.300470930761243
Zn 13.341609576782995 11.299634117899913 10.85551855303095
Zn 13.642041020353538 14.308523252800136 12.319271858732026
Zn 12.444176687689314 7.363602726927526 11.33397182928563
Zn 12.407929210708776 10.134152203316889 13.013813350727286
Zn 10.196198651927428 10.011275014644395 11.751344661620216
Zn 9.906029585906538 7.387509683748249 12.35431151607429
Zn 15.592680621212539 10.252962257096748 12.133044727501684
Zn 9.217837526280142 14.841495098131965 11.892771049892735
Zn 7.821381127784691 9.122664813736689 12.958618839302723
Zn 11.414703579408352 12.427389694129754 12.455979768374288
Zn 15.679359068427907 12.790024011574056 11.280273014278054
Zn 6.384524568238803 11.508414928151039 13.130534685961301
Zn 14.40939573672711 8.045556309150196 12.881731892491082
Zn 7.498961292535751 13.736279094374158 13.574005891399672
Zn 11.427491886545406 15.230811242443204 13.145408818058142
Zn 14.31380033676786 12.117236847861458 13.496453577834522
Zn 11.981968890370197 7.552499375240201 13.83711776149634
Zn 9.97208104216102 9.09527008221784 14.43332289029524
Zn 8.776473416844205 11.38914981574422 14.012166438251896
Zn 9.8760385607917 13.723528626786257 14.500617814769358
Zn 14.739631262000948 9.7666532988541 14.65142405320855
Zn 12.512716366458031 13.589203659929643 14.76995474863128
Zn 12.355890834808788 9.212081639991023 15.7154576364573
Zn 10.971996826751294 11.462063347605397 15.251446611790241
Zn 13.470655052685862 11.501181631718946 15.902523303418532
