53
Energy = -39.38933577 eV
Zn 10.396972308533536 13.818320770990733 7.7323233800213655
Zn 11.96596818890483 9.25060230496497 6.3668566076277155
Zn 10.901219243071479 11.599529324307811 6.5953747808261785
Zn 9.303962815437187 9.656059078638533 7.212564988013974
Zn 14.93222765380832 9.296130944651798 6.928100804515332
Zn 8.345361937354165 12.090710143724541 7.553477119422888
Zn 13.507738000331384 11.302980129141075 6.470637662233766
Zn 8.275857053402053 14.256553124678911 9.160990897631455
Zn 12.598421899294445 12.658330892534726 8.518278931389064
Zn 6.913584808899172 10.001535436501984 8.291090597615794
Zn 15.0079567418107 11.3056495027958 8.667227518801072
Zn 8.285572566097985 7.702592999549832 8.66040122716763
Zn 13.360027190448857 7.501338427675735 7.663990015157384
Zn 10.86190361578527 7.929179744205451 8.394917003583176
Zn 8.576339768993934 9.556611269829032 10.525754828618187
Zn 12.47979458907559 10.056295736656882 8.9993849330276
Zn 5.825029031084081 7.979012657510223 9.629063864981013
Zn 10.19088234869054 11.236321114853032 9.290415503137046
Zn 14.40080478907234 13.195816978863101 10.394179700234096
Zn 7.5490367949595525 11.966377554798811 10.043128201370191
Zn 10.2374059926654 16.025513849157942 9.044709945326357
Zn 14.721915309302808 8.776966779744681 9.523913062031715
Zn 7.533930497976445 6.790565306943951 11.002175933940261
Zn 12.585589211188541 14.970751318824249 9.609439192573832
Zn 9.741970669738343 11.361707555411208 11.994032742689539
Zn 8.745082748520915 15.94801947602628 11.123037402256351
Zn 14.888084375167672 10.76326064580188 11.253943996080155
Zn 5.642562448959369 10.25904751880214 10.624495576173802
Zn 13.689062654295894 8.557372808097016 11.930578770982416
Zn 6.713328344479805 8.784548543005974 12.450332380144086
Zn 10.04665264716362 6.608724049416962 10.485754691240501
Zn 11.087360121191548 9.141957252727511 10.940028206403003
Zn 12.684716695483845 7.035913473750441 10.09635197621684
Zn 12.310094273143912 11.643039361172042 11.109666742726601
Zn 10.489208761481901 13.427561724560682 10.624167073414208
Zn 14.130619533532151 12.458980625957414 13.088466842033153
Zn 11.238662753911509 16.335540676408392 11.377258793975665
Zn 12.715539631717562 14.358483241248607 12.152546847763597
Zn 14.535390056467781 10.045913035783895 13.930182005946321
Zn 10.021730157950753 14.715671011852953 13.072649957458959
Zn 11.82872940888687 10.175983773743832 13.176105134467637
Zn 7.9041822850014025 13.669755194445864 11.977335840651996
Zn 6.955847248805696 11.366533600030477 12.619467669982035
Zn 11.675206414392918 6.985528003392602 12.595030081824966
Zn 13.212078143928704 7.8884759094914605 14.457009238156044
Zn 9.241621930917175 7.923450696208091 12.61990522936203
Zn 11.491433339654193 12.74270954890272 13.785656744392556
Zn 13.174142372386816 11.61290265318318 15.426935531666741
Zn 8.891424223748285 12.577705520076178 14.21598164458285
Zn 12.494299227559852 9.393379500953438 16.335019244707464
Zn 10.640156369644714 8.413036125787263 14.731116622965548
Zn 8.614672799497225 9.988896762526844 14.066984096414037
Zn 10.53641839926573 10.989936712774227 15.559342609157198
