54
Energy = -38.55004612 eV
Zn 12.670496205599175 9.830332261867655 14.25771754753996
Zn 14.847918651282608 8.976416412038436 12.645701388421273
Zn 7.062035406798707 11.053463677106562 9.648003029386334
Zn 12.282108929717072 12.430710239050036 14.546768783185936
Zn 15.991462065628934 13.298763821043663 12.96164294803984
Zn 13.046576034789895 7.366995579153222 11.09146865475697
Zn 10.694049287215028 9.05226483598828 12.502606485623307
Zn 13.126459713359312 7.379656584154949 13.655074767899297
Zn 7.887464034660576 13.054219221925317 11.726691946974858
Zn 14.072223797887862 13.87193016076782 8.42314831364342
Zn 15.119185714058844 11.614752056635938 9.033445464695724
Zn 11.798014531316602 14.24177268208651 7.567087569202689
Zn 12.59894581440029 8.202095766885181 8.694582472181702
Zn 11.561038266991071 9.924625620816457 6.877105941495984
Zn 13.319207832865732 12.591313013237258 11.887613575834836
Zn 8.220342509450811 14.471682134764842 9.678739843673867
Zn 10.159937741318336 7.98092933241865 7.6451940929146565
Zn 10.593216986837707 15.824159365698002 9.382798965319939
Zn 12.773530445333755 10.138236742955412 11.459260810495921
Zn 9.705819849930943 13.423741931531504 13.870687174678292
Zn 10.576849307986471 9.731592209287248 9.93879414918809
Zn 10.996014910531242 6.3567782275135025 12.608184428978154
Zn 6.46193520200624 8.921884858746763 11.328118599249905
Zn 15.406184901372413 13.700994003241806 10.513596411174278
Zn 10.903131207673448 7.824780335394952 14.831973653418968
Zn 9.60956641196919 12.144566013740647 9.74091576511647
Zn 14.115087709025753 9.834841180655047 7.498302220242355
Zn 13.074161760851872 12.068247184478356 6.739479894483656
Zn 10.25463122056231 10.957379805939121 14.598020425516184
Zn 8.922343333784557 6.3859600717861795 14.104511766094296
Zn 10.805754140308775 11.79332498291374 12.035130165413973
Zn 12.361609233211801 11.447232789823337 9.253342452576733
Zn 13.183784913688026 15.83531220885045 10.036815729040546
Zn 11.655094342669758 13.6670458239192 10.32263328283874
Zn 14.34996180606714 15.373848735298047 12.265061021536463
Zn 14.808705103517847 9.130517777019975 9.931641447313346
Zn 8.672444841678644 7.368721508386389 11.684863066496568
Zn 8.263070561065126 8.551627266539253 9.461044090117216
Zn 8.64988366892918 10.376914135901055 11.792265595179451
Zn 8.53258938679775 9.095609332544704 14.470588220589718
Zn 5.912691507351656 9.838945525824558 13.805868807801135
Zn 10.642411055381022 6.957790819532054 9.980029618799634
Zn 14.681474231879951 11.357600009725244 13.960953905031245
Zn 7.732473117715863 11.684455656565087 14.006121574285917
Zn 10.297702879452121 12.155336171684718 6.812709867503471
Zn 11.914866044965121 14.673888672084143 13.186438313632099
Zn 7.7205206351295095 12.626775097567151 7.7403454781128
Zn 9.767002133515861 14.92338442739406 11.735576164775008
Zn 14.211793641944116 14.133569773427197 14.519280600074445
Zn 15.635681452437757 11.109641971109365 11.47897627143614
Zn 5.871437858102094 11.460898974017832 11.914779855313611
Zn 6.750738791770898 7.494360039530012 13.517144272153025
Zn 9.33991896792281 14.487579977199948 7.412965077158476
Zn 8.806159364990098 10.218242457932492 7.635897499093278
