51
Energy = -36.88414784 eV
Zn 13.169698443125892 8.008739790211914 10.228286637445624
Zn 14.961454336907487 9.784815494590502 9.272710053490814
Zn 13.236161127722001 7.042312051995964 12.84287677638035
Zn 14.59328234624181 9.173168904422536 12.022202617229915
Zn 12.70074744804854 9.279026970193039 7.955452509845786
Zn 10.984079089851734 7.627480766864825 8.931262787819628
Zn 11.06018730097012 6.949872834626439 11.43168236203459
Zn 11.673375735700764 10.939209209368816 6.042427927889062
Zn 15.411749417795995 11.542442807986598 11.655606261698187
Zn 10.922157291673148 6.3500706962615805 13.99424907080146
Zn 14.442163737004208 8.40779544672109 14.57303025881936
Zn 12.854253130044066 10.739344276581074 10.48023864783099
Zn 12.426691364043663 7.420793256767027 15.631393373548367
Zn 13.7000047433517 11.6367967508468 7.395655216945555
Zn 10.049996569292114 9.346598804015592 7.377866590498324
Zn 11.834824803675104 9.29974454427322 12.815178923276717
Zn 14.927647051242266 10.835648702862244 14.069395265285205
Zn 10.455641401899062 9.755460094906022 10.590876506671917
Zn 8.80283781758967 7.677942421869324 10.320588822486146
Zn 7.908251667882049 9.639491172385675 8.883385497837882
Zn 9.272035618495595 11.624851654690245 6.485013441711358
Zn 15.26438393101508 12.299417411969525 9.261384999723825
Zn 11.654635577821344 13.398250642010684 6.972679676074133
Zn 11.057657341322036 11.554121165588247 8.83989796554492
Zn 10.397390362481543 8.88060528270718 15.053513644353977
Zn 9.258821051617993 8.166869405697279 12.8597499218984
Zn 6.084653698049125 11.197832743702701 10.167630703956192
Zn 12.714432177346831 10.182075385904614 15.272875276181193
Zn 14.878086530152844 13.332521608639828 13.57845827372438
Zn 13.470720982049718 14.049565494617122 8.750584457649731
Zn 11.515447185389464 13.110777056917595 10.903308976053733
Zn 9.253037608766222 13.653551062918833 7.957692854565421
Zn 9.030187583257021 12.117987044106304 10.380022523766858
Zn 7.321764746812893 12.09381795349331 8.174544633969136
Zn 12.741397467253945 12.9988540246316 15.05273458260101
Zn 7.681725675948414 9.716448158159759 11.56340157443401
Zn 12.722530975117229 11.726209507455765 12.766105019805424
Zn 14.595216939944123 14.002443851911366 11.111218083499006
Zn 10.559185395687418 11.548454117749886 15.208429613184613
Zn 11.09415969932915 15.019053211960925 8.978033315434084
Zn 10.183612410117545 11.447346840283373 12.525594731189678
Zn 8.33788096281075 10.223657936340391 14.092182131614798
Zn 6.664166992217058 13.602922693565928 10.438415527610331
Zn 12.87355893321766 14.803152741880767 13.017402819743946
Zn 10.636805434818026 15.560382131837908 11.776375657931936
Zn 8.760637689750439 15.038683746821535 9.994567132908683
Zn 12.885815345516486 15.843963597433467 10.596255663264106
Zn 10.573362076020846 14.037899739219535 13.958896455871262
Zn 6.923086655634131 11.978718567616209 12.520950958949394
Zn 8.413697485696016 12.72887650617221 14.431028648147327
Zn 8.488271797747208 14.18248310760191 12.374546319969262
