55
Energy = -39.8717288 eV
Zn 7.7913249816655945 9.7088266799595 13.803393994568566
Zn 14.256149341084638 11.516784242645132 10.646807543763243
Zn 11.98409835484412 9.437276178288352 15.427370044187656
Zn 9.980444666523509 10.56311729950748 9.075591169390211
Zn 14.82832553151414 12.378733598833948 12.994409607692448
Zn 11.41113770828724 13.837657899010582 6.495903369550442
Zn 10.212179468926424 10.428987728113947 12.881673889333705
Zn 8.354083925071556 9.906297196864326 10.974734593003271
Zn 12.098353206879777 12.766467112933924 9.456708483968857
Zn 11.817422543591007 11.946236131157333 16.41215662009423
Zn 9.692511837559534 10.719724663883465 15.67938058086163
Zn 12.560978872462206 13.392410804167817 11.914323130168132
Zn 10.208784595186048 14.759138200993588 9.45048803564973
Zn 8.098067474920411 14.416576205269239 11.037984886032596
Zn 13.001185845023858 13.490455543442428 14.45468894204339
Zn 10.442963775772634 15.294870249937532 12.1586889178008
Zn 11.728166518991166 11.29126032712931 7.320880709480101
Zn 15.891834126693935 12.438139123250147 8.586664941182915
Zn 14.11351852083765 10.707747389499005 8.088195213320875
Zn 11.87634361298351 10.69953863003923 10.947714033911183
Zn 17.75070612248373 11.68913380585103 12.6619238787847
Zn 15.90679056972734 9.843034609331058 11.923869048983851
Zn 12.666472083110424 11.082392158361124 13.344981869064108
Zn 7.999398981916487 12.246874010989291 9.678141210765508
Zn 14.11843364950737 11.044706307418044 15.714863960015814
Zn 12.460414505154608 15.351453262748274 8.146853229707457
Zn 7.751554661671878 12.103853959138286 14.807604452941003
Zn 14.349601907809369 14.331806494055229 9.692225090221665
Zn 12.48899648048824 15.845863696686306 10.705791663053855
Zn 9.470186722777083 13.30928098822852 16.192391256623
Zn 14.745025362701412 15.124949222656708 12.170717362161277
Zn 12.7294761575957 16.056109329536675 13.458297596032182
Zn 11.491247378833869 14.431653108433842 17.148559844574997
Zn 10.568148717870644 8.369924834069312 10.66618521210157
Zn 17.38852442114841 11.154712247373146 10.16073181845359
Zn 15.915785786959178 12.900878492117865 15.528854216942385
Zn 9.75552968998581 8.251547438826822 14.734493285738674
Zn 16.30995901748564 10.547711351020977 14.469054141280042
Zn 13.938984255058728 13.624165230256702 16.910418103000893
Zn 9.549134891958618 12.77309964653057 7.783536872094117
Zn 16.406164701183688 13.427757295079815 10.978890399568051
Zn 8.501575296077931 14.214642175967585 13.614102053690678
Zn 10.171427413308777 12.60686764888974 11.257067976734607
Zn 8.842491350531564 7.761768841486023 12.433766553580647
Zn 10.670085438371013 15.299743577847703 14.835824067937335
Zn 10.66962119353484 12.752263492689409 13.774876500207009
Zn 7.640144534297247 12.04065829435401 12.274173936616446
Zn 13.135486595658397 16.102991126171503 16.16792135472519
Zn 13.587478266950205 8.735127863560423 11.200407555393811
Zn 12.324435812033244 9.089144383180265 8.838297789824265
Zn 15.072581759403695 15.231408126273678 14.791123103648616
Zn 14.200782100185787 9.00191739452729 13.8172587798691
Zn 11.781937692020993 8.235641437390225 13.030726548168875
Zn 16.907086065111532 13.987215583545764 13.450036676379945
Zn 13.81004034571974 13.153042197933022 7.251858722562246
