50
Energy = -35.38827257 eV
Zn 6.533713151510138 8.129272918999304 10.881702885050602
Zn 8.005890856115439 8.794993426858335 8.808836093266704
Zn 8.81298368933732 6.790229525105484 10.244801477309027
Zn 7.960585787971482 11.551686958807668 8.213640567305491
Zn 6.936036996112971 13.182654932045468 10.028861117572202
Zn 9.092822564740121 9.62706268475735 6.699223092521077
Zn 7.193230992762094 10.65736333724606 10.512576151141156
Zn 10.726486844487004 8.045261941869088 8.41389508804407
Zn 7.6265088237886784 6.880333011306705 12.747796955448349
Zn 11.329618709933959 6.212069338540776 10.259494627424479
Zn 7.216341637795013 9.630612646674075 12.98405607545583
Zn 8.870097430249453 13.986969905105239 8.506841814039161
Zn 9.283462764375084 9.171993392256017 11.320378711328878
Zn 10.263217862938733 12.268722774146806 7.194595414383789
Zn 10.203593068610074 6.669996831188862 12.467467979211426
Zn 7.378288862216216 12.393641285045318 12.492618950986033
Zn 8.220014141811209 14.838994159880466 11.46457814916033
Zn 10.256092014925906 10.478148771337212 9.373085460635487
Zn 9.560337964850763 12.380070509706234 10.906665420817678
Zn 11.53510413515344 10.0909844976725 6.616411915543843
Zn 13.367628481163477 7.4767317398140385 9.531540635354196
Zn 11.780485098715102 8.814898470700196 11.200429595680031
Zn 8.85953864167676 11.184054370686347 14.28779171214247
Zn 12.889717945244511 9.895935134411353 8.758222533566633
Zn 9.478191206384624 8.651603005567049 13.983599370089989
Zn 10.861245194983086 10.804426731615031 12.543861346838671
Zn 12.86110830736612 12.241600774442542 7.274054986115325
Zn 14.12946695262563 8.14095226962038 12.17972037422942
Zn 9.306455153760966 13.701514192260147 13.609393665744731
Zn 12.074559642816679 7.9713486952952115 13.710088250194325
Zn 11.573446119952356 14.40878350011223 8.142241262361296
Zn 11.693768023425596 13.147951658281567 12.283484643172223
Zn 10.142162321560832 15.639825856278758 9.903908965295098
Zn 10.574610222189568 15.646550467900202 12.410734476460274
Zn 11.423843516521336 10.049003993538422 15.07888790785417
Zn 15.090497984671266 9.34723136554653 10.097247263111523
Zn 11.9394968861404 12.27001447552932 9.867989466175816
Zn 10.943292867382214 12.477567556009237 15.16179929759974
Zn 14.985195779721444 11.389686134410212 8.475860830947722
Zn 13.320932480290102 10.973807201323483 11.615279041635452
Zn 13.83137054652529 10.002263697641371 14.0866702254237
Zn 11.60041334198893 14.874581731044929 14.761374315533248
Zn 16.10371924260724 9.77400905426473 12.531556220771224
Zn 13.263453807318184 15.547597312478826 13.112566654095268
Zn 14.097851781090235 13.670373639149467 9.134003660988661
Zn 12.510741447274903 15.030702168046366 10.601501199195583
Zn 13.383023940863175 12.678077715703548 14.373564574510228
Zn 15.86610194351643 11.806502604176154 10.86124199320478
Zn 14.32324256725816 13.594278595635327 11.79084028646503
Zn 15.682824666355723 12.022576410956079 13.498049697400864
