50
Energy = -35.53797595 eV
Zn 10.937673906540638 12.698488014694744 16.25437331316453
Zn 10.652768586267046 10.301460559052552 15.261477436172292
Zn 12.953120955031947 9.131495808762047 14.076509086126777
Zn 10.594523717748627 8.10634945468727 13.92550442438991
Zn 8.835721254606122 14.320201657912081 16.344971659742953
Zn 13.090949828438676 14.025653974618283 15.63216831613233
Zn 10.673954069714872 5.847448546641281 12.703605405255919
Zn 12.985332279172328 11.518719412807386 15.044433863142778
Zn 10.663246002047316 13.200765606043227 13.654717613408137
Zn 8.801788970912822 7.957348393982768 12.100549854771897
Zn 12.905734837999914 7.044837683905521 12.503667185897022
Zn 10.889796455134336 15.361454182057692 15.162489929628993
Zn 8.598872693121903 12.070352415711753 15.14684912479395
Zn 15.03078551563644 13.37368451361351 14.003451756727374
Zn 8.577570168972203 10.014853393679756 13.620241992990584
Zn 15.014592358368212 8.45113324960469 12.358455099046035
Zn 10.891338132136092 11.025832834640529 12.55628507612768
Zn 11.29246309681322 8.872003755254743 11.346911088491073
Zn 15.012799015097647 10.77377368873109 13.561398864300509
Zn 8.570408622401473 14.788264346391175 13.818669637005254
Zn 9.2726117343665 5.864817208199546 10.633984295290347
Zn 13.861045699595156 8.110487816323944 10.048039596965713
Zn 13.227611220167166 15.379659208489517 13.452636703776474
Zn 11.718015909402219 6.579746971806688 10.144614501630794
Zn 12.887245757596482 12.81113531932722 12.563917403303742
Zn 15.651047634193935 10.02245054505094 10.38153686194068
Zn 15.131064473555954 14.743124341080819 11.624394508247777
Zn 8.271040306395395 12.451895557708127 12.46716261292045
Zn 13.292609073647226 10.548256800993956 11.444207949144902
Zn 9.417692248979396 8.211607592607393 9.537693143634641
Zn 13.704743516114918 10.506413574993275 8.466931454452071
Zn 15.640271334093429 12.308665440504026 11.64588263727236
Zn 10.769537681636923 15.767667898919534 12.592361061596778
Zn 11.774022987821235 8.677803275671415 8.528102981002352
Zn 8.46931177710323 10.255174423748759 10.976860283114197
Zn 8.46951135106449 14.869144137637068 11.259640136826814
Zn 10.848264288682074 13.426983586327099 10.99777882501934
Zn 11.252691770961102 11.139197131160232 9.904676335275765
Zn 12.836017870833981 15.528531060662933 10.884669677972383
Zn 15.665900441594662 12.180640004624257 9.035421137054325
Zn 13.324880347777823 12.965649240157578 10.021009184901231
Zn 8.475583027737176 12.525923638454062 9.825845885969478
Zn 10.512742833290623 16.24089978444281 10.07412016030824
Zn 9.18334121506397 10.3776750458504 8.31801098480439
Zn 11.51943683752667 10.73959515165284 7.016694730331367
Zn 10.253268164715442 12.749299123066507 7.939063580186545
Zn 14.509911872464611 13.945069138951949 7.736619966670844
Zn 11.959225342994426 14.80331958671508 8.454330936689093
Zn 9.087822179851877 14.79640842898202 8.73460076148459
Zn 12.504680153060601 13.0249748844448 6.599280398581258
