53
Energy = -37.85817154 eV
Zn 8.566513618469363 12.16489332354288 7.412307746106934
Zn 10.777240037542935 12.578883124339686 8.785934096756382
Zn 10.662326393216269 6.960488733857456 12.786302534471488
Zn 10.887339919398334 13.63959683103922 11.125997867407955
Zn 9.617062976815301 8.167400537257269 10.702446093066676
Zn 12.21038888259123 16.456935534886128 10.64322102770042
Zn 11.129474526514537 15.332424670615005 8.643395463185566
Zn 8.924236784110033 7.724376864904809 14.5438725777634
Zn 11.924242155676334 11.83004832729887 16.049763786707487
Zn 12.342015411991865 10.00228822015831 14.277765901387696
Zn 9.893602425175741 14.347525027259454 6.609920164303478
Zn 7.939481304949762 9.956299144956361 11.541361700314853
Zn 12.947567073671047 11.982090530636022 9.999586393465076
Zn 13.746981026196817 15.178304620972817 14.385690180038198
Zn 11.464124004034105 7.451304168396967 15.224249554623546
Zn 11.454439968167778 14.16241126654891 15.081594226645851
Zn 12.67232395259831 10.962115860851556 7.45405798986247
Zn 12.271409956596719 7.844667462208516 10.857119087407112
Zn 15.043039199075363 8.94144207961847 11.497600894448658
Zn 10.926814049685493 12.013763120804175 13.14991112428899
Zn 10.258574649983043 9.537378317691347 12.872957110800636
Zn 9.770506254735306 16.18299938361191 11.09170330587671
Zn 14.25740968156938 12.73932431653604 15.101850139235532
Zn 13.114200864282308 13.015947093783373 12.395729814071984
Zn 8.168781601231863 12.29696410443772 12.672276029800717
Zn 8.64156184248668 14.50953044096894 8.793891026571357
Zn 13.26936279576656 7.617038388811467 13.25037186784715
Zn 15.599343838290467 10.956224759528844 9.975364190833654
Zn 7.968309347099599 12.156817863017283 9.988430871965523
Zn 12.791906207359839 10.345296152449693 11.84288832095328
Zn 10.473689034049384 10.989795433358436 10.73525402180045
Zn 14.338634459171951 10.480927907035886 16.256559716233465
Zn 13.955174065879635 7.957812544923179 15.920728869244684
Zn 15.592366358865501 13.952759514124377 13.214201390929992
Zn 15.340129704818338 11.441399102722183 12.564867884192465
Zn 12.666462890275916 13.631304858227494 7.099121310807031
Zn 10.02658831835227 9.908340090745428 15.74391766008572
Zn 15.087093923743959 9.26418269185251 14.03545500655138
Zn 12.127700469524068 9.253609987396306 17.045498522543095
Zn 11.231844606404737 9.073279595208074 8.83756761571052
Zn 9.368742994681167 12.442400837005911 15.211477696083843
Zn 8.037382824290255 14.368420991038366 11.232146965636986
Zn 14.248998784338093 15.565997521915362 11.814394370106843
Zn 11.664975333776802 15.70253653080699 13.021391905119382
Zn 8.079268118539192 10.267292784346942 14.191985801568045
Zn 9.41006816324323 14.495776580815047 13.446122199718891
Zn 14.810054434850649 12.63215854842954 8.145169631952982
Zn 13.73737869227902 9.398881927896372 9.274951874921545
Zn 15.577133365556255 13.408749665952856 10.710390980737207
Zn 13.561351600014715 14.633666047903636 9.432461966228388
Zn 10.96899237219894 12.297989107385437 5.761707492512534
Zn 10.11435982005819 10.18556169737961 6.85971410046693
Zn 8.58509613797552 9.836442984711464 8.931419151109935
