54
Energy = -27.49462245 eV
Zn 7.706810612682856 15.095515417658834 12.030343914998323
Zn 13.207538159664656 9.52120308022991 14.56569693989339
Zn 18.423090835917808 11.146791600018666 16.397006198566114
Zn 11.167912548353621 9.396388411230824 12.741126960866595
Zn 9.573671931987418 14.224879185052604 18.065528083944738
Zn 8.562071404794395 10.861636906680639 14.835264351768608
Zn 17.426497228583138 17.7744991885413 16.926432818515735
Zn 13.572468495954908 12.110380264702428 10.525779310286424
Zn 11.558092756732776 10.290021763876926 10.31167477761361
Zn 17.26111601459801 18.40217938167108 14.29058731183569
Zn 10.450786709494224 19.21999815514619 12.503443223946334
Zn 9.342048883961947 11.10957526005923 9.426915571929399
Zn 8.672729872711807 15.488531407431408 14.359476810550898
Zn 16.692795428142077 17.0242697788334 9.66435097439565
Zn 12.32262938172102 11.635146356430223 8.181630543823898
Zn 11.139017068456077 14.773822556681145 12.210903848950624
Zn 15.677226800337358 11.054639285236377 11.512174644043293
Zn 8.20779130052312 12.997986729411116 13.474144611433347
Zn 9.595703949126001 15.339558665701258 10.17477920812572
Zn 8.19094333389308 12.923268871775273 10.81213318384504
Zn 14.710944640473505 12.495185499070768 7.660208362852547
Zn 17.77505762212672 15.85669157052923 15.089207715603461
Zn 9.302279787256 13.584750598003511 8.453421202308201
Zn 9.78994427402379 13.51644559197469 20.62678145860221
Zn 10.460705094273703 15.586462538885788 16.1801929640355
Zn 13.465666422466365 9.829470284921317 11.899262362153584
Zn 11.641361897056148 12.197742102893287 12.502152355176909
Zn 17.19321833881501 20.728652255134463 12.903864957612385
Zn 17.42516394385317 14.81438750766992 10.751770661696739
Zn 10.169415022430433 11.789439310640526 6.932950517187035
Zn 15.74483108992232 13.222544622297008 9.89526952460045
Zn 11.383887074979965 13.34966304181524 10.11520983960585
Zn 9.148757456691486 10.873335035464168 12.081446000368375
Zn 17.932209117320966 12.3957067725199 11.30653812059786
Zn 18.752584449937984 14.30208757684966 13.093033183948272
Zn 17.315051731165422 16.43831755627582 12.62639475942879
Zn 18.546955508774804 13.628179712753994 15.788834735444768
Zn 18.66565932322584 8.474780254470225 16.92339212914139
Zn 11.511533981035718 13.838891337254186 14.493955157358005
Zn 17.2699886672977 7.419380584628503 12.857940240683213
Zn 17.754361281138607 9.322375622911045 14.615086132121874
Zn 15.460331340919033 9.338836520606138 13.493801085317406
Zn 11.156437677924554 16.69404149856718 14.080898234302742
Zn 16.252022100138547 18.66015626336047 11.611693526531646
Zn 9.39835452891874 16.919641400635417 12.2065462310626
Zn 17.90007051052677 9.928234063142142 12.095210942670382
Zn 11.009658765321875 8.584028013759136 15.31240928539221
Zn 8.816476702487698 8.549886460245457 13.44621898038537
Zn 8.614366216329877 8.573148268823681 15.95313501094788
Zn 6.954049256818709 7.61316892880241 17.674006417485078
Zn 14.923175285138747 19.417739706761463 13.790868845795794
Zn 11.303396788002678 11.282430593221939 14.958362852288248
Zn 9.42055898143916 13.029572367867504 15.817747037802372
Zn 18.501457682832054 11.781189094501142 13.734630098471166
