51
Energy = -36.68869035 eV
Zn 13.902290387841179 14.71449157210273 8.096857780271018
Zn 12.681937624648368 12.636733026990054 6.656047626611649
Zn 12.187564781241162 15.11548347196293 6.306966090372606
Zn 11.443785393007136 15.771186200894507 8.637912739314704
Zn 14.653362257675457 12.17173882961501 8.365285416933501
Zn 12.795123512342553 15.272519788394966 10.693716964393873
Zn 15.064214179833309 13.987826735663234 10.213496504424201
Zn 12.056675103806155 13.025798963143457 9.208693280671774
Zn 14.133525776878109 13.94978239518952 12.564627833963451
Zn 13.053368509582715 10.186986981964449 7.506556092962019
Zn 10.194714659544314 13.815093624883412 7.377648514274084
Zn 10.59664791581301 11.263274268340218 7.43620914928315
Zn 9.594406298657729 14.524667574792845 9.97223660703811
Zn 12.015668592914537 15.374485664546622 13.159970648965642
Zn 14.18604246064454 11.689237304595306 11.114129347147047
Zn 15.000369110964385 9.866509457121117 9.353655044514975
Zn 15.372869909887418 11.852047558501898 13.439491205253244
Zn 14.484349473403885 11.911345285770901 15.849923499542394
Zn 13.43535482675545 14.133656378110958 15.005153980288659
Zn 10.855048328040164 8.732667560041532 8.164090202971243
Zn 9.60354427390801 14.733469610063429 12.566330697577413
Zn 8.602294986622168 9.955167206532748 8.529691822015213
Zn 13.115755544315729 8.148612577536278 9.483723921178832
Zn 12.437423886113384 11.942650195738372 13.744109109700354
Zn 12.076946653422622 10.583779078002353 9.932102696820197
Zn 7.893396784121658 13.171915672049723 11.443974792777754
Zn 8.131319472339282 12.696033646934382 8.276605222163147
Zn 12.21404940058056 9.840345532299127 12.316141364881604
Zn 14.77277809043486 9.22136584595118 11.795557645019436
Zn 14.641915801705832 9.606031646944563 14.421101526019411
Zn 12.198445938952823 12.647582083498568 16.672014932791903
Zn 6.91593624724415 11.306487326292162 9.961536494250216
Zn 10.658523487490898 13.92288937940272 14.841285502558504
Zn 11.643079452267267 13.036944287553615 11.662447804139545
Zn 9.854635745452189 11.801455711119972 10.179013060130837
Zn 12.970217779108193 7.271789917126028 11.83936985716458
Zn 9.996141790951002 9.333044113122844 10.96242181519964
Zn 8.767063090438668 7.396922963642099 8.989087533324607
Zn 12.433717712237161 10.191229339716923 15.745535780440463
Zn 8.37074193588731 12.898530961032428 14.03354121235532
Zn 10.081564910016798 11.25082970979334 12.758668931598187
Zn 10.961020719512229 6.806182492170634 10.204235175770364
Zn 12.651200005330587 8.016476550501011 14.270611853354616
Zn 7.273445485317604 8.806376965839359 10.613255013066581
Zn 10.08275550121977 11.550733103221777 15.759576426485351
Zn 7.187935281815199 10.855039250085111 12.421725652582818
Zn 8.038685267385047 10.443280534701922 14.75007096038497
Zn 10.559014633167106 7.2975933101717 12.810255577783364
Zn 8.554011500429654 6.58704820832096 11.31031669190364
Zn 8.302987936257821 8.529165653067182 13.031257767758879
Zn 10.354545888471257 9.221636520331009 14.551875760857422
