50
Energy = -35.64968385 eV
Zn 6.780816714837469 12.868972746212902 8.305372295354235
Zn 11.679727504645975 12.300890030722146 10.939043130631777
Zn 13.889107093308661 11.46473548879152 12.40020712804399
Zn 8.568414296401693 13.874355446265001 12.840947641391093
Zn 10.07274359858393 13.638130251703078 15.043301142418258
Zn 12.367761415536222 14.859445291395485 10.312910956786785
Zn 6.162771813794335 11.138561817170869 10.180349598209865
Zn 7.860117557204263 10.60217811055415 7.993256320609686
Zn 8.611756952346656 8.22729437852085 7.483480773113523
Zn 11.430522665523691 12.391909853425139 6.434620211699688
Zn 8.985209984747657 7.737798340129554 12.606070406074465
Zn 11.803893113720822 7.480181043126222 12.999838382939819
Zn 6.847467811482897 11.678329999465234 12.620914958495364
Zn 14.389880045673536 13.127571539695907 10.426562094369698
Zn 11.240257916692679 9.798790104130365 11.66996533500978
Zn 9.979414438797203 11.676915228298368 12.741340903049453
Zn 10.932916382392234 14.212355362688193 8.244706399069011
Zn 8.972325100821182 12.734027437149248 6.843213431071294
Zn 13.886559491355667 8.100080908291277 7.535946531692959
Zn 10.442903589600053 11.118643258586408 15.356918239645404
Zn 12.873819530639247 10.338765516678853 6.925813322329354
Zn 9.457664497479504 12.325791320082374 9.556795181815923
Zn 12.29476819504597 12.554303092208768 14.097246247139427
Zn 13.111003290686607 12.756905396275167 8.294967008103695
Zn 13.233164875330676 6.419039738690405 11.187866337419141
Zn 8.400157866008385 14.854297976782789 8.362188851339477
Zn 12.572337138251838 9.954515142047294 14.100639781798819
Zn 12.350385963044737 8.445334124082184 9.754132454941848
Zn 13.878187735954153 8.901921916598688 12.001214139026922
Zn 8.089976028335018 9.799255417992992 13.850313570443934
Zn 9.674401389618193 14.846012333073155 10.614633295705078
Zn 9.967005307296617 10.285414905509676 6.3974592194932605
Zn 11.249081311894901 8.127465287818378 7.379858106547095
Zn 7.283759273096104 13.438550596792702 10.732077455293604
Zn 9.823481110453525 8.499507427723463 9.829620806318633
Zn 14.666314278784531 6.136954303305832 9.037305644510829
Zn 8.688895712174682 10.413037344566666 10.946122349449391
Zn 11.07333643450469 14.518185574653035 12.720398438520583
Zn 7.831135030549732 6.831803757420524 10.469044232314161
Zn 8.0221729243496 12.157405184982801 14.897461588050467
Zn 13.781701631717612 10.680955024053658 9.827357118930776
Zn 13.607615339807072 14.202027076632271 12.538768399462445
Zn 10.31988511170852 8.739263413564842 14.56847268327086
Zn 10.554985628798297 6.261615403426194 11.04772770480641
Zn 6.675346763671983 8.963784229576794 11.773553750942433
Zn 12.147795308913409 5.7790574132750745 8.845208552770307
Zn 11.170299790061494 10.627664175963444 8.953747885127727
Zn 15.187187872841367 8.466903793857815 9.769946718754069
Zn 6.6328562079604065 8.71270115754403 9.2064127535541
Zn 9.708582311348831 6.162266666291228 8.566551869936431
