55
Energy = -39.29951239 eV
Zn 8.9251573393502 8.673473653740253 6.900201770786137
Zn 12.795586291842362 7.651051403836035 10.291722504542074
Zn 10.341091818275569 6.789569053835264 10.790717539367694
Zn 10.195862727165705 10.551300588557647 8.967649676928094
Zn 8.806027105335057 12.904180857183494 8.215372489040934
Zn 10.824272201656303 12.683462111054297 6.623039159674793
Zn 8.873176004761845 11.109176103338072 6.264919575030083
Zn 7.173331187533482 11.23738384872763 12.912361716241291
Zn 12.31400427336638 10.567017224692064 12.703984910675636
Zn 11.810072090225347 12.550661477169147 9.25978725137087
Zn 13.287204330192548 12.646196691250749 11.352626958084217
Zn 11.872722580551562 7.848767569548503 12.90202458729334
Zn 7.580228340361266 10.363913287153123 8.409788780938767
Zn 8.607287748127957 8.550509661359406 16.020325652442985
Zn 7.29910725169304 8.800736421967889 13.6353120500778
Zn 16.19335006368259 11.964170968711304 10.099385006027243
Zn 13.847985551226083 15.132667781242558 12.221097931392524
Zn 15.287525103341611 10.783397617594307 8.016525709392491
Zn 9.990914197702685 11.887391261633098 11.163326472616774
Zn 7.756574300772688 13.616994649369946 12.401543763639227
Zn 8.44129680382325 7.845312735614139 9.263871421982365
Zn 11.979546136732734 15.63097411508653 13.929895518480153
Zn 11.237180366642125 9.923796063651364 6.602500455090518
Zn 15.704817640551623 10.592791711319839 12.153024371826106
Zn 14.904077472106081 13.310756775403421 8.295086102929016
Zn 15.688724228019787 14.395495008772317 10.563494138814162
Zn 10.87737863515165 14.94600117522641 8.685968662274707
Zn 11.264629251322233 12.873641505977789 13.031814113012034
Zn 9.751816946680874 10.561051824525608 13.491167859721841
Zn 14.675207568737797 11.347818125247429 14.35035998817376
Zn 14.205572274973033 8.566212884557183 12.246275317665837
Zn 7.539569272106211 9.630148961903183 10.902265504115503
Zn 9.876127875883446 11.381886377725602 16.19244446276323
Zn 8.672868421200882 12.963690354478565 14.666126225448997
Zn 10.227452625549207 9.329117415590728 11.217556768371502
Zn 13.29632692644438 9.117909910121643 7.996801314244937
Zn 7.466130481621455 12.155564973246207 10.31141308027219
Zn 13.140116206904183 11.632940764831062 7.0386138895247825
Zn 15.58602989826728 13.123104209788535 12.740680363977427
Zn 7.9687535896494195 7.168470317982236 11.73104716673006
Zn 13.484263320553778 9.1401080232823 14.720038926385786
Zn 9.517218234850345 7.6258084700437365 13.753857624616769
Zn 11.02559530021649 9.02409953330084 15.469743684349044
Zn 13.38209152499536 15.011482296291444 9.598206678736343
Zn 11.404670290572946 15.452324029161487 11.31171209206477
Zn 9.162489467460288 14.317234434525346 10.425428436498727
Zn 12.317329691840238 11.399359549303474 15.366102247210687
Zn 9.644546476432948 15.032730868121982 13.275439199990533
Zn 12.850207976154746 14.230897302196604 7.196144499344046
Zn 11.046886097877962 13.744790351765094 15.562456047958714
Zn 10.92360240407927 7.997179486728823 8.439417248887342
Zn 15.119066741820458 9.247477597619667 9.981179304752672
Zn 12.56201265842827 10.345774463913015 10.216955766847938
Zn 13.456430895525347 13.60196315058909 14.3283275477633
Zn 7.492210789658693 10.69378800014237 15.466595463610272
