53
Energy = -37.69381654 eV
Zn 10.879359353390713 8.481930805420932 7.969726812635583
Zn 12.934268118058375 10.05787304431107 8.016513314555564
Zn 14.634730069012532 11.871929186803944 8.711124498133914
Zn 12.339719388522902 12.67047326179756 7.972413558421053
Zn 14.533938343107549 9.693035140626531 10.174602846339537
Zn 12.542704109556482 8.115516699127303 9.91563781792441
Zn 10.461219820285656 10.993361783090966 7.865632948935314
Zn 9.79661675216876 13.49552907132222 7.91813347072396
Zn 8.32636283754462 8.816824379604652 8.448901710406872
Zn 16.331323404345657 13.790037179509014 9.520479486709059
Zn 13.775267574304118 8.421298645837325 12.30533121596182
Zn 8.060502439744212 11.646531731835665 8.578987084436339
Zn 14.11826029429248 14.629520672506715 8.685100855621291
Zn 9.76269204472735 7.4776404053495655 10.020390567499554
Zn 15.992729408857594 11.653495727818932 10.931051207651244
Zn 11.987450473328526 10.792860139300236 10.382397346452404
Zn 6.712704202537869 9.93361942704709 10.045758988356742
Zn 11.709082048165193 15.150808486647309 8.11013604225586
Zn 10.471990641208864 12.925524526017934 10.733051494792488
Zn 15.845101182569957 9.983424537441806 12.925327253228938
Zn 11.344918983181877 7.587033024199917 12.079845947371407
Zn 17.38338854927056 14.14926292040976 11.846061453838796
Zn 7.12301418272924 7.48545751843846 10.757116743341959
Zn 7.82153031181459 14.121990554952715 9.389994418932346
Zn 9.46681307231896 10.502830064702732 10.503543331324916
Zn 13.142057456040089 13.146169266826766 10.722119086469295
Zn 9.918680387451742 15.523018869975779 9.876366501136767
Zn 9.044358559143873 8.668964993103351 12.195232599288031
Zn 13.457364264758011 11.159307883281288 12.459300454595223
Zn 7.3600700486635215 12.292537384852832 11.092649769622241
Zn 7.696777278223556 6.500138194603966 13.124554019745409
Zn 12.543845414409033 15.870038368603973 10.414274679595117
Zn 17.275594171075667 12.158907625591457 13.30011332124652
Zn 12.321807082197251 7.745411056182376 14.393589811329267
Zn 7.047277978975819 10.181026533222253 12.557470631728036
Zn 10.950508464857153 10.485321171236864 12.799803616972746
Zn 8.451703827206153 14.467253100595482 11.929748871845344
Zn 14.000059867698617 9.497886395555797 14.843999934276539
Zn 15.1447629105939 15.449931517607773 11.077188688847418
Zn 9.791887188677148 7.48818540056692 14.39472289591552
Zn 8.205392384379627 12.35133791727332 13.54782216881658
Zn 11.103911067734412 9.666278521143369 15.513253421537398
Zn 14.866143415775218 13.435499188707727 12.799530502462515
Zn 11.692789892016602 13.00828539235867 13.071611406704296
Zn 8.734096251714575 9.986838129059922 14.511762771815842
Zn 15.138555416212416 11.739222436068832 14.755413478417848
Zn 10.75552319518159 15.495112247218255 12.30605346322005
Zn 10.225081596256409 12.111280368077413 15.21010803161162
Zn 9.479623029990698 14.391803246453469 14.304514473308478
Zn 13.309864980047298 15.464417269735302 12.919845557762672
Zn 12.66885513597847 11.669183348874713 15.603699762457879
Zn 13.627400995808406 13.920234061340858 15.009278159791156
Zn 11.63043599413651 15.445732296230304 14.940202881604689
