5
Energy = -0.51204511 eV
Zn 14.069240111218933 10.035233548085193 12.875306227020733
Zn 9.181582591775767 10.906019374433289 9.423653525626422
Zn 10.560980764069125 10.36358698262133 6.663133970677409
Zn 8.231230419885522 11.179215503189893 11.974159342624652
Zn 10.766374398584068 10.514947344534026 12.048416878153137
