52
Energy = -36.78972716 eV
Zn 15.224971115216562 7.5827621555566225 12.92458190566504
Zn 14.696386484091846 7.565710676407612 10.303379787683806
Zn 16.366000091856833 9.184557462962788 11.270391892584428
Zn 13.920248352339675 9.153527679522352 8.446072672466817
Zn 15.33912311348618 10.039124931472605 13.787339717591152
Zn 12.718899795600898 7.3485998234754994 12.125578949265638
Zn 12.14654154096398 7.666077128162528 9.545235882947852
Zn 10.644059144736797 7.794278779317841 13.879450681071047
Zn 13.235586230311771 8.58346778354229 14.326285310853493
Zn 13.770789251420972 9.901124748533714 11.62788595294288
Zn 10.794527273558732 9.943018590842767 15.330822934836393
Zn 14.802542999906986 11.277943956818483 9.553369732585809
Zn 16.31045857283187 11.62128482783327 11.890735263950198
Zn 11.371314620765496 9.412073777329423 7.489177131254751
Zn 10.30284069905453 7.565437791683199 11.352602631570248
Zn 11.841538508436171 10.30762409418843 10.123224466895465
Zn 13.017017271835472 11.372519992277107 7.4653957399450865
Zn 8.827357120943573 11.415836281096054 16.231296176653853
Zn 14.641408200204657 12.53626588017885 13.731547189034929
Zn 11.465157747599115 10.069889442075167 12.642619177526276
Zn 9.05973243836192 9.769002104293083 11.444198104244201
Zn 13.123392833087768 11.005513541937242 15.12048215338088
Zn 9.549965621083068 8.526868016832 9.12165964916972
Zn 8.431368197805472 9.089166059246452 14.373623527171628
Zn 13.008405573877253 12.370065869045732 11.412115873190071
Zn 15.267871786298931 13.635230449368816 10.710116403180223
Zn 9.407824245445921 11.413339119994841 13.523835113035796
Zn 13.002324515090585 14.244926772189292 15.099747368295498
Zn 13.983981586119961 13.585450737063045 8.426825247083336
Zn 9.65266592754965 11.14666953680555 9.16416898734411
Zn 13.999125831765218 14.75981960830002 12.780320340877129
Zn 10.39152146157581 11.792496295202499 6.477100185816604
Zn 11.663456661286238 12.530630267638013 13.477138333439223
Zn 11.124291232611881 12.5071118844319 16.090111345794273
Zn 8.790198728025342 9.87949692458218 6.834146148220668
Zn 6.654575440198276 11.13152788950504 14.972411798694456
Zn 6.836302642916569 10.17564575228716 12.669258863258314
Zn 11.6142198762099 12.770927731005392 9.281906733950963
Zn 10.192362383546705 12.377685764170375 11.346495689124259
Zn 13.097845103331947 15.07352191003232 10.405907655659068
Zn 12.093423199227516 13.642742758592206 6.427936478692665
Zn 8.056511903182551 13.373853592217419 14.76538541148596
Zn 7.279877927814981 11.249343285592786 10.18276944066358
Zn 11.494432472615 15.070527541973975 12.4456526250731
Zn 10.313443643160497 14.546735556400554 14.739113962144092
Zn 7.327227575850899 12.672897708603262 12.338511086807888
Zn 7.821532732648462 12.147940795890062 7.610014677335116
Zn 8.199646433365562 13.674233395157483 9.953270557064295
Zn 11.99189390967222 15.42356569538676 8.09534464549395
Zn 8.97185091274974 14.601545690986066 12.467088217844687
Zn 10.296808323576503 15.199085350132842 10.129441474794191
Zn 9.708188846272002 14.019653423241845 7.8285130560035086
