5
Energy = -0.64836112 eV
Zn 9.580137199052087 9.869832015265533 10.155633709761947
Zn 7.96207158131889 10.207208776639327 7.714489145703224
Zn 10.783502910404835 9.015152310248554 7.823302810908392
Zn 12.316998463299578 8.911163680694978 10.526225709083802
Zn 8.194341596341964 10.769913209021878 12.526727170949885
