53
Energy = -37.52702329 eV
Zn 17.125377004882342 14.22285251864766 12.963493924436833
Zn 18.544972932398643 12.93899622517401 11.186370001121121
Zn 17.673235013367567 11.424462568103776 12.930965080459385
Zn 15.58486801655424 12.803118173182643 14.70831741657432
Zn 16.7202623587781 14.431969802919923 10.34096271874585
Zn 17.093621661284402 11.080135073245588 10.247094883807234
Zn 15.92642242771168 10.231783502105404 14.305880887125518
Zn 15.385487164409973 12.588606205769693 11.861867457304303
Zn 15.420950634751245 15.472328989799841 14.421857709416306
Zn 15.493343443352487 12.657855914067365 8.850144135026326
Zn 13.798594095970959 10.931739598307585 15.515489386890255
Zn 15.713523645240132 9.538569855784848 11.877321073896564
Zn 13.148128247742985 15.892393186553102 15.26932402157879
Zn 12.86056405195758 16.721099412870068 12.710773989994614
Zn 14.636249555403458 10.220076333302048 9.633535336628762
Zn 13.151471661220828 11.753902117099017 8.254741083229394
Zn 13.481994826487657 11.120766505016919 12.423384698793935
Zn 14.64935508764652 15.126329710088637 8.992724869852715
Zn 11.852409668307859 9.205598493027354 15.340018500170132
Zn 13.433793687235811 13.440058510176518 16.07297140697212
Zn 13.252773880858289 13.262648688305216 10.683020406837185
Zn 14.848661285798002 15.58240294018384 11.658138720317359
Zn 13.89770294345248 8.756755305769905 13.767596028386441
Zn 10.912301606285185 16.326034651344667 14.21029983173362
Zn 13.41289386308655 13.8735908632306 13.251728216729491
Zn 12.326458699894177 14.201858284882139 8.346417412678678
Zn 12.404156289309112 15.953206281017417 10.258872799258095
Zn 13.380941610910375 8.487538991402655 11.179080619879612
Zn 12.096079451676994 7.101214854707373 13.034409909970627
Zn 11.603178586750422 12.186725071111212 13.906397550069771
Zn 11.301749338357777 9.897615560951838 12.798839665364193
Zn 11.455095054285508 11.623520740553792 16.44745502750959
Zn 11.06095898827109 13.912647034592446 12.116603497257564
Zn 9.43842447108596 10.021819218445684 14.726550777733275
Zn 9.079072622491925 14.657163486802737 14.030184625411486
Zn 9.88079079320246 7.479737394994126 13.965150243321851
Zn 10.686219399805305 12.245637656077273 8.396572465060377
Zn 11.30642127466944 11.63080667539774 10.851304278726564
Zn 10.248751745031825 16.383199977371035 11.7253276878497
Zn 11.058747936413427 14.24448403224686 15.72160722085575
Zn 12.075394526997032 9.637562810144559 9.189775375628797
Zn 10.803034490645752 8.116880096240061 10.934182642504654
Zn 9.297794371352396 11.870451205638693 12.654378504022882
Zn 10.141929724594998 14.638262704315022 9.657757535728294
Zn 9.167335448560106 12.461845143276534 15.454543777676733
Zn 8.7219179329821 9.18867159730115 12.326459646425125
Zn 8.275697165761843 14.424397824895642 11.549083740942624
Zn 8.680290271714306 12.46576571528686 9.99570528952194
Zn 7.109959154721129 13.047173682832112 13.762743250001808
Zn 9.50180517017023 9.933105459044864 9.664848526305834
Zn 7.0952576712246085 10.344534232245387 10.470496216698853
Zn 6.634728629451072 10.695875546322549 13.01435827299873
Zn 6.302252426652524 12.609695658605842 11.31143989253075
