53
Energy = -37.03313937 eV
Zn 11.257749187281627 10.312416512177029 7.5262703446537955
Zn 13.511050996200977 9.180565863022533 7.822510903373346
Zn 11.10184621713055 8.027059076035796 8.513210942389097
Zn 10.388764098263954 12.435867435563063 8.592931686582174
Zn 9.184796998518706 10.060484278584187 8.977980169282874
Zn 13.209463445220274 6.5836356431921645 8.54623465997572
Zn 13.161058121438577 11.815670010407056 8.252770635378404
Zn 15.475533976741417 7.671913466878737 8.825943415796516
Zn 11.502864840066417 14.8179946036412 8.74696544440085
Zn 15.46993162909618 10.289926823153342 9.233615070743857
Zn 9.25236583494576 14.610986686985399 10.050817675441703
Zn 10.683995526330243 16.84236198992663 10.170854126153719
Zn 13.843081948400345 13.99322969203039 9.442794424742875
Zn 11.419776799562227 10.49978936523332 10.495040954037233
Zn 8.443447675304055 12.150788695474265 10.421735501926744
Zn 11.776113612944384 6.759550803442036 10.700835747963312
Zn 13.405994579879975 8.972695812552299 10.443902873425523
Zn 9.486941628990813 8.057882064034617 10.556891281812453
Zn 13.188723953032877 16.14788117234479 10.441755488860405
Zn 7.680405379769216 9.714280937190964 11.13498298467844
Zn 11.37722888225025 13.039649532171266 10.933234804685958
Zn 14.414325027816423 6.51394770120064 10.96730327411998
Zn 13.932172682887105 11.767979705484068 10.835264386532566
Zn 16.166688617940604 8.498411019003356 11.189295653033072
Zn 16.408975915401932 11.038906162398922 11.465002445966558
Zn 10.124598177782962 18.62830104309416 11.926240780336961
Zn 8.911184937898055 16.326074135728255 12.144541284465937
Zn 9.910999868860014 10.86604697439135 12.518536613060714
Zn 13.88386026462348 14.242947150335116 12.108584625113245
Zn 11.388271991545029 15.172553816262688 12.224681773486706
Zn 12.490606294639724 17.864742104854095 12.171317053565476
Zn 7.725661689746187 14.020148143553625 12.123349368427528
Zn 13.257590163998705 9.930483423364718 12.663997961804014
Zn 10.949160849377284 8.507152966024357 12.61619944878462
Zn 10.653342831064215 17.078511480321982 14.028715975117114
Zn 13.224701169355848 16.171053367039413 13.965541101130718
Zn 12.281024411295608 12.202260842387716 13.13800326477563
Zn 7.3792218638051965 11.46457834511741 12.941207504150224
Zn 15.155850892780432 12.296171206885337 13.354839740222063
Zn 10.032691418137613 13.370765220308522 13.31275332157367
Zn 15.334675742773497 7.342084173234569 13.290609248288204
Zn 15.736617219450789 9.811100045416389 13.677935861041345
Zn 12.855656859812958 6.889551337784071 13.05001192400271
Zn 8.570910204251943 15.59416149430378 14.568863599364485
Zn 11.380361777626247 14.966885375836723 15.348448206775776
Zn 9.152236351688769 11.361307218856275 14.954514004885574
Zn 13.634125683782031 13.786079687927845 14.838605373071685
Zn 13.872469701664892 11.111533071023262 15.312149170122273
Zn 7.322621586386275 13.354657067868244 14.593369753588641
Zn 11.454687666677334 10.028172575362658 14.79667192423071
Zn 13.63909685340402 8.536083041423355 14.913223228899302
Zn 11.489513417184577 12.387832113010168 15.781186253951963
Zn 9.295667398732565 13.735592389917816 16.198461603567324
