51
Energy = -36.96291842 eV
Zn 11.380560330110214 10.920070293529918 18.200674270664678
Zn 10.197020578163102 12.684853575628573 17.004186541988965
Zn 9.278772582744123 14.31902705479478 15.407252168863133
Zn 13.072046044321668 12.561348742615948 17.20421189425584
Zn 7.978755213729012 16.14457546356475 14.114040248577203
Zn 11.866822751119821 14.50774106358834 15.921765847033063
Zn 10.644906321716203 16.283129002659944 14.406725450338287
Zn 14.476044639136791 14.041932449064351 15.642766391645694
Zn 10.46689936569953 9.95181864407486 16.019851025887675
Zn 13.091622884671025 9.924324643349541 16.67456983824773
Zn 13.263667046407551 16.01970642084213 14.315938675635447
Zn 9.128446771780842 11.7690826916909 14.64344173336062
Zn 8.076284081025959 13.654352979445138 13.180928246823232
Zn 11.881184797490654 11.98628834614005 14.738393878680768
Zn 15.007899968375575 11.430526679314134 15.796872636421222
Zn 9.227567473870346 15.922499896155557 11.983940171986271
Zn 10.802375049729768 13.853436264864387 13.207414694153654
Zn 16.13497542461477 12.798856113476916 13.969488266333668
Zn 14.878669495072264 8.835257164114592 15.24137825327126
Zn 13.43366074628041 13.445240094961328 13.055025622476867
Zn 9.957892808155488 9.492852321096663 13.553511583027246
Zn 11.811088838267635 16.32559795359115 12.123533778290566
Zn 12.291374759973474 8.601453665156875 14.617876751133604
Zn 8.577793787309613 11.298628328357058 12.117347316982823
Zn 15.739423794688499 15.274919328332281 13.79468775580006
Zn 11.398461863678447 11.519332293410725 12.108017848385296
Zn 13.037328102626121 16.2549026352769 9.765455469526628
Zn 15.73874378361686 13.947635409840336 11.4660144062139
Zn 12.041920458223306 13.734489946254932 10.852747912218812
Zn 16.261449526505338 10.199837002118349 13.558591104342385
Zn 10.500792649410664 15.739260334080338 9.784836286917127
Zn 9.19903091403913 13.544751065853044 10.893410278840063
Zn 14.579211431126417 8.32697013854428 12.781320011344107
Zn 17.18048699201452 11.841180232301287 11.829059881728506
Zn 13.640492945940494 10.79347068611751 13.30284528828741
Zn 9.733537019713188 9.217158574951108 11.039000394760752
Zn 11.979476852966913 8.588568646318667 12.092843914509228
Zn 14.375996819153755 16.088507952793282 11.873343626879137
Zn 13.81479367897614 11.739689086993806 10.96002134879552
Zn 14.250565954873464 13.990133901257941 9.259126976225865
Zn 10.214046995394293 13.536920274825366 8.501127785083868
Zn 12.13281188380338 14.97322788445166 7.785748030618663
Zn 11.896264738851963 9.8028695502475 9.685136360973218
Zn 15.844510368474372 9.81519982461519 10.98176464376212
Zn 9.830955190278656 11.339722106958993 9.694549624300839
Zn 13.874848621652113 8.295115404490158 10.347807513967094
Zn 16.124896226811593 12.082330370175253 9.520415454433838
Zn 14.984946591654095 12.105797029730827 7.205959752855313
Zn 14.379425140590467 10.213491745971865 8.758425058699265
Zn 12.411546317069922 12.136349727716926 8.580888329163823
Zn 13.657568787192888 13.878759645896134 6.191397574561186
