54
Energy = -33.14017618 eV
Zn 13.955017381286932 9.912314708887397 14.945555023079082
Zn 14.001613539586984 17.479851696418958 16.04895898383485
Zn 10.125551400823063 14.503312963772839 10.556955624065862
Zn 8.916918621844427 14.168261159888203 13.309359089302044
Zn 12.825522285369034 7.914347230403571 10.858709780035275
Zn 7.9479686221940495 15.659858880614683 11.379333932077312
Zn 16.44925051506856 10.098900975602882 11.722520683957391
Zn 14.0841418922861 18.530823057114997 13.237057555349184
Zn 15.284546729594842 17.51000251102735 11.000621290082213
Zn 9.965698621978756 15.898470472778163 14.939754794429067
Zn 16.740941462124557 12.41221753797615 8.514631849987659
Zn 15.300727717143578 12.675732040509002 11.149335090080152
Zn 11.328006559825566 15.207205541918105 12.772405952766153
Zn 15.071209693848933 13.202888599580136 17.96048145503224
Zn 10.92962339202689 11.3629695607267 19.763624709666395
Zn 9.913659255462449 12.087810216071789 17.20242689691945
Zn 15.983304423562043 14.918021343208789 13.532877570085647
Zn 11.75900884227777 13.326201555719715 14.635006823623845
Zn 16.14159214020798 17.2410989375121 14.61985053350213
Zn 13.478048008488551 17.436354195828 18.65817309478934
Zn 12.123516837407273 14.340426662209454 8.89409105994998
Zn 16.4200231915787 13.33944895053186 15.546639954330065
Zn 14.632348398276704 7.921084399525954 16.402925641821856
Zn 10.751603143910003 12.296260806258328 9.454821499206886
Zn 11.574417368788401 16.863338538477045 16.750927569417446
Zn 13.674462159154158 14.81757610955553 14.988519802241507
Zn 15.694527122169694 11.468232316902874 13.828810222642964
Zn 12.186017707472102 10.802231690278862 10.987644887409957
Zn 13.056743910540266 13.203274517566195 12.094197398286186
Zn 13.920209578414086 12.316038941600763 15.717260746645877
Zn 16.454741935840193 15.173464747569724 10.777364822845657
Zn 15.659049439026317 15.56293139533436 16.707859663182255
Zn 13.227040038411529 11.90756342454951 8.879774207121423
Zn 18.048643654136846 11.694177099767902 10.45396783723708
Zn 10.853397044276337 14.525281923382868 17.077546140983383
Zn 11.877428218719174 10.702805640194617 13.53064854626157
Zn 8.679426183977444 13.867060184493514 15.772863405668101
Zn 13.84887609480677 15.847619221102692 12.681670444932228
Zn 16.963130470984105 11.644147727608871 17.522744748724616
Zn 9.593890775219315 11.762933034860417 14.592365234523951
Zn 16.603526366417828 18.82905794161205 12.616922654235454
Zn 17.759192297274083 13.451922866938782 12.341529589331296
Zn 17.670870487399114 21.18043067719751 13.115208439021737
Zn 14.01587306595213 9.55155957180887 12.487359535393816
Zn 18.10560741903347 11.253105054936242 15.304435598859346
Zn 18.548288972218238 11.02007243762295 12.823525277676612
Zn 13.759842979021093 15.637795132474588 10.166990744619861
Zn 13.256430257620014 14.959195990793699 17.866132977221476
Zn 12.108980993233972 17.153446787359854 14.220471255746569
Zn 10.236201888032713 12.342314137847255 12.105434449414565
Zn 14.801911665711064 13.899945678560162 8.600609775336723
Zn 11.734120707044745 10.80531652748934 16.084585156065803
Zn 14.626247561618133 10.220796643749592 9.980941357314853
Zn 12.419673259760478 12.475806395899738 17.941685167386403
