54
Energy = -37.8598705 eV
Zn 11.757984429576707 9.742957768363874 15.358979521212582
Zn 9.31169150651204 10.50437092008583 15.733108930432163
Zn 14.908669652886914 7.0575328419510726 14.617145948690466
Zn 12.415954458383625 7.291921011136388 14.589347979985423
Zn 14.921891312053107 9.523001482637982 15.352259385376335
Zn 9.960710521490336 8.089550039072583 14.54011106315736
Zn 13.443070010382783 11.53460170943397 14.670882543683028
Zn 10.746356468867342 12.187509819225957 14.468633133357203
Zn 15.142011891683232 13.30787852191869 13.877139516625995
Zn 13.74483543268886 7.07213243488944 12.166511787547014
Zn 7.628730628338137 9.298293610790395 14.367950942221688
Zn 12.934397675462188 9.546145881720566 12.973008365483677
Zn 15.754189877750012 8.669398234358606 12.851969162144515
Zn 11.07095050566448 6.985476191836284 12.362984531837407
Zn 15.000821751846996 11.08874475569421 12.265766637395878
Zn 8.703225897875726 7.944458680367342 12.329910284303617
Zn 12.663895183012118 13.895041945815196 13.85538006256332
Zn 10.300597323915914 10.171569991772424 12.765888586253329
Zn 10.197959991718848 14.64920432735046 13.69830766673934
Zn 12.385782799405968 6.3931658100996085 10.109375474327825
Zn 11.837691166966511 9.112634396955968 10.695417100646564
Zn 9.786042175586577 7.6422255764662035 9.903029645518043
Zn 12.166475019670415 11.853698594252226 11.814651067424434
Zn 14.588753120388015 9.091248503812327 10.51213683322757
Zn 14.393742815290777 13.58972978220726 11.5325258917783
Zn 7.614349667367162 10.313803081066299 12.016865748014787
Zn 7.9707161383269085 12.017683598841915 14.076847076006473
Zn 7.2446111172342205 8.395799543781989 10.225253278799398
Zn 7.72362059759505 14.518374021480401 13.20174424990149
Zn 13.235394654050504 8.097994568870899 8.475570051780565
Zn 14.79074811351178 11.738625399551399 9.740650290471574
Zn 9.565199513360806 12.591545861159107 11.88990154503595
Zn 9.713733222746171 10.559273466320663 10.227634307650876
Zn 14.993444213331884 9.97817407139848 7.9572389634386695
Zn 12.262612577765013 11.102545026135568 9.215561970470183
Zn 6.802417922337427 12.71411837192847 11.63370839680038
Zn 12.032488630150402 14.619466114195932 11.519545554400839
Zn 10.747301775701615 9.111826989623692 7.91089397575545
Zn 13.333071103134479 13.97283531174336 9.238414342889742
Zn 6.993158638253424 10.827535754493766 9.509355498280833
Zn 9.517390627766424 15.36795720571723 11.291079067908676
Zn 10.700396377213336 13.066290518237517 9.591277620368093
Zn 8.184359336125802 8.776333791852508 7.973656420467104
Zn 12.931703595454243 9.77199110298388 6.586773303891501
Zn 6.880967025105404 15.28313196908685 10.863895199194879
Zn 13.772728555903925 12.256606474935776 7.267572958231569
Zn 8.083614785381442 13.18842118341986 9.432389988315418
Zn 8.957900509047501 11.177139649586179 7.805932250731035
Zn 11.220569075436485 11.710981948335103 6.685199840677403
Zn 11.213758933453091 15.760553419495842 9.340902539495339
Zn 8.366301972469744 15.871917640065138 8.89078429521722
Zn 9.48046544197363 13.628596248169092 7.240956468448744
Zn 12.03507777044398 14.216066856011661 7.025583403750716
Zn 10.126621581656948 16.045160291638396 7.117295926323182
