50
Energy = -35.64130559 eV
Zn 12.016351769446954 10.528033834980908 6.525776840163936
Zn 9.729264291453184 11.680901675377187 6.667317351685722
Zn 10.887417426524616 8.384231401303 7.267690579808216
Zn 11.886258372161114 12.890995364479766 7.514913085506946
Zn 7.637008327329472 11.800200868857555 8.193236252158288
Zn 8.574850588068715 9.559963914870512 7.400438930205913
Zn 14.267064468388039 6.388050687210181 8.350440863444666
Zn 13.584338754371721 8.602191004060295 7.366768411556705
Zn 9.392383388568899 13.71918440240538 8.233615609472135
Zn 13.73936570612444 11.218693032632082 8.332342607129965
Zn 9.19599608342498 7.744205822557713 9.193490649003957
Zn 11.299126931889733 6.262115258756383 8.643719271504773
Zn 10.810777522899402 10.525211073280273 9.014866666688546
Zn 13.626230156258957 13.610302922592046 9.322432448689304
Zn 11.532209154387212 15.033741817940118 8.815837938463877
Zn 9.562243792169392 15.306735998245825 10.360937519452714
Zn 7.285513297884411 13.753792103828314 9.870561726448196
Zn 8.750175410426326 10.841276034182567 10.553494238738166
Zn 5.958854032571827 11.493873198561184 10.096352583090018
Zn 11.174687327096718 12.691567107285895 10.402256497183389
Zn 12.371150813955266 8.379892333289126 9.825252602861687
Zn 6.989752387204352 9.100641726208847 9.327497806626004
Zn 14.846901851158133 9.240289739886565 9.59536394854814
Zn 12.95046958534657 5.436466484357592 10.320887250935458
Zn 14.862762737438034 6.934333636054853 10.85646060756104
Zn 6.414801759531896 9.567710294032258 11.765985947265216
Zn 12.6116026020748 10.674459655829269 11.06849056561629
Zn 14.555189801722339 9.178473588059958 12.18063519649046
Zn 15.087427729865249 11.667517451212078 10.576627282008431
Zn 9.018153320129159 13.022330851051917 11.761114874975393
Zn 10.46003945409849 6.413251018613631 11.17509760760819
Zn 14.222682210902564 13.684186266526002 11.790247371474917
Zn 12.188522792321486 15.165482701602562 11.284021688310471
Zn 7.519177434335706 15.413139855820326 11.991918615279449
Zn 8.10386899864869 7.629388767156096 11.523210130065952
Zn 10.424406052960082 9.1154673862739 11.329574081708701
Zn 12.61484234768611 7.261792283422439 12.38349597146987
Zn 6.665192773642049 12.016847609103408 12.528400864892093
Zn 10.663843950080999 11.311470014065794 12.668937880117202
Zn 10.30815534333499 7.705633663942362 13.593636356102447
Zn 14.094156253273827 11.545430300257395 13.219736114809283
Zn 7.863579402207779 14.042940564272405 13.993752797941935
Zn 12.38022437910251 13.681527151895635 13.499577214791332
Zn 8.251194940503398 9.282633890583968 13.475921667258381
Zn 12.534172142220648 9.31353385539214 13.833165567477415
Zn 10.191999905907826 15.074451511995061 12.962436991556851
Zn 8.216059079021305 11.542977584409206 14.575360178637972
Zn 10.264660017208062 9.909468338223382 14.968421107678424
Zn 10.211516826244083 13.15082969168077 14.856380124503803
Zn 12.247196122253516 11.545984077200071 14.985721330858146
