52
Energy = -37.5029256 eV
Zn 13.495769996975875 14.923443098872793 14.553158556460332
Zn 15.066340527829784 14.009562310996227 12.735005974694005
Zn 11.72491615640659 16.768331460881075 14.414052418763392
Zn 11.759166421105455 15.251399192662133 16.472106010794306
Zn 11.934371969201258 16.61360209707437 9.94136236417425
Zn 11.090791482779652 17.610762814399877 12.125331300203783
Zn 15.637322949391299 11.489915346940702 12.477778477954995
Zn 15.505096520357204 13.186739591283843 10.384636888526936
Zn 13.026013138115298 15.4018204500962 11.963434977200684
Zn 13.36486516537776 14.359626954533786 9.486241683301923
Zn 14.185213699344876 12.310155634121449 14.57716516822225
Zn 14.165605577260598 11.97753674839783 8.566526950182311
Zn 15.884914120030217 10.666113219101865 10.030622860729403
Zn 11.70556665541904 13.334960191927353 13.533987255943064
Zn 15.751006779647513 8.888594726809153 11.838034651710514
Zn 13.084533645790597 12.445424155596722 11.557002149877917
Zn 12.13162485033571 13.209674763502935 7.450301410660798
Zn 10.639326310407261 15.056097821001682 8.418308673858188
Zn 9.88128806244412 13.918173320520673 15.313899544117294
Zn 11.976098014794177 12.693632431015025 16.14840372290848
Zn 9.998089453340302 15.294193605735753 12.975608039979637
Zn 9.400077481592236 16.67070584833792 10.351945585948114
Zn 14.759166907521836 9.763464491217048 14.169081034671262
Zn 14.514961614928977 9.324319030894612 8.292198357521752
Zn 11.064024730130297 14.02945906895924 10.882834932991772
Zn 13.302647163351693 9.998235294016881 10.98848879086193
Zn 8.388939855730017 14.44948632481194 11.103562960714115
Zn 13.059596440289905 8.149181702848031 15.123438309073677
Zn 12.085995658454008 10.59760427271855 13.32483379784949
Zn 9.156947752580377 13.080196146782388 9.034458400102256
Zn 12.996298165277977 10.463152784635472 16.126144738192618
Zn 14.282185552419081 7.56420332943516 10.15186155094819
Zn 12.51974704310159 10.513014877231372 7.213853306066661
Zn 11.4791009930623 11.453516056072177 9.683476764260137
Zn 9.746922257645648 11.351982853464248 14.751055501735921
Zn 10.752869430863035 9.460597657257416 11.342249990511297
Zn 8.283949521315018 13.25852349530214 13.410725470104644
Zn 10.142040951546877 11.844746344004202 11.964752536214355
Zn 10.13605201196499 11.718492388301716 7.076740344750916
Zn 13.633062076429937 7.70232823978103 12.68783724771641
Zn 11.215334430404175 7.412806509723565 13.467511126405059
Zn 7.646625495131161 11.951914766874241 10.874166433685582
Zn 12.127549848222744 8.173650188903663 8.78661146148452
Zn 9.085640383993303 8.84030361145874 13.684676910629745
Zn 7.665417180300748 10.80705144481782 13.174623737218758
Zn 10.802784683732375 9.172114279930575 15.527251102674402
Zn 8.748912110678779 10.509108647134859 9.035399875773562
Zn 11.830209095550549 6.956286573904904 10.974315361852925
Zn 10.323172011461887 9.24040312543165 7.4653279633959215
Zn 9.553515777114333 7.804112029324652 9.39560520080959
Zn 8.010466866811461 9.263684247190893 11.14261125613153
Zn 9.264484398134979 7.043178998149988 11.783724727963573
