50
Energy = -36.1496693 eV
Zn 8.025233323390475 10.833068919147989 6.086984369588278
Zn 10.321852295907636 6.060196211713272 11.894431209869719
Zn 7.9405443362322465 12.431996737433039 8.194714208636706
Zn 13.743240585078066 12.522771911836905 8.32824156811064
Zn 9.759470963726779 14.353050776541936 8.478244397398836
Zn 13.134522846739788 8.673619773631607 14.108951055736465
Zn 9.368763164566726 9.979677849915769 8.731703871422722
Zn 13.85672033442543 8.04520085274812 9.568943484053964
Zn 6.893202137787127 12.275077660659523 12.523609208290456
Zn 11.553025438376485 6.746396649613142 9.49735869127655
Zn 12.807190170261418 15.296588666630921 11.780127201945097
Zn 13.09277582845147 11.142643935351987 14.779868660787983
Zn 10.896943825584485 12.38238977363381 14.353306594894764
Zn 9.790777861451721 8.679908404409515 11.295458221066738
Zn 6.597546756148352 10.009626696498238 8.02422603097326
Zn 12.086009833118775 11.080275536522363 6.826557843262103
Zn 14.498612484458869 10.846494520411586 10.152829863791938
Zn 7.573036053802992 8.37647923191226 6.345888937881004
Zn 10.966446413774426 7.330588350839187 13.97356973913826
Zn 6.713088936665201 11.261181979918259 10.232398784137333
Zn 12.542985347557826 7.321310288625407 11.811548564258336
Zn 14.02929878220838 13.299789709945243 10.837892046044754
Zn 7.108250049749373 6.580685366701278 7.950946738688394
Zn 7.09802748444028 9.700852716773774 12.373242640446758
Zn 10.903634332991924 12.03746209521728 9.162205445242748
Zn 14.465883824649797 11.431415214344689 12.655444371352093
Zn 12.364305359586073 14.676745011234916 9.362301343965004
Zn 13.267706341308875 13.476616516867068 13.591853236618203
Zn 6.399629663920822 5.963388039642956 10.342454600100995
Zn 11.909027660486863 13.770251552072514 7.066786853508158
Zn 9.345816029900908 11.185508932231922 11.121627442151707
Zn 11.81182141140567 9.731034217418994 9.778347978826032
Zn 14.10167816906065 9.938291915147683 7.834333319930612
Zn 11.112777219524535 14.871561891814608 13.548297752109299
Zn 12.091940092095426 8.39222818395433 7.435215743527489
Zn 8.081739667601157 13.58073405078164 10.45854303365029
Zn 10.84459723966667 9.776633137351277 14.946657347368847
Zn 9.87633436650162 12.421404724212005 6.4723293820369685
Zn 8.749018523765121 11.08068738457074 13.8975894448104
Zn 10.18594432314289 9.500099823203115 6.058390941249489
Zn 9.635383864749244 7.45269667828144 7.672243641289126
Zn 8.932329626562517 6.271145016662199 9.835489414419234
Zn 9.020764256426249 13.547884928151493 12.880573033122447
Zn 10.236624870157797 14.967273809993987 10.951204434529243
Zn 8.762594822801026 8.519623697148562 13.979477959815675
Zn 7.789470521655041 6.970718255543479 12.199052269516425
Zn 7.441703485675596 8.652518086651014 10.026535389962971
Zn 11.461196607503876 12.602448259304968 11.598874633079093
Zn 14.368644364421224 9.009923862903028 11.89683992057253
Zn 11.661749881359064 10.161713974703742 12.296168916369327
