5
Energy = -0.43337712 eV
Zn 14.81211656494251 11.382851357009455 10.222477733970813
Zn 13.783346409638076 12.34776715907128 12.918899097736166
Zn 13.290141745308734 17.324516216551427 17.21596903604219
Zn 10.42804159776263 16.99396568258294 16.981412170668282
Zn 11.884792529182171 15.428854758032884 0.6733725570715597
