52
Energy = -36.29331764 eV
Zn 8.82692573755223 10.708479150249936 15.642029624481617
Zn 12.771021403359828 11.639460373613979 15.941188337394788
Zn 10.582216655170223 12.791933173030001 15.66310506836118
Zn 6.516591699371833 11.158761304674702 14.464053510789741
Zn 12.615212848826626 8.80705922565105 15.059823379024737
Zn 10.045677223368372 8.553465841102016 14.830114100649526
Zn 8.069764390946391 13.140066436397627 15.039702270010864
Zn 8.075194049712955 9.335325224807535 13.380605280296802
Zn 12.544683662545356 14.178807589338879 14.067247913889636
Zn 14.663355749169083 10.281401904860816 15.057145688679626
Zn 11.056114004010109 10.92542662998661 13.872281255186206
Zn 6.120937212091832 13.180558025580352 13.155766849798988
Zn 6.359265909243099 10.776273642260321 11.90029021650378
Zn 11.328652413850936 7.0435037803084475 13.275152383195211
Zn 10.05470332653285 14.75516952637946 14.195417592153277
Zn 12.81428943234268 9.456051357964952 12.457504809557447
Zn 15.322560048141774 8.601414752242274 13.267875474628596
Zn 11.792720535915816 7.61885375117144 10.811371117930198
Zn 8.856781338994402 11.843731882057732 12.758350215394294
Zn 10.187305319055309 9.434548392405954 11.844204468159887
Zn 8.256955219857026 14.479768619729976 12.421715478956905
Zn 7.98442169406689 9.252977645073388 10.543635906112545
Zn 14.932201616350113 14.016026247413707 12.863350232504489
Zn 13.369677920153768 11.903831591251139 13.13321797594485
Zn 7.058292255613483 13.014717711490178 10.68941458627912
Zn 14.361358845515499 7.893637113121709 10.944275808238062
Zn 15.923994781375123 11.263938308953549 13.030051873821947
Zn 16.669645986734878 9.334588152665214 11.191329208027112
Zn 14.411290460538202 10.812914201821698 10.81291017809082
Zn 6.664573033445124 10.913431922893706 9.215987768608052
Zn 12.988522409296557 8.730339499836303 8.841968595809274
Zn 11.067469758959964 12.883479863819725 11.998756376137502
Zn 10.3049062291504 8.959548170652033 9.205494689689889
Zn 9.455591366387017 11.623159526043697 10.34397122828133
Zn 15.710152269926008 8.861674885051235 8.850379747696055
Zn 16.42328196745788 12.88435657163482 11.121282069199264
Zn 7.767455402489822 12.913365155174816 8.117925257932828
Zn 13.02901394864873 15.581292306035557 11.787849723580402
Zn 11.91667204445928 10.992678495391873 10.361789422849752
Zn 13.349297954602697 13.105748766150368 10.753163213408214
Zn 9.118433552549792 14.338295528269185 9.904412904301157
Zn 16.901934618927836 11.053152940476599 9.306505797710944
Zn 10.511839324802084 15.577878880145756 11.799180150625588
Zn 15.421167948500191 15.27071317830082 10.623881232718913
Zn 14.209579014400381 10.81355807697577 8.0277702302199
Zn 8.943625530160308 10.643411223669814 7.868697750303846
Zn 11.637109323840491 14.804717087519583 9.587587185431905
Zn 10.332777161732697 12.924399221126558 8.049060142817181
Zn 15.31200659249159 13.01949528864535 8.822692805708211
Zn 11.625121091398473 10.699380774126492 7.7111221909579335
Zn 13.967758492236777 15.341372719999283 8.610274388282136
Zn 12.876538014264101 13.020347768469614 7.992801629781886
