50
Energy = -35.71523733 eV
Zn 8.182548492426918 15.660474197653404 12.86020808322914
Zn 6.961058748874868 13.389165509911338 12.854094658319994
Zn 10.11303046796865 16.027193129915087 11.094604200129098
Zn 8.861153097724971 13.654711571687587 14.526586610488101
Zn 10.426010695202468 15.932621788431224 13.780599519338105
Zn 9.44565052085156 14.995283478219791 8.759582776878315
Zn 7.802551596370887 14.316923095301894 10.629451280246112
Zn 7.514586140559728 11.068200644459123 13.683324579360104
Zn 6.775494000490645 11.865333096310305 10.788954225323376
Zn 9.971634759107856 13.51049189046515 12.027929442278278
Zn 12.306503702821878 14.983077411678822 12.203100841547485
Zn 9.259728472082456 11.149897699259023 11.650574085374778
Zn 10.494140051402958 13.145990417243201 7.245622709179799
Zn 11.442709336286365 13.65766062002143 14.445480810107023
Zn 11.881182780888679 14.852018702917068 9.435566632491975
Zn 9.990646709807056 11.274889545911497 14.490584835370797
Zn 8.135123637525282 12.729942888101426 8.63288548450027
Zn 12.924499831355917 12.69467421858787 8.212963862402592
Zn 8.821067813140907 8.880597588077181 13.284585176503613
Zn 13.871555634038566 13.375387889671313 13.55615976649614
Zn 11.96719675854849 11.96293550377478 12.074842065165987
Zn 13.795138029560878 13.6220099975953 10.529934376223977
Zn 8.986050995896566 11.006261349978669 6.955005668258376
Zn 10.989863715588399 9.311727440034023 11.718908198786009
Zn 7.190127978969155 10.331125672171655 8.724382941492074
Zn 9.928686585029157 9.93659902531713 9.434494108355999
Zn 7.395598722817473 9.330982361149417 11.121360415697772
Zn 10.620064736317463 6.920489337350347 12.779374122241046
Zn 12.57737078224298 11.361045953293292 14.638771935951276
Zn 11.480979033809062 10.739337520031832 6.921704604425928
Zn 10.67610658712462 12.405228386926682 9.790089685712115
Zn 12.463758480152558 10.524357873223495 9.923471827660231
Zn 11.227535845546209 8.994416048668162 14.447613599343207
Zn 14.981822453450553 11.500240101612926 9.44933891763788
Zn 15.402838801180781 12.230980341774893 11.884065182337588
Zn 12.542882373404353 7.564448602888806 10.462261419178883
Zn 13.420947524894695 9.944469248098926 12.29483356471018
Zn 9.770723565874443 8.564878887003616 6.964965756487796
Zn 8.768654636741337 7.218609152184439 11.128192939838346
Zn 7.998389288989964 7.951038355549272 8.71623280022696
Zn 13.901482726158648 10.396361841068577 7.40705456912504
Zn 15.19594240697178 11.08718369339195 14.153395683348641
Zn 13.779612412342727 9.178563180573304 15.091710575973377
Zn 12.22162075187689 8.46809052560773 8.00762230883618
Zn 13.052643488238532 7.404952773917917 13.285945689897265
Zn 10.370140201175687 7.100211211259151 9.15568509397479
Zn 14.577589952921809 8.789035259112959 9.294802048663572
Zn 16.003715588118997 9.855677351508437 11.330896370856353
Zn 14.878849481525169 7.635897345154913 11.576708988628225
Zn 15.823330668347813 8.617614983564767 13.718242574015449
