50
Energy = -35.43682747 eV
Zn 12.609916802706195 11.692799150689009 6.081177934964495
Zn 14.089934493430407 13.604034147526315 6.569986993050828
Zn 11.692848190072546 13.878026311430636 7.631905355399719
Zn 12.610394673767669 9.63112277074621 7.551595098946219
Zn 10.682994599751593 11.413449507875233 7.749950234419403
Zn 14.922988233665338 11.03645014263269 7.167251934129582
Zn 8.725050070244597 10.24411578613338 8.929596655699164
Zn 16.07124065649774 13.14615538899165 8.08322298106418
Zn 9.669530169348807 15.136138548483956 8.876902005155872
Zn 13.25917000829567 12.040402267317791 9.130267825266042
Zn 14.156446889358653 14.579868041067176 9.072006600790997
Zn 8.779541144425682 12.76554596252735 8.816052228478863
Zn 12.020458077282626 15.723931506390958 9.51096160094981
Zn 14.443021734957627 9.657279370657257 9.542780469370335
Zn 11.400492218702619 10.422325487906855 10.234073741711644
Zn 16.48542193153033 11.147381709839996 9.474410884589833
Zn 10.231519976054607 8.274120183217432 8.725421027749285
Zn 9.030243024244157 8.972528256572005 11.14601536913282
Zn 10.736188839420166 15.581218935296375 11.676668011233192
Zn 11.1451107097042 13.036342247195828 10.318127960056254
Zn 8.617545302385889 14.128271878393653 11.038107650804767
Zn 15.445959770712356 13.16504353201783 10.807027052700588
Zn 12.634788657735262 7.911594773952193 9.400394423112779
Zn 8.378892807900137 10.114949037625088 13.609746041654166
Zn 13.140000556254824 11.808163950091393 11.672058114080983
Zn 9.04451862400893 11.573531732165037 11.327645590227815
Zn 13.265832099962067 14.57076523239605 11.624249193093986
Zn 15.029506458481928 12.749505472883778 13.33701044200753
Zn 11.245622150159319 13.169640617146891 12.923752084420082
Zn 15.632794884129426 10.705365198959537 11.829888596472582
Zn 9.75441151667259 7.959991847199213 13.451481962904015
Zn 13.385293590851369 9.075584777684002 11.840100254697855
Zn 11.254783890341288 7.680361428220337 11.470146500406953
Zn 14.223578291705287 10.216734901858798 14.001548608655957
Zn 11.139437394788096 10.534439130681001 12.803835555095699
Zn 11.206279973383007 15.52096162714126 14.437278661430772
Zn 8.964554048152777 14.961537029517997 13.391286267238808
Zn 8.112057338443611 12.583328969434799 13.632334845940388
Zn 13.53985050620336 14.55520484245131 14.252198551158388
Zn 13.872903843064117 12.251623516077926 15.564864778849982
Zn 12.775260471662264 9.861339391648887 16.18892734149036
Zn 12.261326940267558 8.37384696973184 14.11972789286777
Zn 10.23133371655682 9.270989773756103 15.49016133346348
Zn 11.23626424681124 11.787060572330546 14.990873518993503
Zn 12.63747193734227 11.927027962761946 17.79213916288905
Zn 9.45246009743172 13.86072503235597 15.60153131433357
Zn 8.772908464788706 11.37465190192433 16.046039783434644
Zn 10.591508650677966 10.339716213743172 17.742979121301673
Zn 12.07023323995315 14.051142668638384 16.382844361145278
Zn 10.179475607338288 12.793031816337264 17.800813604592314
