53
Energy = -37.32768231 eV
Zn 12.968135791242323 9.847385220646768 6.6461722885072705
Zn 12.046256806101919 13.486265680101527 6.798846243583989
Zn 14.188834081758294 12.025204517407094 7.180853482588328
Zn 11.192990297641783 11.414009471701304 5.691488354995773
Zn 10.418853757966712 9.67684966335847 7.522047368522452
Zn 9.838554461172812 12.37922084746171 7.989523141375348
Zn 14.929495156555667 9.819136920998435 8.436356229030638
Zn 12.618271641958676 8.636757763287832 8.961559451874168
Zn 15.33536317025515 12.056240337842393 9.59257130332508
Zn 12.141047496799484 11.377847044429638 8.790895052322842
Zn 13.610945035319213 13.83304328540992 8.95059844345454
Zn 11.06234305141138 14.670929146966872 8.851802050279005
Zn 8.470927373710373 8.954459849283024 8.966979728655408
Zn 7.8914514178437 11.436186677047704 9.463413848296874
Zn 12.64996881619437 7.502950292888509 11.513225948143964
Zn 10.304096497044318 10.431076975479625 10.450874044524998
Zn 14.821321465438716 8.456188955947376 10.589780510003676
Zn 15.559765619298938 10.672514032453552 11.826747846993634
Zn 9.068956333637704 13.50644253805728 10.307155190526977
Zn 17.165595962479536 13.008205460372931 11.166116832764077
Zn 10.558926842145913 7.758482910151899 10.046520297826339
Zn 12.870267699654413 15.355987404729747 10.810913402815887
Zn 12.970748251905285 10.518162503445865 11.005618994108447
Zn 11.66340350397435 12.803491944294286 10.81267330105367
Zn 14.244436824223556 13.198531186349738 11.736030906425443
Zn 10.200787279591953 15.685135810055572 11.091343131254817
Zn 10.406130935551754 6.870422480040847 12.624008255008324
Zn 13.784693592977213 9.101572737229679 13.231813192511554
Zn 8.284911464898345 7.394289214792906 11.158250433857
Zn 17.133976032399644 12.73097810885564 13.615933136373057
Zn 7.733902680978667 9.821212240164819 11.492195652257399
Zn 11.056948727477362 9.445764072845868 12.757296393271222
Zn 14.90505422166287 13.315538132409214 14.625750835905889
Zn 11.395310620107013 13.973616012763333 12.986117078018152
Zn 12.622898845949036 11.680297227480002 13.239688015197178
Zn 15.322304513309161 10.801689378294732 14.329341958586802
Zn 8.595151140315503 14.344904114525146 12.775339590784874
Zn 7.273588678333553 12.267560215589215 12.010537641138642
Zn 13.758477541057793 15.200197567021101 13.345279830511068
Zn 9.730570109734252 16.52098974953006 13.591777442826888
Zn 11.987255116650942 9.357186575840535 15.310060451944075
Zn 9.95466416912571 11.80115573429938 12.634288773541995
Zn 12.001380419282611 17.006939149481013 12.512746153166715
Zn 12.533091193569918 13.878677409507437 15.44898800581758
Zn 10.336594256840455 7.3852967550838295 15.104321676475546
Zn 8.243863946180682 8.080771503024947 13.620253697880235
Zn 7.103023599248962 10.452743999908433 13.858434896199357
Zn 11.865745483054189 16.293011146573576 14.951066305988013
Zn 13.380906526201022 11.416599594389774 15.83228983824272
Zn 9.865040924023226 14.453666722734834 15.173495339063553
Zn 9.33790958306113 9.922329751696083 15.063499025364742
Zn 10.82114540957525 11.930387283130427 15.296104036092391
Zn 8.31878976944682 12.47505667209962 14.703302577659349
