54
Energy = -39.18411913 eV
Zn 15.582420682223507 11.245124474688986 14.809528572898357
Zn 16.131971546492103 9.760656136907908 12.955951866193757
Zn 15.654279640785818 9.78971033734109 10.525582003492055
Zn 16.026905034086482 12.227394492863185 12.006523675985123
Zn 15.900663930016888 13.697937685126396 14.327045212730779
Zn 13.9729825736736 12.87816703708533 15.931782897299794
Zn 14.718185870525563 8.361837752531672 14.613333723447143
Zn 12.101852201610175 14.52457701732682 16.406397087977776
Zn 13.853297042472098 15.423140886548781 14.850484065912823
Zn 15.469817959909534 14.377758715240427 10.432603082994287
Zn 15.19228244249955 12.10401616170367 9.479847690238723
Zn 13.214140867719152 10.35299386851616 15.402541981863425
Zn 14.801857848134157 10.041983414739585 7.981607749082182
Zn 13.603307266124936 11.880200416388496 13.017674158290761
Zn 14.716949080639683 7.7886491992641185 12.011754196296835
Zn 12.22460777909049 16.396037429512344 12.505028425194146
Zn 13.894835714925613 8.186520648521068 9.57129172831335
Zn 14.0959370357528 14.352674061579496 8.256998271255465
Zn 12.995729436095944 10.53573162752542 10.566566494205542
Zn 14.189419507609001 14.549725466146219 12.524648921833538
Zn 11.653571620434217 13.817955231365456 13.298067213904705
Zn 9.784698907463449 14.402939863226832 15.271547484692869
Zn 11.431056718719308 12.222680675017815 15.436978716956618
Zn 13.121196411781922 6.408226871447131 13.615169674650796
Zn 11.380546398438225 16.390028451867483 14.903748552308995
Zn 13.250607022982612 15.759421991949804 10.214126590734281
Zn 11.151510489152415 11.335106392561407 12.51841117201795
Zn 12.800205883734538 9.430460845663955 12.855022629848259
Zn 12.502383910766024 13.194257397011494 10.879199387779323
Zn 12.382362298529433 7.829200961094785 15.537243454712753
Zn 11.466172438847293 8.03894640785505 9.01326034144594
Zn 12.369028712133694 9.665428774457204 7.361839691926161
Zn 10.68811458713065 9.810346019951636 14.834720449876514
Zn 11.558291621978334 14.345199517432642 8.392812062797653
Zn 10.709118208259492 15.401920626404682 10.582531702733302
Zn 9.690981637206555 15.910870688263314 12.978927552970704
Zn 10.681141649939168 11.6101602181081 9.921445282434378
Zn 12.876767639746072 12.02865361534838 8.25850662155646
Zn 12.280262726461878 7.0371670358649565 11.283891678724535
Zn 9.096130716639825 11.996784190089759 14.344167363044185
Zn 10.780419748615046 7.650504099458776 13.430319232023548
Zn 9.604454019657076 13.186815391854674 11.675385184330226
Zn 9.078855977573443 13.959756218789632 8.992428679946183
Zn 9.833136866048276 9.726364606559992 8.075059275108387
Zn 10.527859878561172 9.07967534388264 11.149051129580245
Zn 10.366762559118829 12.252903262758645 7.256360401469735
Zn 8.860662400471178 9.716999472738593 12.986780843784933
Zn 8.061771186006712 15.271217573531631 11.041468398615375
Zn 7.798187815108807 14.337052384836122 13.70353529265056
Zn 8.341240675945198 10.426192141525368 10.40532950875179
Zn 8.10301127575954 11.572823090497902 8.101362427536124
Zn 7.378757508771418 11.778422317325495 12.423994392025843
Zn 7.022960064155013 12.84534322301674 9.96847998592053
Zn 6.0380106929059005 13.971179659084095 11.961690812936894
