53
Energy = -37.50258688 eV
Zn 14.851769603976612 13.368313322564916 8.291129209877797
Zn 15.156905621327502 10.774299975798707 7.723610304636282
Zn 13.360833575644172 9.35983212197811 6.6249990991864856
Zn 16.088763477483976 13.428375633907203 10.508507284466102
Zn 13.020334622144938 12.057688169841104 7.095479591409219
Zn 14.40102322457216 8.921156101643062 9.441981473740945
Zn 13.807485129107366 14.864412089957446 10.27416119055321
Zn 12.325251208977509 14.33164974023385 8.241785478447389
Zn 15.99139156182084 10.918208890237402 10.149625792669417
Zn 10.992465923686918 8.693429490620405 6.365279876938924
Zn 13.404355040480535 11.74005079067396 10.02850217648974
Zn 12.471551700370387 12.952294741756608 12.097462934664149
Zn 12.235517039492311 7.840317453307367 8.759085546761401
Zn 15.106386190777936 14.64019356655643 12.492223687948327
Zn 10.496768765445314 12.580501820922114 7.300384433278137
Zn 11.910597022214152 9.916808468237498 11.010115817878084
Zn 11.316342656074271 15.322165502878077 10.619966386215108
Zn 15.240373859460082 12.028990355920469 12.571484784397468
Zn 9.790287781305754 14.730451065610795 8.549030878818542
Zn 9.624042549225322 7.853167415831234 8.325914919070764
Zn 10.906429634351381 12.5784616991684 10.066283665055115
Zn 14.519316010088477 9.692780126770913 11.942852355152372
Zn 12.81460858209391 15.500239431699141 13.05417433622408
Zn 9.072491803554607 10.274302782181481 7.339986651258685
Zn 11.495340579947369 10.501120035794635 8.442141188815862
Zn 13.94328826161996 13.420167320757246 14.417663325298792
Zn 13.07411869087034 7.5945089486078095 11.482593888925589
Zn 10.110436844830476 11.67047484039174 12.321824253642735
Zn 12.347084265200406 10.615826966206715 13.384812004615407
Zn 8.34846567916142 12.530048743328265 8.789219489173988
Zn 9.544424586858485 10.35437114460327 10.198658931402308
Zn 10.238838343229164 15.227991085073526 12.939150339186225
Zn 8.833708667730686 14.344865278568355 10.908077320835886
Zn 13.634373816002705 8.470016064946554 14.060271449782384
Zn 10.477259751087715 7.57516024725575 10.797877616543339
Zn 14.389005132309602 10.889494105942575 14.967380152315402
Zn 12.176094005502597 14.873541823792653 15.628326268942905
Zn 7.983894520136269 7.966066192360463 10.243271738312613
Zn 8.946391035658808 8.909986849579163 12.584455960221687
Zn 7.465307353998497 12.223126854174387 11.209561922428687
Zn 7.126475183718074 10.158062503007462 8.967538758506334
Zn 12.948010868713542 12.333484174224823 16.605365065562875
Zn 11.237573233445884 8.062659744413477 13.280581675361395
Zn 9.654849909667629 14.64888179673967 15.341503418849753
Zn 11.262135591306238 12.582828927125218 14.429832585930487
Zn 12.619584601801975 9.428476205684793 16.28799844912446
Zn 8.246162978374185 13.572110845165545 13.399235097129168
Zn 6.784226233909744 9.827885505889173 11.506941692669223
Zn 10.677502948038539 13.472288368810004 17.302041882835255
Zn 7.7239794652333265 10.990167049353069 13.647004530691813
Zn 10.03924422035446 9.940020232257671 14.722517958246154
Zn 10.806825113973542 10.953842804025436 17.02437901395068
Zn 8.889461366706469 12.174093749445715 15.612300966707009
