5
Energy = -1.1444362 eV
Zn 9.110041971174855 8.12397689029222 9.424503006648138
Zn 8.334427655104223 6.4467979499233845 7.415294632325519
Zn 10.115417385358505 8.410275254571218 6.8929116891161195
Zn 7.101792839398684 10.026722879204844 10.840503725376193
Zn 7.529013192797571 9.044847465148244 7.516447166398225
