52
Energy = -37.38775664 eV
Zn 13.18855418970242 13.323971349700074 8.479006149804174
Zn 11.01187084594759 12.666968391865764 7.084559343940294
Zn 11.382145698454135 15.156058847426495 7.562389428932927
Zn 10.598076943494043 10.114538059047172 7.0273331837329165
Zn 8.615719247019092 8.999618039825494 8.161728677305174
Zn 13.227057947982596 8.486865263642578 8.25332765615631
Zn 12.994051869209999 10.967821032729207 7.421069717745284
Zn 10.809611355786998 7.669021123578869 7.9576980695908075
Zn 8.638342390237922 11.807798115044843 7.820346513784057
Zn 15.49394264564393 12.61556622161942 9.668031572492268
Zn 13.037710782753857 16.65067008913254 8.635409835888161
Zn 9.332352076024495 14.189738403686128 8.778841583296279
Zn 7.0529323933387 8.475570708025884 10.19940633689333
Zn 14.969156442713098 10.256187618801489 8.916961229446155
Zn 12.193528694755495 13.94984556274299 10.915733979822372
Zn 12.069905764554518 6.977187385304369 10.114623182365698
Zn 10.71330228375906 12.203191000945072 9.728137660155816
Zn 10.73736200096641 16.026777029738458 10.046250251862771
Zn 6.798507769950427 10.651469405489513 9.036833713920018
Zn 14.476533991111648 15.030790607137657 10.050368797871357
Zn 9.262770256702591 10.351140523161394 10.837097258962004
Zn 11.464958196521128 9.717401368596352 9.781384650800856
Zn 14.179067049200414 8.556675680373784 10.689006079226592
Zn 9.486904333773426 7.563716174686615 10.261336114460763
Zn 7.747556883470899 12.734311746960865 10.252225307928587
Zn 13.099129586545665 11.552830594948043 10.672457381116692
Zn 6.615751212495732 10.653603628364063 11.596974469666943
Zn 12.769067774781282 17.213065302236597 11.111388628093076
Zn 9.466090521074761 14.210965959154924 11.503308651486261
Zn 15.486790516057766 10.670984029928563 11.568744765406038
Zn 11.370574359476056 15.734272878850344 12.753456694251511
Zn 14.119576771325034 15.735933441822949 12.55910530988277
Zn 10.621256960227072 6.952229745983933 12.445454053232304
Zn 10.98124978417974 11.9572332549881 12.320135856434671
Zn 14.874221503377598 13.286098255893004 12.074031549146707
Zn 8.103532999467683 8.02215263491448 12.455022904285908
Zn 12.283530490706964 9.683040699522914 12.285719456537636
Zn 13.270089496013574 6.928555298641092 12.42066491716831
Zn 12.800822124314996 13.68580920003239 13.595897330751072
Zn 10.040568987296812 9.81809356148891 13.337903735274702
Zn 7.421570743260738 10.162759776544073 13.92477981507254
Zn 8.187439964324096 12.432349992414453 12.851310035844316
Zn 14.670384949776285 8.892275743391277 13.311265830059636
Zn 10.194153685241952 13.800895593514431 14.093223054120006
Zn 14.198940646838345 11.500603028593225 13.829109088666986
Zn 9.358956565883746 7.350977301301267 14.659683830992105
Zn 11.915595892432655 11.919934664473093 15.1643117057809
Zn 9.288443422581354 11.664890968530996 15.190142834374708
Zn 11.997455475660194 7.754853657946739 14.492502861017215
Zn 8.372197022321227 9.212960126652039 16.091642169107487
Zn 13.372322846960776 9.701468813661318 15.3750093425189
Zn 10.905006289834503 9.624904742475263 15.904290078854952
