6
Energy = -1.10712297 eV
Zn 8.808483302458574 10.876822897553431 8.81047757234879
Zn 7.940347072639164 8.874526895534824 7.101815428590251
Zn 9.542770149109954 6.859782495212686 6.276920971876886
Zn 9.075555747250888 6.877646578277442 8.938040015063175
Zn 7.668851951920817 10.403344360256563 11.219071277796472
Zn 9.875693829152302 8.99320357936049 10.54785324733516
