6
Energy = -0.98039224 eV
Zn 9.554060344620236 8.916994995914305 9.27659818928049
Zn 8.03569812 6.287327016101792 9.2777928666944
Zn 6.517335895379763 8.916994995914305 9.27659818928049
Zn 6.517335895379763 7.154401244085695 6.79479805071951
Zn 9.554060344620236 7.154401244085695 6.79479805071951
Zn 8.03569812 9.784069223898205 6.793603373305598
