6
Energy = -27.86254396 eV
Zn 10.297602459221778 8.978717 9.404124265036838
Zn 8.978717 6.904973710730715 9.937328057640496
Zn 8.978717 7.703140648607814 7.594698677322925
Zn 7.659831540778219 8.978717 9.404124265036838
Zn 8.978717 10.254293351392183 7.594698677322925
Zn 8.978717 11.052460289269282 9.937328057640496
