6
Energy = -1.47193314 eV
Zn 10.449034374754888 8.09614855990045 10.240549010287646
Zn 11.640402623154014 9.11427745892982 7.939981779464947
Zn 9.289171045602444 7.597080300611177 7.938360182165876
Zn 9.217728566735376 10.131644780132484 8.867679204090985
Zn 6.684454389456351 11.170905107796983 9.434629021448021
Zn 7.306798355890244 8.441095969797738 10.125846772678011
