6
Energy = -1.34452801 eV
Zn 9.49595205964776 6.400542008250765 5.643195288904333
Zn 10.261275978190264 9.176597313209196 10.389913949530687
Zn 8.892738431100543 7.859470359023293 7.992305894146396
Zn 7.628290283396444 9.942709538853364 9.056328008119138
Zn 6.480589282494428 8.541851800459435 6.891886776412332
Zn 6.646496542817765 7.484389040932385 9.431914390600038
