6
Energy = -1.34755193 eV
Zn 12.163037785840125 11.950347945200397 12.792599388906856
Zn 9.922255984472768 13.218366497562087 12.07262934656881
Zn 10.34450544045644 10.699916995059935 11.263176582122064
Zn 11.802478994283511 12.673421474307194 10.23551191745841
Zn 9.614537202357626 8.54017387356196 9.781044385041962
Zn 9.879234149275137 6.721425441638169 7.503796356084443
