7
Energy = -1.70087428 eV
Zn 8.157865926237934 10.171668656686986 12.6163033755229
Zn 12.045417828544485 9.570557840564566 9.912810708528497
Zn 10.388470642849986 11.035623175215964 11.4003154955213
Zn 7.569494194220048 8.56873932918229 10.554387010291501
Zn 13.361236719916262 12.110959822383245 9.69302918506092
Zn 9.627947586638138 8.92962719324982 8.789324035012399
Zn 10.742992978236245 11.48084206764299 8.810562206617206
