7
Energy = -1.70510591 eV
Zn 8.677490329856237 9.73108080318234 7.395496838715162
Zn 6.542690770782605 9.52494926620507 9.266791671012404
Zn 10.384190980329985 11.376688729082364 9.031686195383442
Zn 11.451200181815425 9.018248676552773 7.981499960985438
Zn 9.248354875057926 8.86948555064356 9.772564890152967
Zn 7.600250485365882 7.210606462745527 8.196756622652693
Zn 10.067025593994302 8.269282800400793 12.363695542008271
