7
Energy = -1.85669749 eV
Zn 8.789358 11.353516248072625 8.789358
Zn 11.249352914237361 9.583045643010994 8.789358
Zn 10.306555802733095 6.7143207395842035 8.789358
Zn 8.789358 8.788628437406627 10.081032213381905
Zn 8.789358 8.788628437406627 7.497683786618097
Zn 7.272160197266903 6.7143207395842035 8.789358
Zn 6.32936308576264 9.583045643010994 8.789358
