7
Energy = -1.89360536 eV
Zn 6.899467349702172 9.10759052806725 7.335058661040186
Zn 8.325588873957123 11.226837180157975 8.338878532933634
Zn 9.448868197275996 8.417665230284928 7.935209506522632
Zn 7.966598886811161 6.885966370567991 6.153647708437297
Zn 9.662207706908431 9.799221290232822 10.287701652871364
Zn 7.462398509018075 6.874185635536836 8.80150348430359
Zn 9.548463428590662 7.07094531667362 10.550830512829698
