7
Energy = -1.9412876 eV
Zn 11.167559864783733 10.054003612530655 9.189420792519165
Zn 9.011295168158963 9.154027030981103 10.564470580980695
Zn 9.76706365676925 7.5627232292759015 8.688684827562025
Zn 7.676222284091427 6.744358065822942 10.490766221300794
Zn 8.92170993642965 10.084321091723979 7.816561577259304
Zn 7.204167851822417 9.334393298259656 5.9854107146314055
Zn 6.934977654070245 7.808797117324472 8.154770435651132
