7
Energy = -1.74697594 eV
Zn 10.384579963593689 8.28691598798307 8.623773
Zn 8.55682420608333 9.873443978949402 7.214834284516351
Zn 8.05211924802327 6.636296913701107 7.243156685894801
Zn 6.217890411218592 8.144709230123976 8.623773
Zn 8.05211924802327 6.636296913701107 10.004389314105198
Zn 8.55682420608333 9.873443978949402 10.032711715483648
Zn 10.546053605050972 10.915304052553946 8.623773
