7
Energy = -1.9596844 eV
Zn 9.239874511035884 11.837378707696283 9.912586186799903
Zn 11.106561402451064 9.888823642793728 9.55819779084719
Zn 9.288375062890733 9.667478862767487 11.523387187177242
Zn 8.445537536915955 9.789858467498881 8.316845982536927
Zn 9.017923362229393 7.361575484623409 9.616344445470014
Zn 7.045505129147117 7.518540970342592 7.835856750791211
Zn 9.627483594001744 7.69776444677665 7.012051069536205
