7
Energy = -1.40049179 eV
Zn 6.270985184205413 7.917738991276771 5.909934796209387
Zn 6.191291170903332 3.7441083079274655 4.285807610399641
Zn 5.9247022982656405 6.146901425180301 2.814868019348133
Zn 3.195877070159752 8.035745580375593 12.16792581814177
Zn 8.009559833250481 6.151459231371331 4.841055271295658
Zn 8.306892767554764 7.122434347929372 7.502660130855419
Zn 6.470262122212278 5.27774270282054 6.850103897194528
