8
Energy = -1.85070915 eV
Zn 6.189821047349672 8.844739796245229 6.567075731477096
Zn 8.692931048925468 9.227462370720977 8.555554195305916
Zn 7.228711640718924 4.258095848655627 6.72269134112896
Zn 4.913833023198088 3.5904519172848675 5.600674744172946
Zn 4.78730417069135 4.79403543641227 8.051327550189868
Zn 5.454198103683422 6.184431066234508 5.837620605682286
Zn 8.387352275602504 7.140405235227265 6.370396058349081
Zn 5.092889032475394 6.789532580594967 3.136279178890701
