8
Energy = -2.52611952 eV
Zn 6.937669788583769 9.913473532033818 10.390130771587824
Zn 8.882371308023268 8.962051915709278 6.205380091309952
Zn 7.6283445465093465 7.322166470880223 10.629757395524342
Zn 8.975108206552996 6.780392715285093 7.629034630558516
Zn 9.253304884798018 9.146877443960612 9.374069432849076
Zn 6.585161923146998 8.366936153551874 8.299191996153246
Zn 6.785909497469315 7.172462692827597 5.965125347415019
Zn 11.16596232862871 8.429407047088262 7.687139430029072
