8
Energy = -2.22324986 eV
Zn 11.454056521991369 8.768674055822673 10.099569705014986
Zn 9.165154720061484 7.243294579445604 9.984587698138023
Zn 9.854601793508927 10.712882569499431 9.117456239688254
Zn 6.552928552070271 7.1150507208198635 10.213160888174887
Zn 7.6131045349603745 7.065751076042881 7.787004206398932
Zn 8.373787561413305 10.339029853121877 6.851655582831345
Zn 7.532073518003092 9.336501717209385 9.289689507761441
Zn 8.136866150407544 8.108158133328342 5.328964582815206
