8
Energy = -2.22023008 eV
Zn 7.333071720737885 9.467511730572985 8.044446977250322
Zn 9.30184664857583 11.303972404031924 8.253301214156986
Zn 8.279822440509676 10.694268048439266 5.775228942145297
Zn 8.511847916162047 9.436552205384524 11.110209896193643
Zn 11.029281597279347 8.762156331954255 10.399928433936523
Zn 8.986001425743048 7.120309921566117 9.829693568749232
Zn 9.798157857476033 8.870036003285442 7.195129498851536
Zn 9.825636867436838 7.410859828686333 12.45772794263731
