8
Energy = -37.38631759 eV
Zn 8.659124729458691 7.774104610945951 6.33041709245395
Zn 8.727843927143132 7.390674861379519 8.609207506271815
Zn 7.624860900311651 7.670795572320295 10.757527224951712
Zn 10.085609917679347 7.238998270724974 10.554948753581431
Zn 8.986115104437737 9.751277630785156 7.503412171825733
Zn 8.040051270592686 11.391052387198592 8.937808687829914
Zn 9.11110432278436 9.520226294643932 10.185529782875966
Zn 10.515789827592533 11.013370372001335 8.871648780209481
