8
Energy = -2.39113303 eV
Zn 8.487506540443546 6.892139850194365 9.395640624002214
Zn 10.564378427641739 8.263208822387075 11.078510065682135
Zn 10.626550252596006 7.9456663069781595 8.2573619079413
Zn 8.45904629949283 7.652132854595902 6.721458941669673
Zn 10.529516596568952 10.725310644341242 9.442684667461796
Zn 8.499840740674282 10.278852554018162 11.07896270921451
Zn 7.994411710268588 9.556987135755792 8.461636687913296
Zn 8.250043579883753 12.098564490242818 9.050283966928832
