8
Energy = -2.3007782 eV
Zn 10.509078735718678 7.788788262408775 7.7541359128394385
Zn 11.74832960070173 10.175080372128477 7.073205084789608
Zn 5.920716480769928 6.978963230830179 10.491886572437362
Zn 9.551538065072874 10.03022361410021 8.889284726206084
Zn 7.3531269268907264 8.057415837876759 8.264328887853265
Zn 8.651115931646647 7.5301399699791345 10.577693896708103
Zn 6.8881210691371715 9.540968318117063 10.488833064379198
Zn 9.222463589119256 9.57487672650519 6.2274327881050695
