9
Energy = -3.44929818 eV
Zn 9.979295340055705 10.45019725310572 8.777078544738744
Zn 10.599836574503229 7.743434944496142 9.05222644915446
Zn 6.654502555257291 8.278778861579216 9.156993885579643
Zn 7.789083022977142 9.753847146067754 7.079858791700194
Zn 8.417788652551684 7.072605338931034 7.372793610735354
Zn 8.442483321979212 6.479962894368398 9.966298387042475
Zn 7.444854786529192 10.801720188350645 9.502257163634487
Zn 8.828469963609484 8.967661397874082 10.838681789031074
Zn 10.257625826704976 8.865731953142989 6.667751378383566
