9
Energy = -3.43430239 eV
Zn 10.301851554274904 9.025423909719676 11.10478722147554
Zn 10.129760872221118 10.744133201735922 9.079076223397562
Zn 10.887211829755493 8.104295314201808 8.680781713592193
Zn 7.836593409424748 9.81804148109169 10.570184211144605
Zn 7.628127468778825 11.000089351042282 8.204154397767345
Zn 8.648158467867132 7.182776831220908 10.156206221070605
Zn 6.946128085736408 8.439357577680841 8.331783289129763
Zn 8.885576854725578 6.81352983645357 7.520088342849569
Zn 9.232554697102211 9.36854400147243 6.84860096913546
