9
Energy = -2.17418052 eV
Zn 14.9556373148518 8.860982897980236 13.265455161653138
Zn 12.252764551825047 9.460590177738457 12.674671274750152
Zn 9.739734222344401 10.370962315166436 11.590970804550434
Zn 11.891244929523952 10.566284169686654 10.016058929999975
Zn 14.487600188813957 11.034543030498618 11.548323054632098
Zn 9.903533746840878 12.66826459576395 9.543936195892087
Zn 11.64458089431048 12.2111004101752 11.973921251074708
Zn 7.3383003217341605 11.303671482886314 10.45198451145736
Zn 7.337424341954796 13.496973199618292 8.730855240046758
