9
Energy = -2.34243123 eV
Zn 9.731544570241564 11.934322850141948 15.2063554175028
Zn 12.873188013926077 11.914614397750215 8.791033694360337
Zn 12.983616518550743 11.545614689530018 14.183857663842538
Zn 8.55619853052892 11.329976578973028 11.969228180233808
Zn 10.635837677251734 11.197876524047052 10.146861563006318
Zn 14.277550454199734 11.663402927596376 6.3574042273055404
Zn 10.936810317498008 12.728676147074196 12.627479556500512
Zn 13.236805065663628 11.324517529958309 11.42493052726757
Zn 10.844881986142902 10.199380074160423 13.01937438671682
