20
Energy = -40.34254558 eV
Ag 12.46791933229721 7.143829130369503 13.185636277950046
Ag 12.33232780810158 9.84782927391945 12.729862823239294
Ag 12.037270601352873 12.485981295372358 11.88594933235722
Ag 11.563464996371282 15.03222335708494 11.008285361511579
Ag 9.912892174242138 8.226815822459676 13.027259153779388
Ag 13.043991896113855 8.283958342262713 8.374774021218823
Ag 12.256880936121938 10.431020425667276 9.984676416558164
Ag 11.455465301585736 7.8224404476437135 10.718107792038646
Ag 9.879220675252201 10.70885189053032 11.675486588721949
Ag 9.471055064421495 13.295902555748263 10.677488587622792
Ag 11.98261941473137 10.779241427455212 7.265031280704195
Ag 11.848185728637537 13.038483614322535 9.042767813970714
Ag 10.344294776542613 8.568852063958573 8.31194901346133
Ag 7.485646095831974 9.62303247502826 12.67750292410193
Ag 8.639281288453153 8.32177864455658 10.51241235131721
Ag 9.639485473584239 11.36938792479524 8.640804230701084
Ag 9.520566678746668 9.959353010892023 6.125326478676416
Ag 7.635293086389477 9.430855176127551 8.166512561553583
Ag 7.4743471824164445 11.372150266028585 10.402847568124509
Ag 5.928076067966427 9.10211191471168 10.348827597522662
