6
Energy = -8.23978820 eV
Ag 11.409812324979855 9.303408582752608 11.877075458295915
Ag 15.390806106746394 15.78157814325576 11.571437669515857
Ag 13.591323659589392 13.914326141347441 11.615061119250417
Ag 8.916299764811374 8.281227374771989 12.323833334601362
Ag 11.835890976666636 11.927473763139089 11.198126347620159
Ag 9.359536247207082 10.926301314491948 11.810518084831743
