26
Energy = -53.05836528 eV
Ag 11.212739950496665 10.814310967540582 7.834425862135277
Ag 11.238034747208168 10.628692878003308 13.484185824114343
Ag 13.587677533700244 9.975707484393993 9.216425832868069
Ag 13.545362984407506 9.907429011172264 12.113649943987078
Ag 12.663371983476383 12.764957728806257 9.228088011253087
Ag 12.71269370288563 12.726714088000774 12.213944878016399
Ag 9.713752735248148 12.787462241504196 9.157582185194098
Ag 9.653500540170233 12.714066925874999 12.101889457475746
Ag 8.824546740382912 10.01907639323231 9.180428489117087
Ag 8.789939047356096 9.899582806470518 12.144519670869958
Ag 11.237861639617305 8.324273678746664 9.150358140261154
Ag 11.197011232695386 8.238815335995508 12.029021531353507
Ag 11.198042130852611 10.770947386210306 10.63928121677999
Ag 15.825536915353542 9.227681527222597 10.743851000038084
Ag 15.01718709541871 11.933313362089851 10.750008358076027
Ag 14.083735786464063 14.607385055322723 10.732328331559707
Ag 11.23507429141783 14.685932431455507 10.639106417210815
Ag 8.23035391082671 14.638831581342043 10.754751465654593
Ag 7.351579539373034 11.963037960011345 10.637527021212568
Ag 6.573665335375011 9.267067136630976 10.623184488204434
Ag 8.842529201460689 7.514060599466772 10.599851119422356
Ag 11.14535810535129 5.920555998878847 10.496010904300508
Ag 13.57553570934425 7.467538871269569 10.569755995675564
Ag 9.836579172304388 15.383470564524506 12.9073045718018
Ag 11.05888710416471 13.268078305026599 14.432223814759434
Ag 8.807854334450466 11.478460552948555 14.458980546688704
