42
Energy = -90.55302179 eV
Ag 13.687165601576181 13.79266654568593 16.135498707710468
Ag 14.440446962299617 11.250523827619206 14.96955827060636
Ag 14.689815898261463 13.868242462016578 13.608932758157188
Ag 12.083456993501338 11.542716926078926 16.721661851548596
Ag 12.229399799821126 15.4167793800022 14.234397447430398
Ag 15.502232330352873 8.921276566332466 13.552125511098925
Ag 15.72291651756224 11.470444322437778 12.38300024047211
Ag 15.72380408767513 14.053849397035487 11.042962328702663
Ag 10.79398822834499 14.061336652637635 16.262804775171496
Ag 11.162137149246895 9.75593982909597 14.945948509808385
Ag 10.668941724620451 16.468602531383382 12.06820232232271
Ag 12.006953652647686 12.57470592297161 14.090700073289446
Ag 16.591523283465754 11.728671483992184 9.723270046044206
Ag 16.33912554841699 9.163117791962625 10.804441350180605
Ag 9.398704461722557 11.926496855977994 15.078861761696999
Ag 15.842703958389896 6.6366645882725885 12.04016938390642
Ag 13.207380024899292 12.545068484551711 11.526729335272032
Ag 10.68672648262836 13.685717148622901 11.527076808115615
Ag 13.109675252453188 9.95153576534765 12.788780996471928
Ag 13.32025299846453 15.484628771846387 11.672411239077363
Ag 13.31942298014612 6.937930473791406 13.233087825260581
Ag 14.560540324005604 15.98489571682235 9.23305832154238
Ag 14.21311750987472 13.187447779916624 8.8884348001818
Ag 9.47301681920517 14.550148082638666 13.876921279690471
Ag 11.969417350909128 14.855418972794869 9.128988133536652
Ag 14.060184098534657 10.494000808788828 9.716431892470432
Ag 8.546461154942984 9.699281408229282 13.516644602868558
Ag 9.681232962323994 16.53348911904107 9.459443368484557
Ag 13.799955370830759 7.921019966696857 10.71251092006153
Ag 8.155861482309689 12.421640210310079 12.5452634771656
Ag 10.635568634638405 10.975308307158448 12.181178504867557
Ag 12.241867780910107 17.51138950969046 9.964146927575207
Ag 10.856285520264562 8.092559392952328 12.869865042943221
Ag 8.208541615567563 15.047658726517017 11.311012800424383
Ag 9.349038558601517 13.754410908251742 8.97604154970936
Ag 11.628278162167684 12.019776192652367 9.197468279315583
Ag 11.478485099465916 9.339727558910896 9.98868505162399
Ag 6.88026014440633 10.248196810381797 11.276063544277855
Ag 11.36254168072187 6.579662541910729 10.705737929005087
Ag 6.946498618385635 12.780209907059739 10.031367436646267
Ag 9.111333068298947 11.014847138554588 9.762884405893553
Ag 8.974707785721728 8.411962891642943 10.907197867954919
