11
Energy = -18.52567220 eV
Ag 7.674348951505456 12.720670888242612 8.92983020669998
Ag 11.948344608469492 8.494639720922434 13.226789548830792
Ag 9.710602642373436 8.411128131733042 11.816044991696282
Ag 7.2410137118868105 7.812207679605616 10.481725440991296
Ag 8.262080878165268 10.399162471103935 10.439991681293211
Ag 10.106769527564293 12.371571171403328 10.582251852282502
Ag 10.047620326288211 8.976771552841775 6.346705820193339
Ag 11.84994848926915 10.090453421774482 10.94128747860299
Ag 9.845804453297275 11.001539161763636 8.296064257245742
Ag 9.460791309694548 8.430569237639345 8.937283618246298
Ag 12.164128685884885 9.530177555115067 8.240987181295058
