46
Energy = -99.52026696 eV
Ag 15.85443891789727 16.830171488757543 10.94419045452663
Ag 14.199125737654233 15.43015879840441 9.091165429810921
Ag 15.05933320642457 12.664126208362573 8.520794732531057
Ag 12.36365928306295 13.473767555552763 8.035885219176517
Ag 16.150437220654435 14.109897444418593 10.656647885646581
Ag 11.356939923617455 15.329642965690946 9.896933236642223
Ag 13.305630825384075 16.002675500972007 11.795254576783723
Ag 13.227202406154861 10.968409040615 7.153267863956743
Ag 10.417546770503433 11.85135331036303 6.845951570159277
Ag 16.684993049892277 11.367743489280848 10.634075669752399
Ag 9.669433627679842 13.134636427938823 9.178950285810572
Ag 15.487749808182555 15.144204074312428 13.20550555205123
Ag 13.238103567290016 13.261125717993595 10.687920053214693
Ag 8.651245078153703 15.348251778416095 10.542229194891155
Ag 10.615034568150705 16.123967678167 12.542446822666834
Ag 14.242256368866446 10.29148717060239 9.707191678882372
Ag 11.421922311997486 10.910527137653094 9.343180020461851
Ag 15.21039092353509 12.425907175228133 12.691317741086763
Ag 12.650467892716183 8.406387838368152 8.271559496250761
Ag 10.587288230599642 13.347028071220306 11.921979368417608
Ag 10.143513917712097 9.16074138252193 7.222692694212775
Ag 12.972180210149391 13.804642935468983 13.62371668214251
Ag 8.512118092558337 10.483929734268791 9.209067016471849
Ag 8.160315503487057 14.908280395772932 13.18122152474277
Ag 9.76604759612 10.590579691437215 11.76496784708332
Ag 15.009667300204315 9.56202131275738 12.351861854470982
Ag 7.933790557914195 7.831183190675768 8.35124870816549
Ag 7.795255672419445 12.597280921256937 11.215181007946917
Ag 13.995472470294846 11.017326781384677 14.748344996450045
Ag 12.75839415883273 8.286467605107243 11.111122129678431
Ag 16.766364624271766 10.707667609981756 14.124813540844725
Ag 10.291645795142662 8.26627671150863 9.834812755221233
Ag 12.41738454290268 12.83179869096408 16.255374899999428
Ag 12.570674162633772 10.930243963036434 11.955741070844413
Ag 10.406092412933287 14.26834392184695 14.745215348240908
Ag 7.802987430907377 8.083573588758867 11.078806156766275
Ag 11.187039464258074 11.56832494680383 14.155368957847498
Ag 8.464036353508114 12.282757808295935 13.945949055442282
Ag 12.609354936872522 8.728798421152431 13.89545792405881
Ag 11.825324653961866 9.845817677964687 16.3020077228404
Ag 10.305709154633686 7.8929631896337415 12.590219603958328
Ag 7.885373124472826 7.479837599215598 13.857072166745901
Ag 7.149978965306223 10.129352450281672 12.761867829316698
Ag 9.704281231016719 11.898472271360946 16.47968279758244
Ag 10.54352938583875 7.377880724805967 15.326533816501964
Ag 9.192781511467462 9.685790111728457 14.775496199239772
