12
Energy = -7.5292533 eV
Mg 13.922982122052419 10.98783135372848 8.802706919156066
Mg 14.266434976916639 8.103959427737948 7.815558276258291
Mg 11.428328615297106 8.496273091832359 9.114873168164037
Mg 10.769560975558644 11.486165187449608 8.670943149148776
Mg 7.978532667866709 12.487721499710677 9.029666083253492
Mg 8.518763134704486 9.418918195058218 8.979555916260727
Mg 6.756330016924007 8.180560009742631 11.13253860146947
Mg 7.699768259173581 10.968107584151689 11.643714488351364
Mg 9.94162679192381 12.927009617651992 11.303851817156874
Mg 9.732040806598627 8.504089147495044 11.646957354940332
Mg 11.995163622754344 10.578609211113413 11.33764004041159
Mg 10.050120722939823 10.920408387037698 13.581646898138592
