19
Energy = -15.35097489 eV
Mg 9.073161871840353 11.811811272767502 6.9902744855090955
Mg 7.62087741358676 9.21629849678366 7.965597583737524
Mg 10.242744193784057 9.115215383345172 6.474523415371886
Mg 11.926700674634406 11.357669333312696 7.868586271928293
Mg 9.89503394612757 7.072126044510003 8.670005258429587
Mg 7.037511352354958 11.924649180197834 9.169127879830224
Mg 9.887665459536517 13.142287901849894 9.575023345587638
Mg 12.661378832981637 8.434266199711574 8.090321780354438
Mg 12.104360528005838 7.150436898004837 10.729006515076906
Mg 9.97713425399756 9.977204125493822 9.980426482047342
Mg 13.11183710385026 10.107384939313825 10.567873900205907
Mg 12.786053376038037 13.022522346659054 10.162728286325
Mg 7.1637046283572 6.93885272667939 9.802914940520782
Mg 7.0138535565079 9.592904929789654 11.092517625956656
Mg 9.294556303689122 7.440551281428697 11.796189751696208
Mg 8.115472798012053 12.405303026774757 11.912429473874537
Mg 11.70263379724906 9.028985440254365 13.01136872830354
Mg 11.067823324627152 11.888684924060277 12.28601255084707
Mg 8.892538083068395 9.947887047312955 13.430113222647472
