10
Energy = -4.53208017 eV
Mg 8.961724446587368 17.377684608994926 13.796269390012903
Mg 13.876208033960998 14.419064436116322 13.088675667133082
Mg 12.3802126812331 14.400089070159911 10.4868079252524
Mg 13.814213079109031 11.834144473306404 11.296917547186824
Mg 15.063321377076765 9.32711344570564 12.47214500228191
Mg 12.204369585218743 9.997497380238721 13.292245871412298
Mg 10.742275898669506 12.265600938856608 11.81590921479253
Mg 14.724398246592166 11.730992021999622 14.315931530040176
Mg 10.882464704269282 15.072009506122203 13.038874876395473
Mg 11.873397376736072 12.705502699483622 14.605215208482814
