11
Energy = -6.8154536 eV
Mg 15.648264889765738 12.723861392284245 10.66608800167503
Mg 11.818005048782288 14.553913511676177 14.409711504774187
Mg 16.744670718169797 14.236165410059218 16.71000846694914
Mg 11.454116776121477 10.370182666801925 11.642515975506658
Mg 11.744299901634614 15.588248714436146 11.569616548675398
Mg 14.13543420097544 11.268315215038147 12.783211434211054
Mg 14.19905211834842 12.91486706338231 15.343596289132464
Mg 11.66167748322765 11.474986546186557 14.478456257533647
Mg 14.315670589124435 14.438347590353349 12.706136697344979
Mg 10.204144397694408 13.055135404480074 12.212638282562198
Mg 12.674772293011616 12.894384658113035 10.472725049393071
