18
Energy = -12.71002581 eV
Mg 9.734238744111241 10.58474659085452 11.554044844548997
Mg 15.006388908205754 16.41555226188926 11.108765816079705
Mg 12.64297723857154 14.692629919556971 10.427405487225723
Mg 14.040259686239953 14.842504578045798 15.597254491246527
Mg 14.675189050525205 10.438819381351134 11.313979423081364
Mg 10.109469889717904 8.377622236180885 13.464516202603072
Mg 12.912823080751442 11.937189233715543 15.961792136796458
Mg 12.729499128556215 10.080920857706834 13.626886121080746
Mg 15.02775649675484 17.337650303799208 14.068532540321447
Mg 10.182842947467188 11.24563473021051 14.705812402285318
Mg 12.41405267419685 15.883967734618547 13.241841085896224
Mg 11.985864515317747 8.722323803034596 10.916181020289875
Mg 10.720565097692091 13.300775916449705 12.448421170779985
Mg 11.086653874080906 14.194055423215337 15.361636559514823
Mg 15.32749313930304 13.356452588854053 10.409727610846868
Mg 12.247561413819009 11.719222562810119 10.219629560615731
Mg 16.13855733677229 14.644518980622847 13.164667321405517
Mg 13.67275671763381 12.880362836801329 13.063856145099072
