12
Energy = -7.08231487 eV
Mg 11.841191707190339 13.629457509839463 14.824465467691708
Mg 15.87915568718872 13.44240017574524 13.098345673355073
Mg 12.985736253605966 15.724298461723793 17.121686588861493
Mg 12.161938079113382 13.402753510247855 9.809009744192515
Mg 13.844527590682699 15.723005532245619 13.94043668536276
Mg 14.763621943153696 13.515642508657754 15.99264173254705
Mg 16.8326628226916 11.284380359211921 15.32753737507319
Mg 11.419165766304337 11.929409324086786 12.37292543577635
Mg 13.865715965685371 11.32912871803971 13.995030348372671
Mg 14.40262530912476 15.051614368645192 11.052986540789218
Mg 11.432450686905216 15.103727007899309 12.175538004010084
Mg 14.35213402845539 11.827885362571712 11.044331044877877
