19
Energy = -15.15151082 eV
Mg 14.463297818334306 10.29640758237686 11.130366431550826
Mg 12.340937947412838 11.965861747022451 9.477697865049084
Mg 13.803389757544373 8.29215582662884 13.219181820026341
Mg 15.281557587176094 12.51790510950012 9.195794693683828
Mg 11.523357679781704 9.62040132135758 11.666290113855982
Mg 11.776101756678093 9.643954150336787 14.87618518187823
Mg 12.462602131638926 12.49140722135047 12.553060618937208
Mg 15.59003768815411 12.861248747614084 12.228660484544275
Mg 14.50687944742217 10.96978300137294 14.46299094710604
Mg 9.705893792197998 11.379366959368117 13.606866886229387
Mg 9.586185222917697 11.561903454606112 10.48140001493425
Mg 14.517505009869025 13.982686023671892 14.875720916891925
Mg 15.407550905264197 15.813862052447092 12.620271312735804
Mg 11.935812513686074 12.586281753242114 15.603108157535765
Mg 13.639329144877443 14.6878900044864 10.436184140986054
Mg 10.651143255208247 14.442937550899936 10.893909304914933
Mg 12.49996446173653 15.618739176027832 13.182690140718933
Mg 9.990646111096874 14.379761579659288 14.083816389942864
Mg 8.027647086482585 13.491109548095071 12.061103883011633
