12
Energy = -7.59820083 eV
Mg 9.381228231412447 9.888989222200813 6.566027767150992
Mg 8.442460555495455 6.961166593337636 7.432240797810877
Mg 11.284601069927247 7.444124713458839 6.671063837657149
Mg 11.651131223547694 9.69735103708682 8.731529636261412
Mg 7.0112404689016925 9.536218206524087 8.427991457024463
Mg 9.163088162342037 11.440311544475612 9.172212223954963
Mg 10.70503923793415 6.829448174306342 9.657345858898976
Mg 7.818054258406516 7.49639393049797 10.436973403168853
Mg 11.612654054434053 11.797503155403657 10.903331590041892
Mg 10.00733597861912 9.293022886911334 11.281718520654694
Mg 7.006117737285974 10.427419695989077 11.437592274745903
Mg 9.057075016278517 12.328076834392848 12.421998627214723
