14
Energy = -8.79963313 eV
Mg 8.805098548545683 12.845127502219313 10.529288607394012
Mg 13.83782700461145 12.06394120171222 13.984688858681439
Mg 12.450951459933309 9.967613097685135 12.368211928533183
Mg 13.082296465595226 15.02144633803645 12.433569654722634
Mg 16.713684696023794 12.724060975427037 15.179993414346498
Mg 9.442809675780035 10.205776169328763 11.92994281219165
Mg 11.267119499822092 11.241162259096892 9.735203585627636
Mg 11.467781363130289 14.264138542393114 9.98437389590586
Mg 11.038661894498066 12.73239784961902 12.797027436739905
Mg 13.873469899677218 12.324160387560699 10.906336380424575
Mg 14.934290469970957 15.170995232669732 14.854532666328389
Mg 11.946996943535902 14.21387253562451 15.232734062823345
Mg 16.06199920354562 13.806099582333605 12.38475350458331
Mg 14.21616686005264 13.052615298046469 16.91693167058521
