12
Energy = -6.81708166 eV
Mg 9.314840561067827 12.364793775923046 17.424978322433592
Mg 14.58742195876032 14.736648738026863 11.695643789128354
Mg 13.86735356312856 11.829667286922955 11.636161770871011
Mg 11.595732726471518 15.073149039336382 12.901399456752488
Mg 13.993740946076587 10.974278308614604 14.507719003523874
Mg 11.147440527976613 12.628197318037186 14.797766779006487
Mg 11.435054954339266 10.947619950105684 9.929562484321385
Mg 13.860462896849286 13.926734552727815 14.472874687122664
Mg 12.202064340108482 13.873184929916183 10.145520059448145
Mg 11.621838939025695 10.2436069626675 12.886364688618626
Mg 10.071116221290675 12.634171299443931 11.907776995153771
Mg 16.31377946512334 12.741474680842462 13.387303291647616
