13
Energy = -8.1447215 eV
Mg 11.980523214330447 12.816314202236228 9.438942227877487
Mg 12.789418099519255 10.088785501382166 8.606118317232369
Mg 10.6715942814414 15.181000921534398 10.709348320338087
Mg 9.367499774625404 12.556404616206525 11.283760425491439
Mg 9.809372699149714 10.585099254009195 8.839708596178511
Mg 14.33521427423927 11.551522070927723 11.083312125209398
Mg 12.170917743091909 13.209998760999463 12.55399418284877
Mg 11.655415287079062 10.172374643651207 11.394835806178921
Mg 15.06445406071837 12.876083514710357 13.899238377845649
Mg 8.68629066918182 9.680408277661908 11.504459574021205
Mg 13.419815290687948 10.418228016986166 13.927072209822187
Mg 10.309001778552046 11.150349548428968 13.926847887632402
Mg 12.534791457078734 12.62337051552025 15.687032865319416
