19
Energy = -15.41378553 eV
Mg 14.726713894616935 11.59671560812876 14.500163716211894
Mg 11.24743494546931 10.162174579515751 11.06712214259719
Mg 13.572655337519183 15.968949715239068 12.182105656836097
Mg 12.777119581577319 13.343340437712643 16.02843568524381
Mg 15.704281035390588 12.339569392164421 9.341576977569908
Mg 11.818266835412482 15.688644497605118 14.486411603000978
Mg 12.036212420069905 10.543701353153839 15.84161629707553
Mg 12.815664984621733 9.069245679899977 13.464181036449219
Mg 12.480988319817753 12.558854716489172 12.725286615669484
Mg 12.972698843926327 11.215953205423341 8.86536793949691
Mg 10.679395794377504 14.848044002955133 11.812080700550574
Mg 8.94528211717354 12.09886113967854 11.941969676056997
Mg 13.158780867543987 14.034667076652228 9.975293147407669
Mg 15.417406298831388 13.478633370839216 12.077356402809766
Mg 14.854536545566367 14.841478647011416 14.625565756239656
Mg 10.153607794436699 13.047513012567727 14.539802601527768
Mg 10.46564723188613 12.78958139687886 9.48868710785624
Mg 14.421287759537243 10.543097734811262 11.416111325134498
Mg 9.937663980795726 10.016619021844317 13.80651020083567
