10
Energy = -4.76286306 eV
Mg 7.3045046592815615 9.476908559431056 9.468136041535908
Mg 10.102413762346735 8.7473014740878 10.318564066136169
Mg 8.719830419235253 11.294191444828213 11.599101249955092
Mg 12.942264061515933 8.096804532141594 11.178067895226434
Mg 11.31637229173777 10.059385605372933 12.84005368992518
Mg 14.058427842098512 10.815861263709406 11.600312331662012
Mg 11.509224762479208 12.320655413710544 10.849539057079172
Mg 9.64780624480914 11.378359391978826 8.609472365652604
Mg 12.506428267990982 10.165424556292509 8.988047737448614
Mg 6.70089777946783 12.395217269311189 9.373432308192973
