17
Energy = -11.35952969 eV
Mg 14.270379029036947 10.51824035620267 10.995434874562811
Mg 13.082163669886512 13.499156353070406 10.816259706692023
Mg 11.999322473795141 11.814340318886305 8.31210575847929
Mg 15.263851120255103 9.597432374357101 13.685561002240226
Mg 9.537543390396554 12.863645571050856 6.955773321020636
Mg 13.311411686854965 12.03658857114381 13.605041732142938
Mg 11.923107240973303 8.81694615828136 9.561187866326945
Mg 10.123234449663952 13.880006303029347 9.847712089697657
Mg 9.247759524808753 10.50016301475512 8.95745601183017
Mg 11.269877534719472 11.281542875147187 11.271744393272542
Mg 10.641244941350449 13.731307994491035 13.014209763182661
Mg 12.440436871236003 8.686363512642181 12.723711635253972
Mg 7.316275498823739 12.950019323625346 8.890812968320256
Mg 13.032960666826103 9.68123072160854 15.628636667974911
Mg 8.28752093918716 12.033561495246357 11.575106995694597
Mg 10.565353270071519 10.734187105361325 14.252285444196024
Mg 9.47776270674351 9.050860658317774 11.752824210262212
