11
Energy = -5.41263562 eV
Mg 12.055568758340057 14.510891811291524 14.857016687142085
Mg 13.778681528093838 15.477430544373147 17.293379844582542
Mg 11.824686613030794 11.418006956285595 14.148405540819716
Mg 15.068294937342259 15.704158680691606 14.487865842479554
Mg 13.739303104784948 13.346203378365617 12.468436628904545
Mg 14.545777878548286 11.865531798035601 9.901482746086755
Mg 17.082268197446272 11.476873597883223 7.965223665365188
Mg 11.840168998909688 11.061319050688661 10.923734130768299
Mg 14.551419949527135 12.969276591670651 15.618996791288488
Mg 10.343084579110561 13.324919167608872 12.463567003832704
Mg 9.278049584004131 10.479727951535121 12.56820175916791
