16
Energy = -11.65449922 eV
Mg 14.241013215975588 8.962105985610219 10.515525341512275
Mg 11.462890149764062 13.410027976537634 10.11028841545174
Mg 11.388859977567716 15.647820072818723 12.097494277722662
Mg 14.187874768581601 15.893998970828394 13.242297431033732
Mg 13.22333451270885 13.051193928323528 12.691229862986116
Mg 13.801562343300514 15.211431156791347 10.202195553555905
Mg 13.086864345611563 8.646440823432112 13.39537922630672
Mg 10.223344579524131 12.824517001002611 12.98126669430244
Mg 10.277759670009445 9.880396254675324 13.96775043522815
Mg 11.785302932901219 10.569252135265485 11.426577974779935
Mg 14.227502322933274 12.072759322999232 9.934749275906412
Mg 12.039432495125284 14.432388646351503 15.018685518992866
Mg 15.99191022367079 13.793814202437623 11.842862672086317
Mg 10.128453775546383 12.220402373512735 16.035344071505975
Mg 12.793510097639047 11.163486795485895 15.044874239901167
Mg 15.132559878097739 10.802027004084369 12.793552738029447
