14
Energy = -9.30288871 eV
Mg 10.217614014979114 7.350043064335301 8.504863129438291
Mg 13.005309585820333 8.036174344815135 7.587564362380584
Mg 8.120509730968461 9.576336609273993 7.689379798904578
Mg 11.036080518990374 10.366022377330019 7.932122922130726
Mg 8.903277908272633 12.56224902270801 8.908272954530801
Mg 7.610476630693532 7.392274186693743 9.82351205898486
Mg 10.201578865445061 14.63934758489297 10.731325571277324
Mg 12.244276321379532 8.870449048176438 10.436888832140774
Mg 9.126693363912482 9.881007566296125 10.572789411323528
Mg 11.54335400627719 11.89370714908542 10.601319633358434
Mg 10.073207905568482 7.169518842002609 11.669497239933118
Mg 8.810832783414824 12.542158062963363 12.26580093983965
Mg 10.943727474118988 10.02176996410733 13.13967183715507
Mg 11.475777747705111 13.011659034864648 13.449708166148236
