12
Energy = -7.64661553 eV
Mg 11.352417250345711 12.09912865016769 6.471091443969943
Mg 10.7471327110983 9.323305254283145 7.750518725761901
Mg 9.006961808689516 11.655495592064716 8.453690406459266
Mg 7.859152434065749 8.830235335681413 8.617947656293873
Mg 12.218275940751136 11.852706439063724 9.324416508668547
Mg 12.929829499919023 8.925808477116101 9.87886639904198
Mg 10.147984226916074 7.944780456566122 10.441267028512879
Mg 9.953537550170962 12.931460149078754 11.089012710140837
Mg 7.075606562282502 7.389140239908947 11.481873861721214
Mg 11.291484987862203 10.371960007429307 11.964161080733334
Mg 8.310039145286275 10.421862448296768 11.181713903550142
Mg 9.258359285201026 8.404898352932074 13.496221677734562
