14
Energy = -9.39758857 eV
Mg 8.033749808052443 11.549787206886577 9.704643012434321
Mg 9.446213185560724 12.4552160162502 7.128488017822925
Mg 12.602057102375587 10.161673860129515 10.684806788838861
Mg 10.368705254275955 9.794021941834254 8.574198542311553
Mg 9.791324237703352 6.61637205192774 8.372618510362704
Mg 9.736119715730148 10.126723269633555 11.858219815416597
Mg 9.696441903498691 14.12102546031767 9.715835327997025
Mg 12.284963089935447 7.163361472812784 10.085599826487364
Mg 7.9428446541619975 8.577523825002865 9.932456374196331
Mg 11.99406006336146 12.425917517426168 8.733895621766873
Mg 9.718519819523195 6.624280863281995 11.507416621176407
Mg 8.550175924739403 13.002784242244514 12.310301034367178
Mg 11.910523491854196 8.161684185436242 13.068164218200199
Mg 11.456875607956919 12.752201945545151 11.855930147351467
