17
Energy = -12.13733015 eV
Mg 13.3375902591509 12.839313075261735 14.091562111629443
Mg 15.894814734304934 11.374165578460829 15.024056463515235
Mg 8.132666203324266 15.334141633450349 11.893992548829367
Mg 15.97069776244067 13.309084063207004 12.695911654674578
Mg 12.15190909361224 13.752156835135704 9.08639417869138
Mg 10.859398836712792 16.01403749314989 10.609325340102261
Mg 8.455482701523591 12.439200726292988 12.463705949472319
Mg 10.734405218636224 11.305802082847533 14.14382765915374
Mg 14.15614190921847 11.867504812054719 10.64630858005726
Mg 13.319660139808578 14.755618587206872 11.76924307523617
Mg 9.193446780636135 13.660933066793465 9.726100266163892
Mg 15.246989936566989 8.556015981140627 14.533109794384519
Mg 10.727146058616396 14.299961908751445 13.287683057086907
Mg 11.200240745884742 11.83003841989341 11.206115354204272
Mg 13.114192893931698 10.238784443719299 15.727904595755126
Mg 13.103151687256233 9.893655413432235 12.699625416537396
Mg 16.213357515878055 10.340878356704021 12.206426432008396
