11
Energy = -6.44352941 eV
Mg 13.385162134148093 12.383548433242789 8.33761597645965
Mg 11.25347940859407 10.313529199250198 9.144561326983172
Mg 8.598964864666645 11.48334035263721 10.193421709136826
Mg 11.14107161018766 13.22319105410859 10.271643626834843
Mg 9.278630720715768 8.356314252527385 10.49554078619298
Mg 13.40965991916179 11.296409585833224 11.161759409564922
Mg 12.13822575511885 8.410579602851708 11.399671214099525
Mg 9.07271158804514 13.63045885375964 12.535647974173093
Mg 10.205861232334872 10.668146562573968 12.45984959261977
Mg 11.950908053183987 13.177947642625073 13.245247231601004
Mg 12.714633711773702 10.20584345852032 13.904350150264786
