12
Energy = -7.02962883 eV
Mg 12.210700620291648 12.118340526374332 11.751977654026938
Mg 9.100545490245986 11.771298891708259 11.018471868871274
Mg 13.900166540692872 10.41191624007557 9.856640198304195
Mg 11.056968331507035 9.401294825249721 11.129534641019355
Mg 11.196934036917046 11.415812328833107 8.805948217014992
Mg 10.20191856497339 11.063218155488583 13.801576625798686
Mg 8.332298813402087 12.103260812025438 8.106096131195416
Mg 12.054038390144441 8.388724472006846 8.479608348838683
Mg 8.343010394396375 9.063017082315785 12.389102543145823
Mg 9.390548979665455 9.289917612553035 7.4903963415186325
Mg 7.3228702119424645 9.65221067332928 9.650081368642747
Mg 9.307237541441793 7.369238474600095 9.829172611760585
