17
Energy = -11.80267817 eV
Mg 16.68402190897267 14.719687021868165 14.37242817874203
Mg 16.117018103169787 12.121310433074244 15.891385395237306
Mg 15.352201846470393 15.437162407164875 11.659930758922282
Mg 14.531056192291086 14.640648525282074 16.53783317111644
Mg 14.120518233003763 13.047240784676372 13.641884032857428
Mg 14.376969979102615 9.772334196490778 15.102653963424322
Mg 14.410515111167037 16.70936608840097 14.250068985063857
Mg 13.672012065269522 13.175148797365972 10.566976291671788
Mg 11.417548127628288 11.217331549799614 9.948651640738937
Mg 13.31124656308922 11.930400585204474 17.089543552158222
Mg 13.254309600094963 10.432653754152678 12.223841961587079
Mg 12.373633127312353 15.595557274725085 12.292867846820226
Mg 11.667926801828862 10.941498666354592 14.818015602984383
Mg 11.784021617792895 14.147705372711341 15.292427133433556
Mg 10.95979186512945 14.364510773563476 9.9177921084124
Mg 11.098832239081013 12.795891500649027 12.555709812114175
Mg 9.553845140643848 12.568894846827698 7.807190132675589
