15
Energy = -10.26207361 eV
Mg 15.97827914912778 11.704225630814058 12.875151489810527
Mg 15.654446505835319 13.55035005458199 15.251938649574008
Mg 15.808521798833647 14.66087131085013 12.3913766604906
Mg 15.08024133026607 12.787774571352264 10.094600632729948
Mg 13.026701439909123 11.408675485075962 11.901943721595067
Mg 12.961439282033771 13.720885002498171 16.57980925059603
Mg 13.590636890970984 15.519049931940481 14.233599430823528
Mg 12.854050125413945 14.580479706042416 11.442285189790496
Mg 13.612611640789623 11.313193727153852 14.81073052129206
Mg 12.143835142357943 12.407367053601227 9.13440969561249
Mg 10.905867276754845 10.221440111065936 13.737397790486963
Mg 11.389470892258142 13.381372381688784 13.87613552614663
Mg 10.0225146359392 13.705414701037565 10.930289789593704
Mg 8.635586406573138 12.056152209872295 13.049736034436702
Mg 10.158757963277 10.665911547058654 10.79891332550118
