10
Energy = -5.02535489 eV
Mg 10.261461501315507 11.52914196577382 12.994055519044457
Mg 11.480746957096954 10.808094693434622 7.961242820753634
Mg 9.310920280105336 11.604825556950505 10.116525650160376
Mg 8.524926432512322 11.33838030776522 7.200657174995594
Mg 12.319545845689632 10.909803085174412 10.760311218099554
Mg 11.493193489632088 8.654082732881717 12.722955522329014
Mg 7.6897020348949905 9.079512111390068 9.161927250814175
Mg 9.739912159697639 8.457103105264467 6.926602369592127
Mg 10.701863844023128 8.376819193543916 9.804976412909
Mg 8.535609575422049 9.164075379559222 11.958189292112502
