11
Energy = -6.86828443 eV
Mg 10.11803170860209 8.291824816293962 7.378089831029738
Mg 9.950989850048943 11.310759338764385 7.234865523024403
Mg 8.312985947300609 9.798354785556771 9.310334694568995
Mg 12.535807948836082 9.906774515044141 8.228757817623206
Mg 11.657122780027256 12.600607543643555 9.483223526773076
Mg 12.983957336745265 10.458536387875824 11.163518507670462
Mg 8.634213941804722 12.8236946551229 9.498176794403948
Mg 10.948484292781638 8.36433021878738 10.305636474939261
Mg 8.525863398990328 8.601829288636969 12.037525155908746
Mg 10.047995851790112 11.126551868073907 11.5878321660889
Mg 6.850223183696584 7.282412822823834 14.337715748592325
