17
Energy = -12.59019347 eV
Mg 9.734079760349813 12.18816512944143 15.159111436067588
Mg 12.360119194658662 10.773507715465076 14.970122654314661
Mg 13.409450891794059 15.758230373935778 13.216652528431675
Mg 10.373773515140867 14.638034690552477 13.04265203003297
Mg 15.436491224158875 11.268944286447306 11.71844306119281
Mg 12.258892142931355 13.879191714225996 15.334709133086495
Mg 10.130929784120543 10.06451400519554 12.92310714982427
Mg 8.201244079649921 12.44273016853056 12.682595684233336
Mg 15.141546042576188 14.264518723054174 11.164848816535914
Mg 12.345414798476304 14.943713556204566 10.528213995898946
Mg 13.101567849518753 9.22290274337088 12.435566685831247
Mg 14.955867127718342 13.105889304560149 14.05007541731362
Mg 14.283931802952859 9.44597562681887 9.652996275073047
Mg 13.413702524997031 12.338741081403901 9.390831689504836
Mg 12.506411472356007 12.369474297743828 12.417303036022435
Mg 11.407406374989119 9.927177894057701 10.063146259387675
Mg 10.224547971537193 12.653665246918049 10.535000705174102
