19
Energy = -15.47083745 eV
Mg 7.183306651496019 9.584910364624083 10.75205309138997
Mg 12.959694848299797 10.434150509853296 11.217119593252965
Mg 11.149543933507502 9.396318859546755 6.714322260406627
Mg 9.3471295828842 7.16904551831386 10.770809188778333
Mg 11.59255772553148 11.590489119283156 13.79850383560766
Mg 12.093130832751582 11.762950300029164 8.428191191272983
Mg 13.410326563647464 8.981281532104967 8.55118862947073
Mg 9.135376701586216 11.537405515438262 7.286957388510303
Mg 9.969653504325697 14.079640731537285 8.564954073488803
Mg 10.769379038299174 12.836279858572249 11.186804451660617
Mg 10.225318551678994 9.963198796654673 9.993608179263557
Mg 10.889903801593299 8.817187044871442 13.01726568149009
Mg 7.924433983953618 12.485355247637232 10.118415652959342
Mg 7.98579948408637 8.327836299719372 13.361854085818882
Mg 8.75271488128349 11.209615234522216 12.819342466328768
Mg 11.112008780917197 6.890191424499393 8.263377484109046
Mg 8.501379051160217 8.488864183649271 7.9822417939812995
Mg 6.387470839716589 10.809652637275136 8.12148015262561
Mg 12.410639660141463 7.435395238728121 10.851279216444636
