13
Energy = -6.86572818 eV
Mg 12.934715712017514 10.284237032927967 11.96701660094154
Mg 12.945919664064187 11.097113369785783 8.998258301929136
Mg 12.787358641464396 8.162016264243995 9.764686426325119
Mg 11.336198688761051 12.802256939528132 11.147317572824248
Mg 11.056876985416876 7.9892222871202945 12.42732642954082
Mg 10.20090760103843 10.899333789965642 13.225545078979335
Mg 9.746126114892768 7.383648788845503 9.79472709276097
Mg 8.10941321225111 8.993622241166824 11.952863028277225
Mg 8.122433080754504 11.974714003907359 11.254564838862663
Mg 10.852742621268746 9.240119436350083 7.661416154987965
Mg 9.109369276076324 14.598826844811587 10.035913862149542
Mg 10.021086575319416 12.172252576785574 8.410779385050237
Mg 8.153007404974696 9.903861826504757 9.001198131207587
