13
Energy = -8.30201221 eV
Mg 11.259813358593174 12.614975877950394 10.244695067279624
Mg 10.683447667130062 9.61432842387875 9.99835215638533
Mg 8.964445959275709 11.3741501509523 11.854287649915898
Mg 14.134699001164728 13.451719788331644 11.046205735934983
Mg 16.06574582497407 13.855934762750326 13.51720943352817
Mg 13.338354158229931 12.652354501091077 14.727775729728052
Mg 11.970504003585043 10.80514444741074 12.65663758443421
Mg 10.779480293830943 13.580895597793853 13.219540623705544
Mg 13.644302552459497 10.419669446938187 9.91371753511657
Mg 11.468313222442168 14.969710937214973 15.869156541534943
Mg 15.03814764284214 11.123554475514165 12.575525696152084
Mg 11.952267173820053 15.459186233226713 10.920937331564248
Mg 13.464714138847915 15.436569577569635 13.645935905830541
