18
Energy = -13.54739743 eV
Mg 10.106257653214962 10.03420627055458 5.745402794893164
Mg 11.96939721262284 11.71570280457997 7.376466880772383
Mg 11.61281003220899 8.583532413104896 7.9575968346112145
Mg 13.208325800047312 10.556074689295933 9.806003335823137
Mg 9.071003598644857 12.35261438736557 7.492453754652692
Mg 8.420190984089157 9.209840089697124 8.08631157452498
Mg 13.0048657012938 7.583702938901955 10.571411817107974
Mg 13.559166628136673 12.77405704799393 11.766651936251423
Mg 10.613508949467246 12.56489536278797 10.200139343399446
Mg 6.189531973136714 10.770123482410327 12.399408032637986
Mg 8.538418645546205 12.64699100268741 12.544952833386201
Mg 8.73456590614124 9.540060011464671 13.259644305767091
Mg 11.291812067805987 11.244533568790711 12.996064353844549
Mg 7.67002516221192 11.556377713282899 9.924058156986852
Mg 7.322533134537153 8.451290284635013 10.730010872320111
Mg 11.418103341780142 8.091665404894222 12.978696534920305
Mg 13.957172799073042 9.749240232107569 12.562610512366334
Mg 10.221077843467583 9.48385972887108 10.51088355915954
