18
Energy = -14.30132607 eV
Mg 11.441602765494554 11.36054118529378 8.824587097457051
Mg 12.23794997349608 12.268871439800996 12.360368424111929
Mg 9.939718282231736 9.704711936844074 13.470226604760903
Mg 12.855884736680462 14.645807780059673 15.023506668053855
Mg 10.22380316906633 13.70535908853175 10.539348995476358
Mg 12.732992607134673 9.681650117335643 14.24152183222024
Mg 10.417534739939455 14.704643653366528 13.468402585395802
Mg 15.358601110462889 13.44379034667542 10.669181158246115
Mg 13.024238439755422 15.19525057468309 11.859894768985635
Mg 9.357169039467246 10.712618507963732 10.762599397224013
Mg 8.68674631192129 12.422587263864374 13.061031225803852
Mg 15.284416340307631 13.866227548519822 13.554913369734766
Mg 14.112470150127928 11.928613571708091 15.440918728527766
Mg 14.996818445901711 10.928354426524333 12.527566367126088
Mg 12.17698677613406 9.428350912146346 11.19785409742174
Mg 12.915084729782844 13.885314326136093 9.10123540733776
Mg 14.254803192338748 10.956865477960065 9.56407887508593
Mg 10.939959228937306 12.11722188176657 15.289544436210972
