12
Energy = -7.28509224 eV
Mg 11.519621250717726 10.360778408090503 8.351318256020498
Mg 12.511185469697367 13.249206669193963 8.935304661473275
Mg 13.528411702712788 10.919393310984848 10.600967841427089
Mg 10.11234832119589 12.449283598151151 10.473289708196285
Mg 9.624348812487156 9.448174093447394 10.63878692948659
Mg 12.373843552139068 8.05712251171153 9.990373660173704
Mg 12.514205241386403 13.517470160335442 11.95872524345586
Mg 9.789150469069162 14.553360288335595 13.139571517223235
Mg 9.009832712977419 11.503998497254194 13.016794470765808
Mg 11.615289262710984 9.953901529527622 12.72794422201641
Mg 14.048402754619524 11.427885094791089 13.546943761953068
Mg 11.399889551886561 12.605954939776964 14.666508829407617
