17
Energy = -12.40911232 eV
Mg 10.71743723565568 8.953455154905575 6.187115866757434
Mg 8.934579222792486 10.928392603829403 7.5578540542322505
Mg 7.959492638495122 8.100217996554166 6.897470343748429
Mg 12.150280780140458 10.893762762598188 8.064365414605625
Mg 10.131527745044657 7.325110759994382 8.895403183905932
Mg 12.934832811352102 7.864040100651466 7.8297401806860005
Mg 10.482674189038644 13.227831308186838 9.256605310836918
Mg 7.416638287398753 8.807647302484225 9.738471537249493
Mg 7.6832157362969316 12.215061413733535 10.397464110169821
Mg 12.673005197518865 12.138028647187245 10.985891508660995
Mg 10.002251917981551 10.359248058313955 10.260030211722091
Mg 12.442980999681172 8.812174871324977 10.593706898936635
Mg 9.979883051077481 13.009283519077377 12.209740258264652
Mg 9.652151410301474 7.882895017385611 11.969670325938363
Mg 8.189816765895142 10.502371920840657 12.853181624392363
Mg 6.639726103125412 7.849824697338716 12.459915025194952
Mg 11.265746526537315 10.38689448392636 13.099614763032143
