18
Energy = -13.00295249 eV
Mg 9.867173788935501 12.830211966048118 12.091382180211161
Mg 11.335615856743319 14.594680806244252 10.125115123537142
Mg 13.143500666735529 9.069947214908018 12.076603784897449
Mg 10.560807487288915 8.036791835962195 13.524377538038605
Mg 12.6423327228406 14.312361036934023 12.830571512935533
Mg 11.48237340608751 11.573232317478427 14.168936034291736
Mg 14.186311742328451 14.197049265708344 9.195991013028923
Mg 10.091356268974621 9.524386437915485 16.07804668572574
Mg 15.523743903794424 14.243521671242483 13.752983285384756
Mg 13.276085911071332 16.754247578964907 10.614250369225573
Mg 16.011813984156486 15.672360399154998 11.131186904523005
Mg 12.753216748654141 11.879897195870104 10.850574887611941
Mg 14.37692416454651 11.459607373129323 13.721555706133383
Mg 15.78669510523487 12.628475499865162 11.173373751552377
Mg 12.919280666925397 9.107640436142919 15.080111178993848
Mg 14.253471236087524 16.960218439276755 13.39929904854591
Mg 10.363578130907193 9.91915288486378 11.102570251752606
Mg 8.685218878332464 10.42584832413318 13.536047900128088
