11
Energy = -6.83979964 eV
Mg 9.391977993701815 7.305456547000501 6.201255210289002
Mg 10.001557655039807 10.015669229937169 8.42096020776436
Mg 9.87164925072375 7.2111017219718265 9.3767085895126
Mg 12.797412362980483 11.149154234003708 9.042642631243739
Mg 7.595748219163991 11.556080360125772 9.569870294216896
Mg 10.334540839004513 12.820667172008118 9.531392160008762
Mg 12.060256115541476 11.809274829148315 11.930582025647048
Mg 8.994448563073528 12.048653058690673 12.239019419905935
Mg 11.747722175315857 8.984939127059434 10.881138048806237
Mg 8.645583213525505 9.2301544477931 11.201040093371557
Mg 10.509603923218613 9.819349583550435 13.55589163052321
