18
Energy = -13.1935388 eV
Mg 10.083424598316894 12.768491711953372 7.381625752635592
Mg 11.562751963708818 10.339569715922012 8.528534840048804
Mg 12.70636271149318 13.235071640039456 8.659418480097239
Mg 8.695031916298626 11.19425861179025 9.529942102576033
Mg 10.056068331972948 13.945782461496762 10.188321490436055
Mg 9.822573654239923 8.549734680102725 10.5021159788071
Mg 12.917701427881061 8.097748110680975 10.186128461099367
Mg 13.624805017760783 11.047415952020568 10.703194214394841
Mg 12.829777671916716 13.924864076039114 11.625288891136414
Mg 10.748507155312767 11.272101462770143 11.71977995350402
Mg 11.558564420780131 16.6825070726822 13.080797907675985
Mg 11.443643471939007 6.650991882236906 12.238485412556706
Mg 14.200917440330443 11.961303015928326 13.609699481387114
Mg 9.984291441507999 8.984816107909367 13.58985929030055
Mg 10.064162895703598 13.801341665049272 13.207671390994275
Mg 13.025836015798195 9.17069329546125 13.13950455728521
Mg 12.641201087186507 14.257892771340842 14.691193828423259
Mg 11.36571336313411 11.446750351857844 14.749772551923627
