15
Energy = -10.06263666 eV
Mg 15.368314768225234 13.80425157030869 14.177697199802495
Mg 12.894723477735461 12.234466626590796 15.239282506093275
Mg 15.195178922779034 11.186224781019746 12.533407358061948
Mg 12.475068197600411 14.863081979336295 13.85776592617983
Mg 14.718452775822136 13.788162425122795 11.125438587681604
Mg 10.032663953201515 13.336185248178804 14.886856605202823
Mg 12.410021048948352 12.295711899163724 12.295746191539296
Mg 10.67132897661509 10.464445207715249 13.776011653356552
Mg 14.551663862188926 11.137718637231078 9.543763608611219
Mg 10.121838624659166 14.052109305947186 11.812514103359847
Mg 12.667240619699852 9.505762361881885 11.482098452448648
Mg 12.06871480595752 13.060027568349144 9.488646062438173
Mg 9.96655602938243 11.047498072965166 10.74277594677087
Mg 8.111687667319364 12.023135100082307 12.99243748299231
Mg 11.912153134119627 10.11673879619095 8.55058664853875
