13
Energy = -7.76980928 eV
Mg 18.029632668744842 8.483048185352638 15.43603172476307
Mg 12.502391336023619 12.447048075643975 11.125986323258648
Mg 14.753898405726764 13.404292442147 14.371540564620808
Mg 9.513631209385272 13.282623125654364 10.701989844679206
Mg 10.44501871046615 11.531246870824901 13.0423016684606
Mg 14.380199993953712 14.695042660710163 11.615406352755752
Mg 13.270367882039466 10.755245617324615 13.635840206371554
Mg 12.66693492304329 15.613791834670677 13.974917138274924
Mg 11.831030137256588 13.02252609215775 15.271811074411032
Mg 11.551765363808235 15.398197118068817 11.074795814926413
Mg 9.875510375541456 14.554146389727318 13.40787331200888
Mg 16.351348467804794 10.8860813008701 14.40605603006613
Mg 15.476531911884392 11.79831804982857 11.726288895663034
