17
Energy = -13.17498723 eV
Mg 10.06923717282254 11.716377531829103 14.352241752605996
Mg 14.786543852929048 11.316744525306259 10.883898582588447
Mg 15.52409867594375 12.976296042457186 13.410967932508061
Mg 11.959683324425393 15.519599260629368 10.57333407403885
Mg 13.046886239004094 12.195245192750779 15.030318400552066
Mg 8.408467747681687 11.891002029919534 11.79141268288099
Mg 10.574456858875651 10.690992992197947 9.924978793128941
Mg 9.742631095189617 13.621928777485882 9.648495929395168
Mg 11.980956636355279 9.353718561941594 14.624833098456996
Mg 14.793755843767928 14.365432621703755 10.77787269642966
Mg 9.778103205197011 9.2393384551629 12.496701985377461
Mg 14.80504805610126 10.01387032307809 13.654180918705986
Mg 12.128125120272435 12.120884038325881 12.128727218057817
Mg 10.083955183840606 14.300957019048022 12.666665144529029
Mg 12.6644708908537 12.826266500362323 9.208933131440023
Mg 12.693880498462793 9.17757551920233 11.60080917600843
Mg 13.060793706997977 14.774864717319813 13.326722592016587
