10
Energy = -6.52274266 eV
Mg 11.700828649526787 10.804025136279051 8.166474133546314
Mg 12.843567470762062 10.140408516289005 10.896056984513642
Mg 10.757934910271528 12.32618051717494 10.71746769875234
Mg 9.44537167506479 9.116983994019364 7.056566230038282
Mg 7.870636631117855 11.674131538896313 11.337505682490004
Mg 10.070810343300108 9.705591147738984 12.08502552940134
Mg 8.735168253317694 11.725114539347665 8.431544263761264
Mg 9.15283866003794 6.934968538381199 11.44175682591783
Mg 7.9965050385140595 9.090465654375311 9.733703225442614
Mg 11.029674546191956 8.152557211837324 9.46913686105633
