17
Energy = -12.2429203 eV
Mg 9.81596158147263 10.797425073534534 6.45040893925716
Mg 12.09325974678122 9.611602155985208 8.179622261111835
Mg 9.581002550915139 7.9867530081360405 7.462839648715672
Mg 7.113771727614581 10.183392382817303 7.520446105020551
Mg 11.544725700908582 6.875010710981853 9.402110792765445
Mg 11.359339533030834 12.6927475882584 8.106549660771488
Mg 8.309044717128858 12.651753978666024 8.748283428075268
Mg 6.7546148858569355 7.339194446715078 8.233673906234328
Mg 6.5302233584956255 9.392317717342562 10.417651249535751
Mg 10.42356604778493 13.227310603828855 10.917953749058901
Mg 12.998979667943726 11.690927057227398 10.392192812958054
Mg 8.686181126120827 6.915497992184734 10.483493514467046
Mg 8.05704775289172 11.624824402059993 11.610374360364908
Mg 13.137202698336434 8.805586151360467 11.008396945958632
Mg 10.924533593629116 10.556877347285427 12.469458746117875
Mg 10.954153816061007 7.424512297976206 12.46151181481557
Mg 8.375715883674571 8.883591474287494 12.794356453418953
