17
Energy = -12.35831644 eV
Mg 10.19110530457234 15.968957666308768 11.550645605838051
Mg 15.963124189793533 15.10999901474798 12.659601133569302
Mg 13.9073815758879 15.611529443574309 14.875100971468221
Mg 13.495757392295545 11.235660267338384 16.456502096114413
Mg 13.147620666690415 13.318654525069121 13.023344850503062
Mg 16.140500578470277 12.195655362720151 12.03900800978682
Mg 14.075176646807934 10.497435798383384 13.610819684152547
Mg 14.24769315295178 14.009467717291441 17.330739497242845
Mg 11.267523265536484 11.072417669617916 11.708334283830608
Mg 11.064594009914968 10.984737260281898 14.717258348289587
Mg 13.793183768383207 11.45490547319641 10.263192896913996
Mg 15.651415939370693 12.841611938583343 14.939080075253509
Mg 9.9794774921799 13.417652522964467 13.162703111848423
Mg 11.789497832219975 13.7390468711508 10.230367874470671
Mg 14.952316261178604 14.22615683895635 9.993352024365139
Mg 11.638451551874303 13.707882795885702 15.869014126582575
Mg 13.227105245276435 16.123998591160756 11.60547961717636
