19
Energy = -14.61883701 eV
Mg 11.240770656080596 10.793965336600289 8.375075943447516
Mg 13.891965079924102 12.107733135207207 8.400562399806
Mg 8.531797805261194 9.623522320789283 9.691819804984464
Mg 11.238984669813204 8.021130434541385 9.576738674815427
Mg 10.714615552165924 10.926842454258527 11.413242001051142
Mg 8.933641797731282 12.661271970796006 8.94194169720673
Mg 13.612376191923078 9.780824829871122 10.328759466263344
Mg 16.395654759594628 13.819953880739511 9.217731734109007
Mg 11.68689030463393 13.660448636609736 9.808349816017815
Mg 7.174580481411614 12.1351088876018 11.22157815072863
Mg 9.233841543533124 14.279533025742596 11.544470872224554
Mg 14.170958138278108 12.647521807454535 11.352673438940426
Mg 7.8216218341631345 9.665655780642696 12.72560715957422
Mg 9.055820552866813 12.233823933326617 13.756935400634834
Mg 12.428983098794507 7.860264603455264 12.407032819818623
Mg 11.774507399490004 13.446310159320225 12.971210570006807
Mg 9.520199753559613 7.416496499140577 11.870588824283132
Mg 10.489465035952277 9.39050186916018 14.151839274618641
Mg 13.187749104466775 10.633514194386821 13.348265711112898
