10
Energy = -6.4329874 eV
Mg 10.609253213249882 9.18479260020464 6.324879056214919
Mg 10.366238710071027 10.000188488353997 11.504550386946653
Mg 7.920176739107835 8.387895586098598 10.84141504277048
Mg 8.15942732553879 10.270186876037535 7.4408300448602835
Mg 8.71521070469414 7.277385742393984 8.048842438127338
Mg 10.590489580252564 11.440918659661568 8.81049828660856
Mg 6.000699742441682 8.81396339265716 8.713999117444992
Mg 10.164318936896253 6.553862584754237 10.795810544059577
Mg 7.898815555864318 11.3392048999117 10.264199250230984
Mg 11.372538763336443 8.528770441379256 9.052145104189021
