12
Energy = -7.23903672 eV
Mg 10.123280507704118 11.83474688839048 7.295431731735768
Mg 9.405620892364324 9.749142944692238 9.340844908352608
Mg 11.4398811846222 8.381418737498928 11.083579799218528
Mg 12.333933896581897 10.689589089026212 9.270038437469864
Mg 12.042789332549072 13.70950748441822 8.264440470868406
Mg 9.928070686540734 12.641808374809484 10.435608763532707
Mg 12.986271779713718 13.100445136175063 11.05427431578642
Mg 13.518858178627047 10.306649525315814 12.074935856806661
Mg 9.04205275926788 10.305830335632065 12.235080080084662
Mg 11.424234564794679 9.207792914505404 14.052298794031422
Mg 11.14941056915373 12.273293468736266 13.228891462875122
Mg 9.233678775333615 10.963397841552716 15.265269296001179
