11
Energy = -6.82926122 eV
Mg 14.431077218523512 7.209156022748574 7.753844501240842
Mg 10.487168386306827 11.004883180836323 7.910198260207045
Mg 7.480695873914859 11.141704454391876 8.129816422999586
Mg 8.963283939165377 8.595689254537282 8.934808277428766
Mg 12.012534375376896 8.716155942551534 9.195915730134427
Mg 9.1480120249104 12.850101896449441 10.02474124817758
Mg 11.824039882754635 11.38607383544584 10.667539584011347
Mg 7.573349201968358 10.502147147901345 11.099544619159
Mg 7.740899944056774 7.550524462442261 11.453010723465953
Mg 10.336852459865682 8.987380511512944 11.746603701768837
Mg 9.729184088503919 11.78328068652996 12.811074326754424
