11
Energy = -6.55704054 eV
Mg 7.705785616032402 15.996758299446679 13.272929691609994
Mg 10.524038927286984 14.786301518506107 12.692420605181887
Mg 12.657155711111791 14.167811513465523 14.646610491486484
Mg 11.175034241048436 12.788228939315857 10.610505964641199
Mg 12.086203719996567 10.277797279558143 11.826190686923812
Mg 14.070801553019855 12.428812985050666 10.36230387611623
Mg 13.162927609698396 11.279200309481855 14.755953945000908
Mg 13.280012769703509 14.959675626829487 11.62005283350997
Mg 15.145416791344113 13.429125994604544 13.289173689457112
Mg 14.924730377426663 10.614184281348164 12.501456781511328
Mg 10.545009097718959 11.990881618687652 13.641505639155715
