14
Energy = -8.34189069 eV
Mg 11.472043726161129 14.220423587075173 11.025864001750666
Mg 12.773432733730303 11.515095512687253 9.551372740630878
Mg 11.798376078534547 11.525248803952275 12.45495837687152
Mg 9.883083271647362 12.427711752517393 9.108284829375547
Mg 8.94738478958842 12.610227852313207 12.035752743020739
Mg 14.113525990678914 9.417085911212688 11.356906121533296
Mg 9.555068099107121 10.445618186691824 14.257866637632134
Mg 11.54627838617128 10.625767133233367 6.873861595476581
Mg 12.132568413601499 8.511410651505892 9.107743447975517
Mg 11.26173731578056 8.535178516804152 12.086739956739288
Mg 8.451218990380124 9.615654514006078 11.512117570756656
Mg 6.977749957102966 11.661393730075364 9.753060867373264
Mg 9.23860311797862 9.486399142563654 8.553792701905449
Mg 9.650355115682617 6.8537896246742545 10.083327159246053
