14
Energy = -8.59768028 eV
Mg 18.316862409754755 14.434418354189045 11.394083737016846
Mg 13.817924606480348 11.630502036832203 10.727330243674151
Mg 10.416362622612784 15.335201891040258 10.771396215423337
Mg 12.95198034002446 11.493613528719301 16.905614574180948
Mg 15.300095800183776 13.91674147869336 12.100720590760417
Mg 12.679393473912652 15.286580056987516 12.915146512931656
Mg 11.876851586203973 14.040102506400144 15.599722018676271
Mg 10.613690368139771 13.147395016563497 12.797339615471063
Mg 10.67176006550448 11.121644942885348 15.070517365193789
Mg 10.974273459455839 12.380776196852016 9.88120874526597
Mg 13.478842082059568 12.194901525973428 13.721526802027107
Mg 13.11683836848305 14.498041024395746 10.00082114430374
Mg 11.589263431857539 10.250167139763983 12.136860807688178
Mg 12.847123762192465 9.137634946901365 14.854810630711903
