18
Energy = -13.24498176 eV
Mg 9.995005715209297 11.482714848162141 6.544961990057287
Mg 11.697130068851195 9.064052001172474 6.816322375329764
Mg 8.917717574843586 8.771460612152973 7.8574952435129735
Mg 11.190652674792425 6.655998080946099 8.51978772409384
Mg 7.91150232309604 11.807662871733132 8.540308154090987
Mg 11.157076758328037 10.69221813877067 9.46117639197214
Mg 10.375372339936952 13.699942287761214 8.701953044823092
Mg 8.862579421601918 6.736669691344436 10.328508714530432
Mg 13.478446065151815 8.624248500269447 9.172897317749198
Mg 6.247533417906223 11.61655543437963 10.96942303260699
Mg 9.110811451844064 12.7955807461695 11.287620597063452
Mg 12.059876427445193 13.097937697749426 11.321034354594786
Mg 8.582098179015686 9.68021917937302 10.688809945553999
Mg 11.544620163260587 8.00200007543929 11.332703863904253
Mg 13.56320791787682 10.349997742975999 11.636779458328135
Mg 10.931031427563743 10.77547321671427 12.972681057779726
Mg 8.000059745020655 10.895411643154095 13.426293513795247
Mg 9.216348827991174 8.092927731467606 13.262313719948962
