10
Energy = -5.05233303 eV
Mg 11.862771600226921 9.781724488624421 11.033576612098193
Mg 13.196956144447611 12.103281519301298 9.856211764720639
Mg 10.437742693876839 7.636475909912687 12.721078288448796
Mg 13.45934227602003 11.684124450139869 12.98995472361932
Mg 15.038283390166418 14.047021842610503 11.333203610629218
Mg 12.401861282556823 15.067058465446557 10.189556062637356
Mg 11.436196407504621 13.135947026967719 14.85273613123047
Mg 10.756199186081725 10.399913618945668 13.892380674534405
Mg 12.859820850440544 15.040542175001296 13.157543421631894
Mg 10.80940935887 12.71678882485615 11.842203650138408
