12
Energy = -7.67439393 eV
Mg 7.5712525590283715 13.278990556807413 6.912538425879864
Mg 10.010271841673644 11.610314468190527 7.287279624421674
Mg 10.446882957876731 6.731456954129762 8.371758905601641
Mg 8.674636940645916 9.131234993222092 8.749745452984614
Mg 11.762751622948187 9.51273027479293 8.543711703513026
Mg 6.86004574748027 11.85833177549576 9.414306936876477
Mg 12.022261892229691 7.4931541197856895 10.85737790079861
Mg 9.00544303702297 7.048991593389184 11.060074484988204
Mg 12.797712883817669 10.392655524088507 11.303889596389386
Mg 10.045302399784132 11.28034364634982 10.447442395121088
Mg 7.68971972769217 9.731899258454263 11.548245452900678
Mg 10.398920005865923 9.215098451359585 12.78883073659041
