11
Energy = -6.82749412 eV
Mg 11.77687497369708 11.723736036410088 11.055939154349753
Mg 15.998066746206858 11.145990921398706 13.608439988978626
Mg 12.1928916887727 14.714956187817968 11.428385401118803
Mg 14.78713854560171 15.771807492866902 12.57522885687827
Mg 12.2278905492024 12.944214200732608 16.142131276951503
Mg 14.561892061465947 12.868503528540044 11.636027666594272
Mg 13.01703265317716 11.166492585353392 13.80266925579373
Mg 14.820689056899061 13.645746067466712 14.733807344915792
Mg 9.816553345249549 10.116157175101543 9.142113245815718
Mg 12.415696961898165 15.453400943768704 14.442612264802895
Mg 10.665941004760004 13.044184883758371 13.548319485936636
