19
Energy = -13.7515604 eV
Mg 15.992362610968682 14.363469853602718 15.327142678389052
Mg 12.168248715316006 9.960143370748744 13.750689085673702
Mg 13.547667061477798 13.73534002562476 17.127735138829593
Mg 14.771537085372634 11.574481018954636 9.806400439307131
Mg 12.639306258771077 12.45901553184692 12.199214139189028
Mg 13.491820608600111 14.250371463828287 10.090207837049118
Mg 14.374319406451933 11.677464472163646 14.9988113786917
Mg 13.468704411395677 14.922176964317565 13.689659255655908
Mg 10.399077077374827 13.609005750585883 10.185134174160238
Mg 9.813769988781932 11.398618509363201 12.177666524587629
Mg 11.344070314912916 15.391707362679602 15.822736331410571
Mg 15.672434656737622 13.134279565538124 12.473487301164939
Mg 11.387244646004614 12.417730817026884 15.316629458546732
Mg 14.912888302614562 10.125393079551849 12.378965574823981
Mg 10.384858073895455 14.40768574596911 13.171117148091657
Mg 14.178507526162631 16.451707437094083 16.354927375578622
Mg 9.686150133719671 10.885763616529973 9.142096111328618
Mg 12.28817619086403 12.05217217571616 8.225536706761156
Mg 12.280000048998039 9.984616357277806 10.562986459179754
