11
Energy = -6.96559661 eV
Mg 12.731083553648785 13.058337754654067 15.658262573239158
Mg 13.053436495724128 10.055697463387904 10.656025847022596
Mg 9.49180714516275 13.67995871662051 10.735398533136848
Mg 10.07847787593725 10.805408117005065 9.984554800345213
Mg 12.05524195213321 10.632013504579605 7.72789032326772
Mg 12.38922757565989 12.929810251695828 9.840217280651004
Mg 10.629696211353114 8.756371893505795 12.15410108498922
Mg 9.419205970817126 11.484452452343888 12.872450789779899
Mg 14.315207694632186 12.407922253797318 12.141021987663166
Mg 12.34207774107589 10.695022777103206 13.622160682345772
Mg 11.657733725779405 13.65820075723054 12.77111203948301
