18
Energy = -13.34606154 eV
Mg 10.957950347800542 11.89578740185892 8.162012377606107
Mg 11.47275615320757 8.149125926336145 9.404175053826155
Mg 7.3890218475592295 8.903291560757571 12.506820519356056
Mg 8.471707567542971 7.256462080032213 10.020602161470512
Mg 9.872076130209093 6.8596750847913075 7.192046299174394
Mg 9.746204808686976 10.931449079746939 13.36706176692794
Mg 7.308277614220536 11.823507804360323 11.736193098142863
Mg 13.573178437435988 10.292197979423161 8.760668869283345
Mg 12.223753550808956 10.308865162109443 11.513906126134874
Mg 11.615719686470078 9.369553704495114 6.5496081238215
Mg 6.568919040604501 9.684976721674428 9.547439703588864
Mg 8.756788229178975 9.858559552791187 7.332609869729361
Mg 12.453953299108798 12.979244602362165 13.149846298340309
Mg 6.912063788209156 7.309966334332131 7.262549040662755
Mg 10.24746640111941 8.155357676223788 12.282288303546318
Mg 13.003133926604777 12.99454979962216 10.109781301401531
Mg 9.438443435459764 10.265058167556164 10.18571112961724
Mg 10.059308724397019 13.033094350151462 10.987402945994502
