13
Energy = -8.61206815 eV
Mg 8.949506870063741 11.45557858100255 6.936498347838876
Mg 11.964751435784331 11.255322811637235 7.187535484710377
Mg 10.208619015196879 8.82091105877139 7.904787212972569
Mg 10.39151739173382 13.145235272931572 8.958806597856709
Mg 8.515843384199536 7.512532613739698 10.03916472905281
Mg 13.197139402348608 8.921413029086416 8.671391712122341
Mg 8.597838343095322 10.680125410695414 9.804492514090276
Mg 11.133605963938965 9.181649655468618 10.822219132170446
Mg 12.982751599118341 11.609308095358323 10.019638505392606
Mg 6.224794373230341 8.589780709426877 11.783952395712598
Mg 8.386215208159522 6.832306034725373 12.988727779660776
Mg 10.540968190349636 12.007976574715192 11.740690761905093
Mg 8.726691512049527 9.808102841709342 12.962337515783098
