10
Energy = -6.03724597 eV
Mg 11.416888789397381 9.25961748221059 12.816249385388069
Mg 12.146181744030185 12.31870141483181 12.906227863514568
Mg 9.418788180628045 11.319243801792958 13.957002029095587
Mg 11.137169613140493 8.759664167455265 9.86241067455651
Mg 13.516691892415086 10.431061861532717 11.01502217048658
Mg 12.678893628955747 10.734296730755041 8.061727748656025
Mg 8.773869798141675 9.956064610734412 11.277561126224906
Mg 9.502074209875307 13.00559725164571 11.375636012543572
Mg 12.173669834759265 13.085293839773156 10.001695701636107
Mg 9.783395561611792 11.40171937663665 8.85274726814626
