18
Energy = -13.16628595 eV
Mg 11.385683620453477 9.615640033953985 13.649233402541329
Mg 10.890783250391058 12.8572658994446 8.668886692511903
Mg 13.642350852179582 14.017209085894097 13.393024557587717
Mg 14.051972110605346 10.999282158008432 13.20104975291582
Mg 11.033116309854147 14.722846964279865 14.638655310890067
Mg 10.630959554618187 8.070937490507065 10.19617867559861
Mg 12.19821443592698 12.07900278652383 15.374019740329095
Mg 9.67715303912799 12.125706395193864 13.643786478577898
Mg 8.711333762335384 10.680423814874372 8.997840279348782
Mg 10.985475795250181 11.170094446363386 11.117862801120184
Mg 13.359930912257836 9.170560686449106 10.84683179187557
Mg 12.026264141968149 9.995848172997135 8.265042022032121
Mg 11.164215118218527 14.134053428335644 11.605143160893988
Mg 9.451459652528788 8.275071513593064 7.129326222049612
Mg 8.566704194454083 9.633850740900101 11.91181794321488
Mg 10.021820475972023 11.0875306941623 6.283911549321562
Mg 7.693169414578038 7.86966418390577 9.51874912073008
Mg 13.584696260395447 12.570314405728928 10.633943399576632
