17
Energy = -12.47050547 eV
Mg 9.84674325486255 12.237448469908484 7.08833187851006
Mg 8.013603030490401 10.015824359155054 8.318288643274897
Mg 9.026265376799035 6.851065478840405 7.496532816880052
Mg 10.618282053185945 9.281969909034844 7.02286330795213
Mg 12.490651442767005 11.175811674235552 8.462647859653162
Mg 13.229954048943823 8.144072983398212 7.891193003589397
Mg 10.932741117934107 13.683553049035034 9.443104646840888
Mg 7.968586158046242 13.039154679796571 9.30017992483682
Mg 11.091637939584817 6.8393171729289035 9.634128265324994
Mg 8.302479037866028 7.77284814114005 10.350669952802834
Mg 7.276418956453116 10.704977499590424 11.280408148611317
Mg 9.354932754135573 12.978186536521466 11.947736506664665
Mg 12.797239701245683 8.990779981068707 10.746371319493743
Mg 10.209406746357566 10.369499035516164 10.33950697845339
Mg 10.529037633646404 7.861856146075645 12.496461734073208
Mg 7.567521165502622 8.235747270426527 13.23544938825259
Mg 9.420504529081311 10.493892560229906 13.622130571687377
