12
Energy = -6.88548148 eV
Mg 8.5645246420649 9.93800329411861 8.509551482064325
Mg 7.008064179825238 11.221771520605342 10.633642390118153
Mg 9.753629167827484 12.625196718702195 10.232905196078285
Mg 11.420483941124338 10.139025110456272 9.143105998896484
Mg 7.986033138279088 12.37294503494026 13.144877885879488
Mg 9.507467541017432 9.783800567332499 11.703041760864576
Mg 12.809145659456012 12.580612587183602 10.634973156498603
Mg 12.577585706166673 9.743001946776548 12.106795885331678
Mg 14.330801671079342 9.879329305696992 9.265002572122436
Mg 10.911635936233704 12.275323649863898 13.170595081483738
Mg 13.745493681073292 12.29417544970025 13.910254630322658
Mg 15.315909367299023 11.103195369156758 11.74164803256617
