14
Energy = -8.56688494 eV
Mg 12.754379693738993 11.994013090203023 8.553386790743485
Mg 13.68770955200745 9.58511830176604 10.049428305050776
Mg 10.801011921971957 9.673950251933057 9.285163741100368
Mg 10.681121635644612 12.374031865304083 10.874800856927264
Mg 12.821591469322177 14.587757305444965 10.287721240400298
Mg 14.855553665690135 12.426049470478777 10.628142735289863
Mg 11.466383268987016 8.404415501027474 11.901144734982799
Mg 8.910022977431208 9.9442199576944 11.756750008589878
Mg 10.934886554183953 14.862474339562148 12.762800968025598
Mg 8.977306780089538 12.53923532347202 13.49968448795675
Mg 13.802421602500234 14.079293405879444 13.058979452106566
Mg 10.41846718323549 10.059194604608281 14.329122943740918
Mg 12.84509654498561 11.1204739549566 12.648005910586631
Mg 11.586916146725548 12.892641624183987 14.907736821013211
