15
Energy = -9.5069324 eV
Mg 13.822382385342689 15.192434997570833 18.754870691865733
Mg 14.730104043805264 12.809145764985157 13.940887182612771
Mg 11.608408193175272 16.41085536393649 14.275835268848136
Mg 15.968411015466037 11.693016197222281 9.88248289922607
Mg 17.068352646972496 11.22526516529058 12.556360721381054
Mg 10.147677947301993 13.71008939195122 14.76501441393743
Mg 14.037292461100446 15.590939515076732 12.674930264509548
Mg 11.346779186516414 15.332908001544192 17.079165535475234
Mg 16.567715033518148 14.14465397355063 11.720649702566956
Mg 14.185492365440016 10.187633969683914 12.008391477973799
Mg 12.73776442507178 12.68286753344067 16.124229409020266
Mg 11.88755196923703 11.697732669270534 13.341375148873317
Mg 11.16093147276233 14.499222124234421 12.059590419388275
Mg 14.25669996446221 15.242505013636853 15.642702004490971
Mg 13.462279852394747 13.039821476213596 11.020139827453965
