12
Energy = -6.3341642 eV
Mg 11.121957126929317 10.080435595136946 8.33928433948144
Mg 14.231054478761632 15.07265218544967 16.981472028883775
Mg 14.152905554264356 14.078845215460593 12.365536211210015
Mg 15.815980036727398 15.792861363091664 14.572291241023503
Mg 12.784855382210123 12.27559169663864 10.051954666374272
Mg 10.343490127404975 10.827356583585276 11.168791416989576
Mg 12.974125027147753 11.26167673307547 13.028679895471429
Mg 12.847210465340437 9.20625010200065 10.578494087797242
Mg 15.143724709118976 12.823226467435669 15.110262284400685
Mg 11.209677437877604 13.74103871616873 12.512523079604794
Mg 12.135920424311427 13.002146617224769 15.29572467496589
Mg 12.76876201097633 15.894743884566747 14.374122951560281
