16
Energy = -11.33570268 eV
Mg 8.692002380780613 11.52141193192782 6.911025703371793
Mg 10.704875238305185 9.102463340233854 6.755843671367697
Mg 9.95708006321428 6.401096008676499 7.946839912989921
Mg 10.845652294576265 10.997974329847489 9.128761531756176
Mg 7.736711022768058 11.706741073737051 9.725276509129904
Mg 9.635287226212796 13.888801086791956 9.015307137251039
Mg 8.151239603511966 8.927076388831393 8.568727843424554
Mg 11.672308829016119 8.09877776805467 9.658286381490294
Mg 12.372899699390322 13.260504298171616 10.44349127572814
Mg 8.846171171896152 6.726555496671633 10.723150229645572
Mg 12.529006878855405 10.239714495326119 11.575564951094869
Mg 9.199091070284059 9.648559408423331 11.388725030904117
Mg 9.654592785904514 12.658394538478298 11.889959486818338
Mg 11.093430807271456 7.6885986470980034 12.723948568302733
Mg 12.437412206321316 12.56825976206179 13.400553176754979
Mg 10.373879346615434 10.466712050592264 14.046179214894249
