13
Energy = -8.44322474 eV
Mg 10.551643606273188 11.646351271514586 11.390959521077082
Mg 9.804917780625276 6.77646218026886 9.718804924275082
Mg 10.517908243603477 6.67285011494243 12.615610941499197
Mg 10.165545202076318 9.650179878013445 8.729075479042827
Mg 8.134983489440124 11.22229350774402 7.033233589853917
Mg 11.22739458039558 11.290416343989612 6.424800011143484
Mg 7.124601478572476 6.549208511648044 11.009190169024349
Mg 7.762890641801627 11.551415718789455 10.053175815775425
Mg 12.033686394331491 8.801527866178011 11.076711525363528
Mg 7.220362939322547 8.631888473411852 8.804959109729685
Mg 12.6819454913546 11.374457687525862 9.207645232448415
Mg 10.129817496336958 12.961894757803115 8.592184325974191
Mg 8.852243035478846 9.078994067783364 11.55158973440466
