12
Energy = -7.44014839 eV
Mg 11.661671546512512 11.550153781368774 9.13456111880293
Mg 11.783190855879443 14.264783753129718 10.746346752276612
Mg 8.995190057431795 10.355867692362054 8.444540998665625
Mg 14.35248462035967 12.636687712677992 10.796924125447282
Mg 11.316849068853335 8.471558651955487 9.097739407707055
Mg 9.173535072500007 12.477399742139038 10.677601873439386
Mg 11.612578958933923 11.493875812285935 12.264906882061744
Mg 6.832144072304927 10.505390421026346 10.615628190617548
Mg 8.72172089691615 8.150328633698605 10.59224785465546
Mg 8.930576491151287 10.278988993693245 12.838017031348175
Mg 13.619746049878152 9.718092070066772 10.698958799257928
Mg 11.25984470339988 8.415666575963245 12.18356274718176
