10
Energy = -4.48314314 eV
Mg 9.291672110670213 13.69662316507399 9.314065002690842
Mg 9.650253361865381 11.041528339311492 10.70961505370707
Mg 8.906000653763074 13.435915561006249 12.298290175104402
Mg 15.917542221532516 11.41720451551066 15.268141289515174
Mg 10.992289296829881 11.472583511224128 13.453922745791795
Mg 16.824035826879985 13.14480164452387 13.0161478191607
Mg 11.83304168675732 13.309808744181886 11.04260107673163
Mg 14.783575308991942 14.07253178314751 11.016021081547164
Mg 13.062991697411297 10.62175997110181 15.402013594156298
Mg 13.696173355136306 13.026008111555676 13.649692081000106
