15
Energy = -9.885956 eV
Mg 14.288442395805605 15.712301602992945 12.659916208295641
Mg 12.395530674834042 14.685755745196543 14.635168259221206
Mg 11.848975773770858 12.67084716969492 9.220461017001089
Mg 12.34646393161736 11.70801172016787 15.073533364942492
Mg 10.292408776295229 8.439922265356728 11.793697076951505
Mg 12.88474861312165 9.408748038650591 12.801648831019776
Mg 11.866321525314197 9.65326336226202 9.656450558937335
Mg 9.468947131208862 11.224430149839648 11.093389450801329
Mg 11.584422170104423 15.073029787710063 11.55739310099275
Mg 14.333805221206262 14.145117459252253 10.19454225992857
Mg 14.776838644228263 12.858022457382747 13.214647544231095
Mg 9.926967827067351 10.197111677339583 14.092232057616844
Mg 14.361287831335996 11.144022973282665 10.44730173537537
Mg 9.87005734686352 13.226650168626595 13.77231639213769
Mg 12.093883018713779 12.191866303731585 12.126403024034321
