14
Energy = -8.91734548 eV
Mg 11.583544942255418 11.347944071789783 8.599502577626707
Mg 9.835120200570934 13.717284901778008 8.46370268421016
Mg 12.51986156482116 14.225724728817681 9.566802236708396
Mg 13.761247938373447 11.696848021051208 10.668593385505194
Mg 8.934682500783138 11.625119156800698 10.336745127172364
Mg 11.239138123270068 9.882457248731404 11.219497341692756
Mg 9.870336725030057 14.503085001772387 11.304786023953609
Mg 12.547728423993494 13.90668602851572 12.570290718495354
Mg 13.916588987877793 9.284813957950623 12.483947985917373
Mg 10.027236406850943 12.087694277557484 13.119295644317061
Mg 14.853060627050567 12.163145984522025 13.448664987707925
Mg 11.267450255904494 9.562062084048296 14.222843047758156
Mg 12.203893284753676 12.440538897408683 15.187037312225744
Mg 13.957072840505695 10.073558461297013 15.325253748750086
