19
Energy = -13.91110741 eV
Mg 9.597206450213129 14.515352215730102 15.516070411703105
Mg 8.281946278056056 13.443631637329977 13.032799869352058
Mg 12.662938899694149 13.646390650394796 15.798416119923111
Mg 12.368037074787555 10.524219662833406 14.524482660931419
Mg 11.743420686609998 11.221800762801085 11.367747737291136
Mg 11.804834692654275 16.337414282901744 14.6377674860923
Mg 9.19516827936551 16.256094051898074 13.01133090507064
Mg 11.365309278986361 13.424179592582211 13.295424561081946
Mg 13.774697957277285 9.175640299448437 12.189357662925882
Mg 10.211725504271936 13.985020799654967 10.726163209435127
Mg 15.456086495189137 9.641129878895107 14.625479022364816
Mg 11.885604106319423 16.389856069008545 11.673295602249214
Mg 14.60568319546013 11.091839246057242 10.084500735963921
Mg 14.239196720584538 15.112714374327766 13.330199074631716
Mg 14.364882800535044 12.158274616510766 13.352253912748438
Mg 13.298393144837124 13.791061740571656 10.731933859835618
Mg 17.426738835241636 11.802795533217484 13.915387093144185
Mg 16.746699985608558 9.87805142514973 11.811407696600963
Mg 16.23850088414181 13.29296569500657 11.515165145839433
