19
Energy = -14.20120104 eV
Mg 12.585880748985536 14.731012311401976 9.183294584321192
Mg 16.453999906896957 14.621744478914673 12.850488581646067
Mg 9.568117356445223 9.673014120562412 13.243225504636465
Mg 14.143507050144656 10.537871499079406 15.003363286102351
Mg 14.554152658552724 15.25868500269258 15.091833172846448
Mg 9.351871117375048 12.53188173561349 13.946910123546004
Mg 12.26703372466588 10.771235959046297 12.603173709808516
Mg 16.178252891555704 12.846421456858186 15.328577131359712
Mg 10.60565223240475 9.885646291153824 10.22087257655918
Mg 11.232880975534728 10.893209581227024 15.599332508153859
Mg 14.904435107822371 12.061631254984455 12.37941267312676
Mg 13.432364362335507 12.781626932942128 16.78512614237898
Mg 13.171808728283937 11.841178915746557 9.84103950902627
Mg 10.347845631034577 12.565318310109348 8.882341724985265
Mg 13.581936379068738 15.287683839929262 11.993933787108263
Mg 10.882019844078771 13.864972252525991 11.565410949511673
Mg 12.226090820243261 13.544182344799884 14.165824236224502
Mg 15.383760184333765 13.911258390637444 9.997064167092507
Mg 8.464046280844606 11.653547110702773 11.116306200685585
