16
Energy = -11.6110245 eV
Mg 8.428917796070214 7.961025032755148 7.791661713771632
Mg 10.193335361509284 11.11028980181589 7.208135874015134
Mg 13.16119060933065 10.907054767340096 7.506098289841239
Mg 8.751015046953363 13.498009230924026 8.281045385710598
Mg 11.67040064789324 13.064977512605097 9.102890118712018
Mg 9.631797868695235 6.286566292276525 10.019204605270396
Mg 8.338233223818294 10.449518741681215 9.5734246215155
Mg 11.051162123268378 8.844710336068609 9.098817313238511
Mg 7.030309528400871 7.829897379861396 10.483889573966731
Mg 13.087292537892026 10.678387768261315 10.485031077088234
Mg 12.169137253949474 13.004378925277114 12.12433331568654
Mg 9.348217254473093 12.881568511220756 11.144987129511971
Mg 11.891448685005702 7.441342779587965 11.686227340351676
Mg 10.447741722569607 10.12932220792398 11.947490705378
Mg 7.438627760090501 10.081871646683922 12.477715865692161
Mg 9.052716089260057 7.522622574896075 12.760590579428927
