12
Energy = -6.92335537 eV
Mg 9.494977075188537 7.98994060438501 14.644828870717854
Mg 13.993826714906465 10.637446602816883 13.820296715796045
Mg 12.992701472210655 15.241679396220892 14.360714857677758
Mg 15.457037452505856 15.36756406757465 12.53085046104008
Mg 14.353892949737144 17.01875696150407 10.17620781312884
Mg 14.987783495363013 12.450899713426228 11.672530488057477
Mg 12.668804436319428 14.577725149204456 11.297378426783329
Mg 10.970223615422142 10.64973170594258 14.093726575106013
Mg 15.319118617821012 13.18936341177561 14.692696426346666
Mg 10.698677817646635 13.613758632648334 13.358977843793037
Mg 12.127798398159992 11.623001639210578 11.425323064000112
Mg 12.556225670024595 12.640543467591364 15.748719156412264
