16
Energy = -10.50230813 eV
Mg 13.520395426458384 14.968586033458406 16.606796267686818
Mg 14.299715324397853 12.082958737796568 16.17442039418616
Mg 14.441151801566427 13.921183115081433 13.806607686995918
Mg 14.786288398901217 10.944389689508007 13.24931488562303
Mg 11.544383738332224 12.719098280454226 17.213156945080026
Mg 12.657888669942295 16.322731293613465 14.04786530810805
Mg 15.66825534446696 13.054722405389143 11.127904069291768
Mg 14.61540293516171 10.24752367426997 10.228201696504811
Mg 10.55631667271965 15.271401078605797 15.932239267960876
Mg 11.935966073134388 11.462360712680871 14.403333800076963
Mg 16.132228008281587 11.765130171160385 8.185951269995535
Mg 13.220579158046734 14.985361163029594 11.223312115801637
Mg 12.494693896333054 11.998030637384439 11.475406111293665
Mg 9.211798488514056 12.649279493090315 15.307680284019314
Mg 10.946609106256721 14.014158330257493 13.122479487958747
Mg 13.533344924857975 13.026657643493333 8.835052252586518
