19
Energy = -13.96946575 eV
Mg 12.119387052855542 15.087110292545107 8.527143580623378
Mg 15.379571255296757 10.624281333053705 16.70414378957821
Mg 12.254886183236673 14.769326777484581 17.57891554017441
Mg 14.91548293643864 13.359708508962003 17.962044553862004
Mg 12.902528204963339 16.508091546374597 12.859150324118353
Mg 11.978475840855044 17.324308886224788 15.724302518692934
Mg 14.471577059693114 15.325252789716329 10.510916036928988
Mg 16.131892970142488 13.065240629845146 15.025501532671466
Mg 11.26172934076709 14.555683134856295 14.647086870586115
Mg 12.934952265495205 12.243767225333395 15.94983571173581
Mg 14.637419870551733 10.727960150385664 13.708517158422934
Mg 11.374092916696368 14.24613252864027 11.419570450860688
Mg 14.212793215599076 12.840019045453559 8.611806436376165
Mg 13.626175035617603 13.528823596985067 13.254320509252983
Mg 13.097754061107803 11.432968366520262 11.158716935106192
Mg 15.863654652149828 12.719749736775116 11.328114391399
Mg 16.039623072647974 15.408258894401094 13.042619775036096
Mg 11.220343828207197 12.297085781709121 8.861016641692926
Mg 14.424888893630488 15.459339783137322 15.628767942345018
