13
Energy = -8.12892651 eV
Mg 14.65222953205939 11.679940480943408 11.05113900713716
Mg 13.161158010719687 9.143132981236468 10.863866029936952
Mg 13.143030480300077 14.308300228714243 10.959435746993165
Mg 12.03139873928209 11.985289018690008 9.359587494860344
Mg 11.926871804180001 11.756595886517244 12.441540015025392
Mg 11.221850866549042 6.796370080293664 10.66037781125005
Mg 10.739263896093657 8.994236651194457 12.71757160892492
Mg 10.255118548603024 9.58607298459872 9.538482993865559
Mg 10.17529431137053 14.140807992428464 11.01048657229107
Mg 8.907950847512412 12.318959370275376 9.004047390300826
Mg 8.92304881191155 11.358664001922337 11.929110737566116
Mg 8.339991683580799 7.984871586126887 11.099751773458461
Mg 6.876857697605201 10.338472641254473 9.932302119311384
