15
Energy = -8.97408542 eV
Mg 9.156651215133644 9.156691913057614 9.156769674320525
Mg 12.208521710167489 8.854657534411794 9.151450696002705
Mg 6.104775014070091 9.458626509071456 9.161798368130627
Mg 10.476536278185366 11.924160338664963 9.15853235835971
Mg 7.372781515518773 12.31886695504275 9.165524187203278
Mg 10.940540188199126 5.9944156540309725 9.147797394937639
Mg 7.836795197551904 6.389172965005181 9.154715085331267
Mg 8.270412379551473 10.732255842350188 11.634031855732294
Mg 11.386473957434152 10.469510337109599 11.702082444028298
Mg 9.992958965673429 7.679715378000098 11.59869560724302
Mg 6.883550772458727 7.929621950449826 11.706024127170023
Mg 8.320389642985804 10.633536847487509 6.7146422265441945
Mg 11.429803156176243 10.383710965166337 6.607252457982956
Mg 10.04286307257549 7.581121013750519 6.679354669384426
Mg 6.926794434318291 7.843783509803764 6.6111762409273105
