23
Energy = -18.48445339 eV
Mg 11.082695129130354 10.432913035967967 6.4975139239004545
Mg 12.57793788723596 14.537679656096744 8.997933264474414
Mg 10.226688534466893 12.675222779742493 8.320112508981227
Mg 12.198257894739392 9.119583656654312 9.010494383267194
Mg 13.286020065832053 11.705192934843629 8.197844710530951
Mg 9.189684192980868 9.913732707361781 8.792652739400967
Mg 14.364912641703313 10.236769713833738 10.920341500615665
Mg 10.13036109754253 7.210777204876124 10.059255025746786
Mg 14.886094093388785 13.129815531256682 10.404820337517878
Mg 10.223664811640527 14.525263896901178 10.860472029568568
Mg 8.410515519886538 12.096849995237024 10.857636091236643
Mg 13.039136471853084 14.875925234726143 11.94256535986694
Mg 9.440351340863499 9.44311983906137 11.905330338424358
Mg 11.607917298812033 11.644891129230702 11.056542523788643
Mg 12.307560612595303 8.255795049210993 11.993436539238996
Mg 8.204309781487941 14.2132287660138 13.043373026087409
Mg 14.320203995566347 9.455709555380848 13.948806079838631
Mg 13.971928168049862 12.325983151709025 13.242148092015057
Mg 8.660233390008157 11.472910340914272 13.990204471724905
Mg 11.115957703065257 13.347347745433622 13.685992475540015
Mg 11.40353421517336 10.219773514016415 14.120380374276865
Mg 13.380149193742437 11.503820479497625 16.183992539513774
Mg 10.50404462535419 12.18985274715219 16.500310329562993
