25
Energy = -21.51295567 eV
Mg 9.553131945217267 9.769063095052823 15.194521670931572
Mg 10.960581072989807 15.74712976967436 13.934198580696886
Mg 11.783766905652994 10.995371973494965 16.617616584418474
Mg 15.347334635437598 14.210600748530306 15.130384822613484
Mg 15.877068924518056 14.814251300039764 10.124281626544693
Mg 14.292361001190713 9.399106717519206 15.623455572908027
Mg 12.465813094932766 14.17907042216251 16.143524304359897
Mg 9.764198646772682 10.765437251387093 12.44145525201673
Mg 12.869968939367293 14.018877490623586 9.588452594644878
Mg 16.47810994687739 11.33367330880447 14.981225909500369
Mg 12.90101348004973 18.02211210266824 12.467894867056911
Mg 10.056821266582894 12.899128757324108 14.741736511140639
Mg 13.45276533473768 14.633857167956672 12.490814526301712
Mg 15.074356871794677 11.828347893496517 9.979401334327255
Mg 13.093350701858435 12.110658274691684 14.004149217345004
Mg 11.181721639579198 16.372481726016648 10.74459647345055
Mg 13.952909116668664 17.004015507288415 9.883519226679693
Mg 16.081592065616434 12.975217944660505 12.527038966242893
Mg 15.729088866076893 16.65049269173318 12.568047262395977
Mg 12.06803149432656 9.111504554032788 13.62853137156735
Mg 13.721080693791583 16.709048552824232 14.975515229087527
Mg 14.524462191766917 12.05050917538927 17.082547437360574
Mg 10.561282414847485 13.545202190767114 11.803582802846265
Mg 14.898041843988509 10.124369706529343 12.61045283771901
Mg 12.409192183934074 11.293389313529246 11.105632288156597
