25
Energy = -21.10047899 eV
Mg 12.026121871308186 11.599639079253162 13.840953471475016
Mg 12.975477848682988 8.0729997631312 10.196731072147601
Mg 10.344556446955735 9.35167629610762 9.211896922556392
Mg 8.576525866319615 12.787840525175447 15.063898406721789
Mg 13.331164568042642 12.613723864768385 6.395012251679128
Mg 8.803308790409885 9.637314548772569 14.448991859333633
Mg 10.905152869765441 8.954090573627528 12.188610971395164
Mg 8.054507997392582 9.273084626752842 11.325140167415126
Mg 9.998619952827534 13.986045180356669 10.09110366487856
Mg 12.04889292045334 11.486975725161358 10.6871411572946
Mg 10.523644489930202 11.041048614273755 16.52982000362659
Mg 14.461398880807575 12.732528389739196 9.142124173007113
Mg 13.185806646460863 10.058010792574382 7.977967962231384
Mg 12.938912003048324 14.590434909321608 11.109295795023796
Mg 10.574962739018595 14.461442172559025 13.052888784302827
Mg 12.222190041732597 14.677346929407278 8.152283846312827
Mg 14.606483285404579 12.231868607891629 12.209247774622249
Mg 15.23927358256257 9.971008968245414 10.171453651586006
Mg 8.217217995233389 11.593162420948746 9.411680068698455
Mg 13.452403988586152 14.34287550749256 14.029268745938246
Mg 11.122845220462592 13.946012280056701 16.07706885560569
Mg 11.66819466391396 8.642927314672475 15.146351724740935
Mg 10.723756416802523 12.034444105492549 7.742663665862522
Mg 13.86933014468412 9.308136747360695 12.80452214837834
Mg 9.347303868696507 11.823415156358882 12.211935954668839
