26
Energy = -21.58917422 eV
Mg 11.415420092826306 10.892867864294878 6.279888418318391
Mg 8.94796321537483 10.727494570408433 7.978164685274808
Mg 13.235495494769722 12.828352399152594 7.8000429577992705
Mg 13.974020679892798 9.882968936311508 7.380879304073993
Mg 10.26002514026443 13.311343502248844 8.487468062681138
Mg 11.181867026960703 8.214043593381898 8.32495229188511
Mg 11.721026598875495 10.804885606496324 9.475830663319654
Mg 7.2496253947116855 12.824844018971667 9.561289110619375
Mg 14.591194990342952 11.562878008955304 10.265361133687191
Mg 8.870992551028497 8.890958957773787 10.423894306849146
Mg 12.37291596262854 13.66813853531666 10.68013848154436
Mg 13.973198870836143 8.691612443581864 10.13997045528081
Mg 9.47999831102536 14.745853234291811 11.155643844532873
Mg 9.636136348233256 11.786634722347658 11.258657213268517
Mg 11.36725576562991 7.854354445695944 11.490089068997435
Mg 12.239562254761584 10.73958965361662 12.335375937671465
Mg 6.745774808750115 13.727473054164799 12.422974318246467
Mg 15.125637943129805 9.736938919496096 12.870294689308091
Mg 6.995660801602182 10.782724971312641 12.068229157719802
Mg 14.1955673130626 12.866821591268076 13.06610153846781
Mg 8.40134372767713 12.211682457491323 14.440155233692021
Mg 9.569405588597688 9.492618921635772 13.342588069878472
Mg 11.107911214804941 13.34839630801371 13.48345005969097
Mg 12.411320320146869 8.619792550112868 14.341067109615086
Mg 11.05071392166283 11.11762248032713 15.600518134924044
Mg 14.048151978275422 10.837294569203902 15.495162068525815
