25
Energy = -19.97473641 eV
Mg 16.74378394181116 16.0891373999269 8.675961952715038
Mg 10.241843869131232 12.849329373055005 17.359640011991992
Mg 12.594736764827738 11.82938231883467 15.882934041437744
Mg 9.39448516295041 10.700960320497018 15.405209252823813
Mg 11.143624521179635 10.949949088619706 12.794749098519604
Mg 13.739579091073226 16.499426029805917 13.792293936419624
Mg 14.03373803960482 9.989248466766794 13.253383060401916
Mg 12.25392143511524 14.915327339478296 15.91975406059694
Mg 11.196285833386789 13.969531766414331 11.405204117001293
Mg 10.063485852685368 13.377782697723875 14.244173842238387
Mg 15.694723595532098 13.095055078414726 9.05504037044604
Mg 14.08577192561303 9.411016475361711 16.594740854152658
Mg 14.190801149338522 14.5215599988847 11.12056766741404
Mg 15.548869374179128 17.172117887400912 11.366487363244186
Mg 15.647087456943206 11.775318823879347 15.079695581637878
Mg 13.415681387856608 11.611118981655752 10.76250632279797
Mg 11.164537004524075 9.87071384994794 17.71631965670028
Mg 11.675855788160934 8.754176805762286 14.905255301429195
Mg 16.13112652468283 11.86561561159402 12.073371676733707
Mg 13.309102359553048 13.2505038919105 13.508944399607353
Mg 16.074396541491243 14.515444427553566 13.754471177536846
Mg 10.785546975628131 16.17595869082867 13.502541308985931
Mg 13.818470519745441 16.200701046417734 8.654602987698421
Mg 17.468545016317865 14.54695322224547 11.12126420547795
Mg 12.344277235323146 17.04063484043648 11.086569690531041
