22
Energy = -18.06127646 eV
Mg 9.61466460814667 8.622410401127064 11.914812287582423
Mg 11.637210158680716 9.235336779682443 14.284686051194008
Mg 12.22725318411226 13.354192108160719 8.825517749478342
Mg 14.152215131048278 10.157083743419328 12.955772810027941
Mg 12.496912803773675 10.59868868909396 7.57421078197096
Mg 15.002210838964356 12.13350929514987 8.400848577415523
Mg 8.234653456025338 8.957847442643544 9.13308047719968
Mg 12.610300774642084 7.814377434116096 11.921026815647593
Mg 9.683823824584188 11.557339684630033 8.308470497358826
Mg 11.317280991274036 11.100297550931751 10.910426375651749
Mg 9.44562311099501 14.076199957618346 9.889085750601271
Mg 14.048059819064596 9.700965017442774 9.988421256036679
Mg 8.170558444279134 11.465357742804388 11.00083735478213
Mg 11.266002646779555 8.412277827703596 9.326550002599863
Mg 9.974324332309955 9.057546899722809 6.730137332454328
Mg 12.057280402126892 12.317554640558068 13.518813867004727
Mg 6.239730784118808 8.669667856800794 11.383747577559253
Mg 9.34918316156563 11.040622205024114 13.839457417511243
Mg 14.14952493843528 12.649074378649324 11.220085845467917
Mg 6.523842598062429 10.041769527486466 13.935433809028954
Mg 9.30425828885748 13.795566641010723 12.802726138125736
Mg 11.882366305455614 14.629594779525938 11.523131828602844
