23
Energy = -18.47286502 eV
Mg 9.116736833182708 14.732940555960694 6.331818428230273
Mg 9.00196682247666 11.761884578117321 6.394694874084882
Mg 9.083965484262405 8.804712440433871 7.178282359871688
Mg 11.731184184503045 13.408537806200359 6.590233245879668
Mg 11.332030900251311 10.637167719241335 8.17632046379602
Mg 13.092364900344286 12.855608716320688 9.335483444574987
Mg 8.074827797748348 10.734473976952891 9.33640881688892
Mg 11.215535869117154 7.8366259463262535 9.224508299409575
Mg 13.636828869674423 9.88159987996352 10.144620607978144
Mg 8.15404010740774 7.773146128924589 9.748774455781062
Mg 9.841035162916308 13.207313504894868 9.082929429367711
Mg 10.704382211792414 10.367097051298163 11.159839678252752
Mg 13.241288645957889 7.135710050737391 11.344347620050124
Mg 10.021882739755398 7.235177884004176 11.941463931434876
Mg 7.721168985529946 9.559677895854747 12.175732163260763
Mg 13.667620300256775 12.181612409477623 12.11820216644795
Mg 11.273936943287337 13.897855544359729 11.602259964192402
Mg 13.02508067864715 9.56934744023651 13.252305221181418
Mg 8.531232660580937 12.553976626149389 11.829169006657066
Mg 8.009944125294156 11.466768417629888 14.515099130169268
Mg 12.059719431736502 6.9031275262063 14.06228425787681
Mg 11.028466640934978 11.94163582653856 13.815890274371352
Mg 10.042487776640215 9.161730146469678 14.247060232539173
