22
Energy = -17.82568972 eV
Mg 9.80399182650559 11.16296766214402 8.078377945963696
Mg 12.434693161023894 9.401291731405758 8.006068583730158
Mg 12.673282105019585 12.294522245590324 8.311926767361756
Mg 7.377935958267355 12.858351943777816 9.07788221862828
Mg 10.15762720340799 14.012933455077278 8.873567600822348
Mg 14.203198174856738 10.413271341436218 10.281724723226345
Mg 9.840796802431193 8.384021319155364 9.117497514799323
Mg 13.081529543010435 15.250552754442532 8.446345820027597
Mg 12.606186118606542 7.779322133234195 10.426664317548859
Mg 11.21185119618717 11.303148061769978 10.871762213967605
Mg 14.814723225997222 13.415212105983844 10.198386164408763
Mg 12.014136904115485 14.36211959225324 11.16581304818351
Mg 8.197094171502512 10.528317600688311 10.725860024299594
Mg 8.883212271939662 13.40846025161775 11.63232525180658
Mg 10.082528762884044 8.524622285979811 12.056016687411326
Mg 13.634708449750153 12.378254794693229 12.806300922430312
Mg 12.742487564524307 9.514075631237928 12.927695187260312
Mg 9.447916378655504 11.046502887113807 13.54606217405557
Mg 11.002825590009468 13.555256916137632 13.816153995932165
Mg 10.262403215880633 8.365632338952011 15.138230226483326
Mg 12.082064073087265 11.258157785356456 15.30724111305905
Mg 11.844575495986934 9.182773355602823 17.587865692243685
