25
Energy = -20.35246658 eV
Mg 8.447213526295451 7.884450664299705 7.584981070863015
Mg 10.295920933842078 10.213690920679749 6.8790254237299315
Mg 9.581462043879357 13.051464181198988 7.578251019488475
Mg 12.734460101238728 12.313391266076072 8.202444529089304
Mg 12.571283184918277 9.147690189189014 8.485299036408298
Mg 10.988827660008983 14.297500970263103 10.012776554019952
Mg 14.667400663064347 10.659415934048468 9.896957991983339
Mg 7.8103822930957785 10.65660825130021 8.633964203476006
Mg 13.832708802011368 13.399965806963255 10.835224338210676
Mg 9.982688477743103 8.302531978697091 10.097186078371278
Mg 8.007627148846192 13.312511447926347 10.152913389149234
Mg 10.696157763826255 11.208854930191471 10.001135837446949
Mg 12.661017262590534 8.955326970791557 11.491629438977766
Mg 8.326195643398663 10.67269289924302 11.766082530672806
Mg 10.011499757740522 8.375026516350616 13.065370543299531
Mg 11.874271629065634 11.759695959714755 12.547862261562386
Mg 9.456458098055204 13.507736037613792 12.690495570852987
Mg 12.071547115338081 15.162264015029084 12.625719144113893
Mg 14.67267275478885 10.963026381818432 12.911537884236196
Mg 9.609469534144392 10.996920689430839 14.46733013388337
Mg 14.362226467650872 13.78212847601342 13.989289089939387
Mg 12.434897609379476 9.308754536881006 14.520959552053858
Mg 11.54019652100181 13.39705186561622 15.11488873627903
Mg 13.73953756986656 11.481819519238892 15.950022595521355
Mg 15.904004290426624 13.469606443642684 16.778779898588763
