23
Energy = -18.93249899 eV
Mg 11.724696469728011 8.27044298248461 11.27110432670968
Mg 6.5387449186876205 10.543988073502936 9.104392728113876
Mg 13.487519110372375 10.674263236982451 12.068673019119078
Mg 9.295488588438888 12.777529588318385 12.817980508656397
Mg 12.469907526449578 8.775014283114462 14.21148159827413
Mg 13.659047196529544 10.8554830874348 16.71214731829319
Mg 15.429999225361252 9.916102584720806 14.554824680765696
Mg 10.854113448590855 11.201287948027359 10.533313402822593
Mg 10.817938244668193 13.395183334284447 8.417811934415756
Mg 13.529650154529001 12.424326396268613 9.533397879709891
Mg 12.74802601263916 15.316775085055978 9.849354014745684
Mg 12.29149974339643 13.500586370879285 12.244950958139006
Mg 9.275911891018236 10.854461029216417 7.804230599068388
Mg 8.166245021125233 12.901558748354303 9.92228604528991
Mg 13.710862752615084 9.404727817653498 9.279526833208362
Mg 11.088190658252527 8.460926081866074 8.271713076790254
Mg 12.241630140875662 10.984579027160638 7.190161026446908
Mg 14.507451286383676 12.795631844850856 14.54680782680977
Mg 9.728304809961317 9.634152094107074 13.127056407812015
Mg 8.868217422288678 8.907806558982415 10.250260612328388
Mg 7.176966899958957 10.826332834363715 11.976656800441123
Mg 11.511961275584921 11.636637007571036 14.472873146706366
Mg 9.990695609025543 15.055272391280116 10.952063661813975
