27
Energy = -21.92722863 eV
Mg 16.33447727700468 13.176980693607922 8.550423843726552
Mg 11.81458833065048 16.49151476614371 14.37147117585707
Mg 18.225218023657504 13.21848406496694 10.979037180316503
Mg 10.844341371086948 13.62679534047472 13.689431931444108
Mg 15.414760006970814 14.648962764907237 18.700971796859488
Mg 11.674001111506946 17.116053169507214 17.46528338201321
Mg 10.245541630965615 14.665267291692258 16.38873263660096
Mg 16.127578515769912 12.93659553639512 16.015368521609357
Mg 16.835950302889152 10.69753025226799 10.297150246494954
Mg 14.112310286451168 11.179596090821363 9.046980850657462
Mg 12.220871792244711 12.31657946895896 11.238357544236619
Mg 14.365448534127895 10.323261938001918 11.962411109604764
Mg 12.532424865390947 15.262261566854164 11.738427496156906
Mg 16.010266878091507 17.665790057379187 18.440726405326526
Mg 16.83003961033755 15.915608824525854 16.192135368847907
Mg 13.51655282015139 16.738891331432402 19.85197273941453
Mg 14.85697826605431 15.711997807831493 13.610758544640484
Mg 13.53545247968804 19.38883055196366 18.383862354650155
Mg 14.282637331823375 17.79327479775034 15.905744681110614
Mg 17.64910849211302 14.396887976962544 13.774843481609043
Mg 13.471595437387704 14.086487178630742 8.989649205270602
Mg 12.234479400220852 14.289023093491444 18.79671765019514
Mg 16.798624447085686 11.561676497950153 13.317247841857817
Mg 15.236887077244269 13.57533232134559 11.432032898100463
Mg 12.05657218602613 12.268835715580853 16.330925981230756
Mg 13.830178686941585 12.653416765564023 13.978972415705844
Mg 13.656645810309113 14.862884651322007 16.23302505389637
