20
Energy = -16.18016036 eV
Mg 11.566454595171722 11.884149140121792 7.865551988552888
Mg 11.252769028827338 8.843663725281832 7.856316421823131
Mg 8.71767461875106 10.638915442476403 8.254762832293453
Mg 9.244897556100762 13.426847610377665 9.108792350490708
Mg 13.68332537996674 10.215670785322992 9.17058214242658
Mg 12.005305500973673 14.708894602580473 8.69355728550723
Mg 6.531567623535991 8.842746416544625 9.109330424061143
Mg 13.109981329214747 12.740376511490718 10.712038572383541
Mg 9.283020853193964 7.9115757366046084 9.915247687455379
Mg 12.207623397746623 7.767001114528171 10.51107868420748
Mg 15.123953566045866 8.355142096640472 11.015156018984031
Mg 10.648858129275812 10.856449469048796 10.675047060922047
Mg 10.819133832523644 14.702507929415665 11.41317324119752
Mg 7.731739592026938 9.92161060749014 11.666469115312028
Mg 13.122515110954296 10.142927672061742 12.417256868485206
Mg 8.544385097185355 12.807275211676062 12.02523153180238
Mg 10.337879487346314 8.609722513943167 12.783625043475418
Mg 11.38706866628003 12.54375551553927 13.354347528832793
Mg 11.703213856876966 10.121577985023762 15.079800231041649
Mg 8.902492203101415 10.883049338930897 14.296494395843887
