21
Energy = -16.62826981 eV
Mg 15.796649518950826 9.381443382349648 13.8168944845765
Mg 14.968557198661218 12.250654338196941 13.040863138279942
Mg 14.494688941041158 12.722291635491032 10.165079831433761
Mg 14.051707832731958 9.783847712054055 11.403076118266519
Mg 15.247504615954306 11.545111762590148 15.958537561438353
Mg 14.90989370936333 15.143071460963373 12.12871482458135
Mg 12.695709285187867 13.491624076901054 7.97370901311337
Mg 12.915680256870827 9.893441357167113 14.26894981170323
Mg 14.92568127678836 14.516756914950466 15.125923344684091
Mg 12.267707640883723 10.728821428057769 9.275784245357208
Mg 12.454899132857808 15.185081817584276 10.565734699648525
Mg 12.047759576415979 12.449890373452417 12.143059573493973
Mg 12.30209027791049 15.435269120681268 13.725349164385674
Mg 12.433555606005548 12.74730048929655 15.16534267553018
Mg 10.24397641341682 13.187941224437878 9.68542498849173
Mg 11.024046518410433 9.481567253878815 11.982355623829463
Mg 9.308817928254756 10.333144106544712 9.708487627468923
Mg 10.071823146467226 10.757367169388656 14.653181913301015
Mg 9.890954290718687 14.914981707383594 12.113309760013076
Mg 8.87048328245093 12.026792525312167 12.302287303265574
Mg 9.62815369181558 13.763285650998311 14.782629039222698
