27
Energy = -23.34369801 eV
Mg 18.45313321309538 12.769848966447682 17.16947454531521
Mg 19.44315392272091 12.951882438649049 14.470522489494604
Mg 17.186680236990828 15.395258750372731 13.70398477137968
Mg 16.152009465284227 15.189047180603882 16.546745550168254
Mg 17.619808898038794 12.85311762154793 12.044697872865003
Mg 16.20602197797409 12.676136277034294 14.779076360994615
Mg 14.705295338923314 16.897550759218806 14.528165515446464
Mg 14.440086636098629 14.236635205258029 12.627362075853302
Mg 15.48968942860601 12.46516152811471 17.77230203047812
Mg 12.289589729560197 16.703790604891825 16.516722158783246
Mg 13.765896367059032 14.868034114354261 18.462313370928264
Mg 13.396116657203208 14.058014852125249 15.407994317469182
Mg 15.70296608834711 12.573662538944841 9.82176927344862
Mg 12.002813822979682 16.60969756983883 13.47509525642638
Mg 14.905599077173651 11.150213983916341 12.538241318232595
Mg 10.794193167026986 14.40207750807764 17.87831679825392
Mg 16.69562860458625 15.386035118109962 10.667297414744349
Mg 9.915849827647339 15.19511056135201 15.220168821453473
Mg 12.59723778773884 12.01066376592481 18.12140854355811
Mg 13.826172329175051 10.959483746941274 15.404826853172093
Mg 14.25006007795818 17.0483970882528 11.434187630961759
Mg 11.393725903213232 13.657834330967459 13.033302516666218
Mg 11.974839323374397 10.72941378892819 13.047077792167595
Mg 10.899499261710545 12.21294233997564 15.632562715401145
Mg 12.787461291396177 12.571112584566581 10.590624352993911
Mg 11.66903860831231 15.532313468762597 10.634278985208262
Mg 14.09395006153389 15.018790807455206 9.116725775250634
