21
Energy = -16.42936313 eV
Mg 11.352116745141165 10.266430933231174 12.030731111508807
Mg 10.33566255227332 13.028780083029693 15.863737297171134
Mg 9.798580377370175 10.178015768005334 14.696869115983887
Mg 15.747061151812789 13.032983010906989 15.909357302512857
Mg 14.439381994334326 10.932107019555334 11.910286140298432
Mg 15.712553830445245 16.182648521196565 15.579024771887466
Mg 13.025311248581575 11.401212176231274 16.812088295139894
Mg 15.719561925417844 17.507665331882063 12.792158497515626
Mg 12.946216114313515 14.631059637796724 16.159015209337106
Mg 12.600898623333313 12.105695878360775 14.056988668068241
Mg 14.416107158441408 14.390484988541704 13.535961542435132
Mg 13.11269974214554 17.1993742180934 14.34716485264715
Mg 15.474479930823177 13.86561290963306 10.906718314980838
Mg 9.655372140889124 12.647226134837899 12.911071712895007
Mg 12.287225831374885 13.268882687828473 11.297893255629706
Mg 11.132806329007611 15.122368068774453 13.604623951030963
Mg 15.247563490164941 10.315710146993931 14.840448999817706
Mg 13.2083228845856 16.213985369569965 11.453464139267469
Mg 17.465314751938717 15.182313064532533 13.25989656615319
Mg 16.834763250346473 12.145855166874398 13.158925654469368
Mg 12.469700324561096 8.96640784009051 14.587601336160034
