28
Energy = -23.74558012 eV
Mg 14.281695667448167 10.387880775621836 12.81207114271975
Mg 16.310186019476173 15.808167206641214 11.271785548083692
Mg 14.528159724679437 18.110394204883434 15.38368110926285
Mg 17.018858800930104 11.089201599015656 14.036669810478147
Mg 13.218069766794613 14.890891721640902 19.033398745763936
Mg 12.196959709085773 12.675334237695942 12.695904814078283
Mg 16.441305343401464 16.045898202153335 14.395486212853626
Mg 16.719059894613412 11.735728021001242 11.106359830559116
Mg 12.89180211879116 17.61840866513447 17.737018790826394
Mg 11.595619430526993 17.16952363105617 15.036056626846513
Mg 11.72246252117699 10.759208585257989 14.923681661662906
Mg 13.820451698935896 16.665496932176794 12.882492934574154
Mg 12.08973521218408 12.491216302178286 17.390581904405725
Mg 18.148172272530424 13.803494079630847 13.049943674562188
Mg 10.798903592067505 15.364629622030629 17.27515232951612
Mg 15.690810049802009 13.846391401056021 9.105814406158043
Mg 16.91807016503033 13.497837934031464 15.85303227507604
Mg 15.049405346042354 13.592461616046931 12.987774443349736
Mg 15.545394688604572 15.92461172529988 17.36762437237051
Mg 13.513571149370353 14.649354678946885 15.35969737601051
Mg 15.089648608947618 12.900384516656569 18.142386848890123
Mg 18.475434402337847 14.066783124318265 10.065771550583365
Mg 13.235293879218817 14.817969505659704 10.526081703247419
Mg 14.473704661640765 11.682601475436707 15.511452885010748
Mg 10.452088208884897 13.542886429661763 14.985316286640302
Mg 10.989849263130866 16.94746198169045 20.06784941018271
Mg 11.093443791247893 15.436182796692776 12.641697511542615
Mg 13.778517124472755 11.872366018337248 10.220298126054544
