23
Energy = -19.03548013 eV
Mg 11.443217389343655 8.530921810393249 8.926290970177888
Mg 11.241399700525127 9.88148762755749 11.638508493482117
Mg 12.49288356711531 12.976379439866056 13.766978524087799
Mg 13.65010894904959 10.585538319441518 9.752114945986017
Mg 13.111152258806136 13.545858761304563 8.768751285475378
Mg 11.79032448478839 11.101055217622505 7.437914779187832
Mg 9.255206407234368 8.819969021809879 13.505503930238124
Mg 10.214738256043974 14.887401101706416 12.864263411577927
Mg 10.21498743606647 15.846059303664726 9.977753217196389
Mg 8.80630588134902 8.144516087032608 10.530169293853495
Mg 10.070036937478537 13.510775329268785 8.18480892060244
Mg 9.352325640079664 10.810174227447627 9.274367741254684
Mg 13.65828448081956 7.881591475732052 11.096357458501645
Mg 11.016409201718098 6.3913362798026 11.36032884091871
Mg 7.485634150458957 10.616227817590337 11.700927513905391
Mg 14.488145724857684 12.922366104063773 11.45344605684387
Mg 12.78120109286765 15.435983158879544 11.405861436972277
Mg 14.026293366130474 10.401141478988443 12.898383458349972
Mg 8.379595206212441 13.320523343398303 10.812444757410498
Mg 9.498280500631749 12.009029803166062 13.431059074128168
Mg 12.298825383963832 7.626172319779514 13.727495584265997
Mg 11.335465564402819 12.618136917257809 10.920742674338634
Mg 11.613745256619646 10.361921890788329 14.790094467807426
