24
Energy = -19.35526769 eV
Mg 12.680025575863414 11.470339791772721 8.089833753380844
Mg 12.64774620905898 8.569832451077797 7.639667243358967
Mg 10.257429390915249 13.008662229775187 8.556749301195433
Mg 9.938389137960167 10.12177327369635 7.265484123221963
Mg 10.126904982553114 7.148528918939878 8.194561151146248
Mg 7.735349644753008 8.588408943375502 8.942156047895288
Mg 7.663964734752785 14.572650739723242 9.187928993923773
Mg 13.747738500407602 9.747300830330547 10.266396676131793
Mg 10.234505493111588 15.3450864222923 10.645020818298637
Mg 12.246545856159823 7.011275349763841 10.28282851121375
Mg 12.219029817617638 12.618592045412985 11.007708976308413
Mg 7.677472608817527 11.545691490677145 8.90736229086185
Mg 10.617781345659806 10.016548463449118 10.297963664820864
Mg 9.249904887253237 7.308151004110573 11.20651254455296
Mg 9.014499912774443 12.64512270514461 11.416104306904485
Mg 14.504631237890857 7.5617918481153765 12.345537050719868
Mg 7.569699512461092 9.991706000825891 11.647623845617053
Mg 12.71717813335674 15.621769531525235 12.304028945341374
Mg 11.656337109733474 8.330949452410326 12.881074779146388
Mg 10.395835132493108 14.375389561319231 13.612296087960207
Mg 13.700916853032316 10.530863433563605 13.111092298803024
Mg 10.680955057266027 11.157872555757404 13.426547846735264
Mg 8.873219386958862 8.723341018911052 13.975666304193815
Mg 13.153970061646207 13.298382520527303 14.099885020765422
