20
Energy = -15.89460312 eV
Mg 9.939632414973083 10.712982134168909 9.126035379913773
Mg 12.212116848250686 13.485217337898034 9.239300614740195
Mg 12.947930808924124 10.596396339312628 8.615561113591019
Mg 9.163133854464117 13.645481204855976 9.650482726320067
Mg 14.318118726253898 11.954826248208434 10.954081286571308
Mg 14.770343919956016 9.030052118822596 10.431513983082132
Mg 7.5201107337635635 11.596950460365418 10.946633374138633
Mg 8.877417096100434 9.052119564395706 11.431016340181147
Mg 10.81857092478981 15.586356537053042 11.099093917384819
Mg 17.79255642408792 8.382709278160448 10.907825924335137
Mg 11.7970434699773 8.857193084700604 10.820796862052529
Mg 13.555603278827315 14.747487340893834 11.666062653163458
Mg 8.266020272007374 10.845266137899937 13.782429913288698
Mg 9.024401284724336 13.634576354445676 12.770575185330962
Mg 11.275314246476407 11.822418414759223 11.748580996944243
Mg 13.590768833677465 9.878287125585839 13.116946114283149
Mg 13.701306064676066 12.764559013643826 13.891118034583688
Mg 10.749579030450983 9.17861732476369 13.738521017325768
Mg 11.583973250128295 14.869247491092333 13.942977587854205
Mg 10.820515420735678 12.08371339221889 14.844903878160117
