22
Energy = -17.59614887 eV
Mg 12.08587802248224 8.46789356370496 11.005640670769782
Mg 12.996139781583567 10.06686841534064 8.629991877421897
Mg 12.76436448043423 13.107891036597447 9.558074947962657
Mg 13.622353804034375 14.339364435855062 16.17469894126995
Mg 11.805886062417967 16.080271582778238 14.459459564860062
Mg 15.215700010421564 13.786099044378197 11.288933007286365
Mg 15.503868199048048 11.52590915532565 9.143653995660937
Mg 12.417982228203881 11.581159954077723 15.581731323120204
Mg 8.610223237127817 12.014320069902658 12.386629564878428
Mg 10.84355014437283 10.1910669548218 13.264984931599496
Mg 14.984150969506253 12.601833639408035 14.112925193074442
Mg 10.58248118703064 11.087394408161476 10.33776607547057
Mg 12.761721086897733 15.645311108416841 11.372817130158852
Mg 11.93739829295432 13.256939795559324 13.171436123252583
Mg 13.490051747488584 11.022930945445164 11.947480305106504
Mg 9.375657719431121 11.863385190551414 15.302527794989365
Mg 10.677351741819576 14.224004621730685 16.567388183897357
Mg 14.706467429311502 15.565960823635473 13.635000426080683
Mg 16.551988736102576 11.069177160828932 11.922347554054426
Mg 10.08794545300982 14.086970722769061 10.823663332164573
Mg 9.2325988240925 14.579478447394358 13.930152882799144
Mg 15.113201540171207 8.797064722526715 10.34777910062461
