26
Energy = -21.51414109 eV
Mg 12.464957562681768 18.055308727372847 16.13397452610626
Mg 15.86194705084388 11.144927815855079 11.352934195855873
Mg 14.286583053742667 16.83236624559151 10.597365557875454
Mg 17.028561357147954 15.882938251989348 11.16801854274637
Mg 10.881371620938902 12.884507621548256 14.101745654117995
Mg 12.586111876026091 11.61131298374717 11.095024204975726
Mg 12.228950993325277 14.960605075808953 12.100984072334363
Mg 13.899888520457647 12.76813755911447 13.408805751340072
Mg 14.009674389799377 9.000939890494609 11.953317352369213
Mg 10.714079008983067 13.377110884412113 17.185817170283144
Mg 12.882015354882913 14.813421755671893 15.459189639779417
Mg 15.33860770540135 10.424717989315434 14.335719777273212
Mg 15.263645551382144 18.511893497223834 15.101185138747187
Mg 14.776714111804786 13.851807311542048 10.620865194311953
Mg 14.822233174483653 15.696275986446048 13.400813958329888
Mg 10.488830940000888 16.183318051032117 14.770087640031972
Mg 12.034685629998872 10.126137876177737 13.751229686297508
Mg 17.30696481304547 16.278441967746616 14.650150342079046
Mg 14.818195918263273 16.400238848807742 17.145852998335034
Mg 12.91126550499383 18.030580391698855 13.189329439097737
Mg 15.531143631543967 13.470532908071458 15.890716389663341
Mg 13.437958335830515 13.763696717845358 18.263101184291166
Mg 16.91357855201405 13.398636945554644 13.02835893532997
Mg 13.02354514936209 11.588261745598832 16.175659059283408
Mg 11.52906213622225 16.123113510224876 18.16521484458049
Mg 16.122810719592966 18.551014928435013 12.281402677665287
