22
Energy = -17.53001982 eV
Mg 17.064227674564254 8.294530214192156 17.622024279595237
Mg 15.568666718272715 9.849478095474995 15.458295911410499
Mg 15.634976555358937 12.98606662914429 16.04260038971349
Mg 13.08976306255359 11.548405306213647 15.371009436963632
Mg 13.635239835108148 9.638406442046335 13.017293429840807
Mg 15.522305899097574 12.013222666751664 13.15785052540472
Mg 13.08391347808085 14.660040430064067 15.553600833576862
Mg 14.943345185534621 13.992915231798765 10.794395513227858
Mg 15.408963143874857 14.986964792656556 13.69116333847105
Mg 15.232236616666048 16.905370376973178 11.276469716736814
Mg 12.641031288800843 13.182357167730874 12.715639039337024
Mg 12.322336164716445 12.983992696361474 9.520880235973326
Mg 11.820455241709587 10.012330838230808 10.568461113711367
Mg 10.521327340152238 12.98294813635681 15.821134263493773
Mg 12.802749975010348 16.335163071732048 12.857914431890382
Mg 14.501312210623515 11.060125335404289 10.469285537034555
Mg 10.406001808788178 15.606355408342349 14.418349890422718
Mg 12.824255112897246 15.991210163920606 9.702985223829247
Mg 10.816575407388287 10.896235179761353 13.48020424605937
Mg 10.530309083372858 15.000230631829895 11.348911788636812
Mg 9.802476243310245 12.106153789810548 10.892847908002805
Mg 8.813740182293486 13.333223879061906 13.406413488304128
