27
Energy = -22.90484409 eV
Mg 14.564852625563688 13.618015997708762 14.135748180763631
Mg 15.876971351518478 11.108694086440053 13.125500972222529
Mg 10.14177034608143 15.264530898133403 12.157938766830037
Mg 13.105343227633195 13.127673560671353 8.866569601542157
Mg 11.363285156592534 15.509509404943843 9.43259061148219
Mg 17.33556054303117 12.90650809614095 15.8187278356727
Mg 11.957609035873494 12.641109289700873 16.246842103209787
Mg 16.831489325659465 15.824684332461427 15.030330200933298
Mg 15.641080186425677 16.026092678887807 12.301728203717543
Mg 15.332973656575804 15.100724832092558 19.712562228279083
Mg 13.500337886430977 12.733031978575571 19.00654012687056
Mg 14.296257084587477 14.731934075944414 16.820510841816446
Mg 12.992566835145297 14.188957543179109 11.824865945909444
Mg 15.625035283055684 17.304042995141582 17.56659900560448
Mg 13.173634147587235 11.208917862859177 11.320141822646665
Mg 14.219701867450276 17.24521471398605 14.694025450833548
Mg 17.672576691556618 15.128931513878923 17.880125956422365
Mg 10.599165640172288 12.744052226572856 10.407799546968853
Mg 10.975426004595178 12.555716959777573 13.463732589981491
Mg 15.628877902408886 13.125469557432833 10.7400234586794
Mg 11.963892127458834 15.257632664150352 14.67328464553485
Mg 12.712426653151235 17.118823039504427 12.087182688298318
Mg 17.5700124709873 13.744062309144473 12.842031073654926
Mg 14.336512944245783 15.791983796994804 9.574895372247058
Mg 13.064440100690124 10.595373811613683 14.24671758960708
Mg 16.471386470144765 12.535704576687463 18.780587595693245
Mg 14.799713493937565 11.497055197051647 16.485166546971115
