23
Energy = -18.73726009 eV
Mg 12.600482211969124 9.74090618394626 6.893892240793436
Mg 10.241148007380028 8.064271112427031 7.66065739475058
Mg 13.76109605379754 14.09959364984124 8.635706555082105
Mg 11.420362106243472 12.106596275776376 8.653511256923819
Mg 9.210494829216536 5.218402640343544 8.758984771646796
Mg 8.758072900096321 13.31922517014014 9.45357019626927
Mg 14.317478204192144 11.264644898539043 9.399608721008528
Mg 9.195720628956167 10.277659393563845 9.794140652545098
Mg 11.368026775519247 14.689653350397199 10.349353278336919
Mg 12.139262017023125 9.331384254168606 10.051377585500862
Mg 9.850160677666373 7.422883830232164 10.77040479944779
Mg 13.993889724285792 13.442089355600242 11.541010812434928
Mg 11.206901665716382 11.85261062441331 11.687944301485862
Mg 7.5714769022901685 11.901209561089834 11.79719519892935
Mg 13.960996568604937 10.457612899600926 12.348188734108316
Mg 8.895608797448064 14.552797767694111 12.145309289117439
Mg 12.004619826771767 8.09093606656438 12.841295094485506
Mg 9.386742889199716 9.645353958774269 12.825040823774994
Mg 11.74721194359054 14.37682726329349 13.39628795884906
Mg 9.398479662089334 12.348836050046266 14.232454263160912
Mg 14.017660650081185 12.656162213374568 14.451252205472855
Mg 11.785513087246311 10.482498668263048 14.602674931630693
Mg 11.620108342521556 13.109359283815781 16.1616534061504
