20
Energy = -15.86892043 eV
Mg 9.893285218157809 12.137638543444465 7.453882097825096
Mg 11.03796636119487 9.375877048215397 7.659604168922605
Mg 13.978358189258467 9.343275002584788 8.457067111706777
Mg 8.015165020502184 10.108081591635347 8.627492253994728
Mg 9.958838324218435 13.473625927195823 10.149768863451161
Mg 12.532224187932119 12.00453634303774 8.861153449593457
Mg 12.09267174133271 7.620935084955144 10.038273458019844
Mg 7.292999573679422 13.043965982931704 8.790487540757352
Mg 9.231590451198842 7.395308537659157 9.083400166283942
Mg 10.490980348569867 10.350064536554463 10.649684291540073
Mg 9.692754888711073 6.95098023680323 11.99783775788162
Mg 7.687495198263189 11.629274602398255 11.385336034410187
Mg 12.519660725568297 13.168764932418846 11.686971776251246
Mg 13.634677744529213 10.362509683578045 11.27482765463403
Mg 7.400550309217992 8.671532369650683 11.228074731166547
Mg 14.647942310075296 15.274072301936469 12.468341461295434
Mg 9.784382484233822 12.859418392923985 13.109771299971397
Mg 11.992364360375404 8.453620683879816 12.939526705992561
Mg 12.10575814610134 11.210239146119475 13.905251034507808
Mg 9.2412550682105 9.79719970340787 13.464168793124822
