24
Energy = -19.58819876 eV
Mg 15.908893142251006 12.539369257393675 9.583393066224923
Mg 13.030304022226886 13.226971854505988 12.78523312353449
Mg 15.997071110163704 12.26124152008386 12.654841200269686
Mg 17.943623344255993 14.273701080390525 11.15687029678912
Mg 14.552405385350962 17.637720019464147 13.415702012090913
Mg 13.895260981217797 10.753215232168719 10.811710741742386
Mg 17.480174441499525 16.796574394937036 12.771233752974684
Mg 17.118166301470893 14.715467357948185 17.011299962790474
Mg 10.326239980148452 14.644909655175143 13.226861969630216
Mg 17.858503180003567 14.150243201728458 14.163632697945687
Mg 14.89679433416535 14.818684605010661 14.587571774599148
Mg 11.593429991931123 17.235499140519604 14.248667481095504
Mg 15.95025428789451 12.155816204102173 15.701034357986481
Mg 15.698485433907676 16.849415235559206 18.525089719337664
Mg 10.626064184860793 11.834908163953646 14.432435210926968
Mg 13.821400090452775 10.470639395044653 13.87693983789942
Mg 12.423831010315077 16.21450316437909 11.64087314181155
Mg 13.677871782367292 17.008770066539896 16.391126261316597
Mg 16.70507727201774 17.365696043704197 15.601651738224271
Mg 13.094059185179173 11.797760421568514 16.41453148676323
Mg 14.227146212449968 14.264849190648885 17.776069463002255
Mg 11.230517476381015 10.1921285756063 12.137390755699263
Mg 15.157776682436548 15.136207742231235 11.42113518175208
Mg 12.012820769994304 14.493687577942465 15.677973865672485
