22
Energy = -17.36050987 eV
Mg 12.964224001197852 11.374363330696594 8.258758549489755
Mg 15.501308497776526 16.393258198582842 13.150957363091198
Mg 11.224120069738175 14.197331747164897 14.788642668112136
Mg 8.668851969870913 12.617671490662657 14.738239897383997
Mg 11.825726439334446 10.96666598018034 10.993091766944291
Mg 13.958653234952294 15.089886869876864 15.304809051337644
Mg 13.861365573502201 9.867534768009994 13.211962276693045
Mg 10.805957101921495 11.497011136282033 16.910037492947456
Mg 13.663511382471027 12.058955721706376 15.565159965999428
Mg 12.311270711975563 13.950358382213293 17.787604129124567
Mg 14.62116048459208 9.821602998894754 10.343903575613123
Mg 13.697193842104193 13.118944317096807 12.61575815230596
Mg 16.960856503339766 14.298429938002714 11.584681049082253
Mg 15.188984177193541 12.754765825077678 9.734515877907155
Mg 16.353851639297172 11.362342648101654 12.244274087202216
Mg 16.347388412395997 13.593288201549667 14.400103622136102
Mg 10.226417876885805 13.379036557330947 12.123294681423614
Mg 12.437819011512596 15.944365945240559 12.569330167262478
Mg 14.541046839652898 15.7038002058871 10.446846183568189
Mg 12.223125158647482 13.804620273412944 9.89726529713461
Mg 9.263274960030053 13.968222047067442 17.35181483341136
Mg 11.232225243238991 11.134786166968476 13.916532270631963
