28
Energy = -24.02471562 eV
Mg 9.734612361551997 8.93497495380155 6.612935813278201
Mg 12.440577245534223 9.987665586802658 6.852349597893134
Mg 10.000962768011279 11.986170925280119 7.2036577674872175
Mg 12.951702441677963 12.462971156118671 8.43578443265966
Mg 11.96218871655896 7.3817870455941526 8.436880721769057
Mg 7.795182185512369 10.211639388066923 8.656910120772212
Mg 8.807886893970513 7.368158362595051 8.903649830887172
Mg 7.915354562168913 13.150325970237141 9.305482650054143
Mg 14.030473787687807 9.753867538503314 9.470489934730072
Mg 10.938144835703236 10.069439030369574 9.588488350544443
Mg 13.06403241882558 11.996946469188146 11.462456130641964
Mg 10.670963634583883 14.268215970582743 9.182968550121267
Mg 13.199910576943115 14.885354523576572 10.50033718462406
Mg 10.602954430491174 6.840385415106597 11.159549399069922
Mg 13.42563075453817 7.574151116256393 11.42133418701219
Mg 6.847000474725434 11.48581250611914 11.444241689758242
Mg 10.02852836394303 12.18751642634655 11.452123799104424
Mg 14.951808487569819 9.907429670642749 12.456297788171973
Mg 8.505983257877887 9.051711346314088 11.441368275838045
Mg 10.628765598937088 15.389469292668203 12.102156345900202
Mg 13.190757674001965 14.445344715938907 13.411464322608856
Mg 11.27325796633094 9.637850546823787 12.679225751403282
Mg 8.025006531238402 14.025968435026693 12.689546304201162
Mg 13.49970947158894 11.690272428570974 14.552061350511151
Mg 13.369577349421009 8.687026608071974 14.629915845463897
Mg 8.583895676940461 10.986648177576512 13.903286768575871
Mg 10.584834145103954 13.240715527634688 14.429388416792143
Mg 10.967375850417916 10.389259328041858 15.612727131982227
