25
Energy = -21.34547099 eV
Mg 14.823254739607982 10.6358035379247 10.56408805379265
Mg 14.564406470482254 10.520742850212274 13.616513649980064
Mg 16.517060539513796 12.497309162655545 15.270987242686296
Mg 16.66309457341227 12.293929374652466 12.303962088969001
Mg 14.682049907870915 13.792193896596345 10.663007329526035
Mg 12.451036866895404 8.538221378274601 12.029496787403748
Mg 13.57796690403146 12.005422121896125 16.185566627685365
Mg 12.184880272295974 9.580793076275961 15.06597041315993
Mg 13.244077656283125 12.23404160474524 8.533042584270374
Mg 15.005441232760324 14.68761233428526 16.46124953388555
Mg 13.219960454261468 16.1173095980623 11.970114485844134
Mg 13.49160302224483 13.464036417968705 13.503670119683992
Mg 12.135072493460461 11.53046712625026 11.702910628292905
Mg 11.996655186864661 14.889506858309057 15.756501065741546
Mg 9.820684285020201 9.697253650578826 13.354662890413913
Mg 16.06032174269607 15.075739085563425 13.455554829458869
Mg 10.79246579408064 12.25254639152732 14.61936604589884
Mg 12.44585802881975 9.399305301564125 9.087998698636996
Mg 10.453796015098643 14.713100874255616 12.962508362044602
Mg 14.124898532285883 16.974373519078824 14.766076283464372
Mg 9.769456348198755 9.358394938319643 10.461170477851999
Mg 11.615244780476255 14.257798887545423 10.204107050583708
Mg 11.315498897452173 17.346188043833152 14.016281017047671
Mg 9.236645917607643 12.217308764994545 11.611594592325867
Mg 10.335125271638326 11.709558911082718 8.820547635424745
