28
Energy = -24.42731539 eV
Mg 14.279566514219601 15.308676147498772 9.634062635888299
Mg 12.43104081820933 16.611234328783983 11.720729696978186
Mg 11.229221898171419 15.6181291513409 9.154382074278077
Mg 12.142614341750134 12.925063602649422 8.028217365434974
Mg 14.318757447939948 14.647183779897714 13.20795045791223
Mg 15.248367512722098 12.649341037430458 8.291716258267254
Mg 16.007749342501036 13.224486982249266 11.123442177095594
Mg 9.425783137269686 15.854206988359538 11.559032249293393
Mg 11.325406722505981 14.163139679981564 13.262512385533542
Mg 8.739200293021534 15.578214671723165 14.521235173568797
Mg 9.96663507693003 13.094952094549747 10.315667145760035
Mg 13.66104694669717 10.205968579583752 7.755414095169631
Mg 11.512961643054357 10.460183887542119 9.909126811566578
Mg 12.953908164995674 12.90221979898417 11.013733849099554
Mg 8.526224262279074 12.891235471397033 12.947254989461399
Mg 8.932805176387891 10.422656882093095 11.371405757516301
Mg 14.810785168994359 10.45053694776881 10.558607577449614
Mg 11.691205734038096 11.041435954628426 13.076684468932692
Mg 14.882574059842906 11.621359637252256 13.399916320530185
Mg 12.942840791076039 12.766509997001242 15.449220042271701
Mg 13.106989320960034 7.914194822272676 9.951606223031119
Mg 9.788005820083079 12.841738299096031 15.66046522219022
Mg 10.857601531374243 8.181737097373663 11.973533880196385
Mg 9.166115417110722 9.972154452414472 14.366226885930109
Mg 13.81900493363311 8.576575325082743 12.829450366904645
Mg 13.837398128300729 9.869022026925238 15.54437063762501
Mg 11.542356485366833 8.045543641166388 14.90047935623372
Mg 11.188636240116498 10.454275698145986 16.654151695576637
