24
Energy = -19.85665269 eV
Mg 10.612166822998415 15.480684347421942 13.553369187111983
Mg 13.772993678761745 7.969501084767813 7.534736577593038
Mg 9.788337621538028 12.559705819851304 14.370309869427588
Mg 14.482344149428002 10.94409116873058 12.522200233528144
Mg 10.730559929248226 8.28348029523151 12.141449126718376
Mg 11.328593280201376 14.726701390315402 10.72102013354544
Mg 12.522704578045182 6.689690757381506 10.04008143158261
Mg 9.004629735611598 11.386913937809924 7.210353887512473
Mg 12.907966548366604 9.882158074395475 9.963345421317003
Mg 9.935311750937812 9.265991257882668 9.314730743496792
Mg 13.654541470642904 12.846556639203579 10.472702167887647
Mg 7.912853476478241 11.438584637205949 10.063811992740863
Mg 11.986116686721084 10.32446631872416 14.047515847371299
Mg 11.507063138858163 12.229888561208485 8.532854194389852
Mg 7.868209206907744 8.922077568201551 11.660545419157128
Mg 10.612938017678772 11.459766121077811 11.504141090976905
Mg 7.275489807285152 11.547794506989076 13.08333295132279
Mg 11.586589170090384 9.776963891367322 6.5704169618477835
Mg 8.631392195618822 13.933069973903459 11.883672471866413
Mg 9.083454915309694 13.953937755865683 8.880444607636203
Mg 13.665006225047795 8.115467884839045 12.445644665224327
Mg 12.575907417474589 13.258075844365456 13.230278754500475
Mg 11.013723059936973 6.970332276110749 7.443865698997655
Mg 9.069743440845883 9.562736211182115 14.337812888279148
