23
Energy = -18.46016326 eV
Mg 10.140074447070823 11.701462405972675 6.132977302727728
Mg 7.817873752610544 11.317086341607338 8.010706869474019
Mg 8.84995044584473 14.093976115076362 7.420795726889981
Mg 9.734911198409911 8.977949081305738 7.5067299371862415
Mg 14.317562001798597 12.546678593900868 9.294941580356799
Mg 11.74966297723012 10.82877868882671 8.840960819917067
Mg 11.695871524027899 13.7239892292073 8.107028659820784
Mg 14.082493890716963 9.773718103731492 10.611014375604281
Mg 8.789526408671101 9.613800370758613 10.34797062181504
Mg 12.261397508361215 13.988628179265444 11.14955546590386
Mg 11.320901993489674 8.041875610357542 9.992670424368631
Mg 9.528632038743774 12.651532469026382 10.169781826676344
Mg 14.579853576494578 12.405843590984395 12.158978898700155
Mg 10.021120012823548 8.281007784300584 12.788631522424044
Mg 11.458540136768237 10.903184112212077 11.887907033761401
Mg 13.009625207163765 7.479662313272895 12.288125741824993
Mg 8.566024993782825 11.229029143033335 12.949980726527386
Mg 9.730753146854529 14.132676376865959 12.743814654582563
Mg 13.64575223812346 10.08590715184855 13.906179457708477
Mg 12.224866817744717 12.958483508656752 14.083784896446636
Mg 12.106739530800063 7.732734442741837 15.031807930253407
Mg 10.786033484054773 10.386125089080561 15.005372689046451
Mg 9.387631909831088 12.951670539382743 15.376082079400168
