21
Energy = -16.79459508 eV
Mg 13.625277891072908 13.69347805036146 17.48924209967775
Mg 16.090387239455488 12.229621050427694 16.43980136030338
Mg 13.403106624097116 10.871410042766215 16.29652927148342
Mg 15.32809933762772 10.568520487788083 13.9458625882074
Mg 15.847149439188573 15.158488058543345 16.02074614765214
Mg 12.976970383016338 15.864341032695767 15.459941319890273
Mg 17.08104958390749 13.36276550821079 13.867463869186269
Mg 12.24069005364493 10.724698012609183 13.505761776597637
Mg 11.32494844562378 12.89271667227793 15.71560719749479
Mg 13.960852181959671 13.342857014428525 13.950161761918967
Mg 17.205784675998054 11.18986800594996 11.648993676995472
Mg 14.314694734979854 11.65204533286869 11.187355768735985
Mg 11.443336732989517 12.506770431594987 11.0882033821615
Mg 15.481496387552138 16.022212754163316 13.1002572589824
Mg 9.50269019816107 12.029012787369707 13.35457929109948
Mg 12.702643492250523 17.125883101968846 12.640764848806715
Mg 13.541365623583507 14.69865247651351 11.07665277713352
Mg 11.161507213078881 14.634177865057076 13.338265231583858
Mg 16.416931992118933 14.018331185771187 10.985603239881652
Mg 10.713209950833258 15.784221468173214 10.547948072965164
Mg 8.451207281597725 13.836062278544276 10.964117917970071
