20
Energy = -16.8272603 eV
Mg 9.015042848881828 11.55787092090426 8.036586903552184
Mg 11.336361822327031 9.677980618736957 7.910343418339137
Mg 9.044930173365298 8.934260242181013 9.597433029490036
Mg 11.887024666600134 12.565347644201239 7.850774124501557
Mg 13.327027457594083 13.662123923446803 10.211932641968275
Mg 13.686609805931278 10.69070747614772 9.499622333625569
Mg 11.91875990122482 8.382568064156407 10.563993517154385
Mg 11.545638144852328 14.879485320738588 12.259463209223746
Mg 10.016620619451329 13.753305191949933 9.907007060351866
Mg 8.18590183495084 11.476975735165139 10.957863750847071
Mg 11.20333581357492 11.327912475261122 11.2789247718244
Mg 15.725459527867406 12.06486114354769 11.23427539745242
Mg 14.027743843531844 9.691099667008897 12.352591786014994
Mg 10.82405835134266 13.139066120624248 14.509060745298143
Mg 9.552128589476926 8.691718365991347 12.52189280210389
Mg 12.19260973435738 7.410966367710524 13.398606317571577
Mg 8.652827737734874 13.962587152767702 12.631572062403695
Mg 13.415154390985718 12.57610994674093 13.096541253017014
Mg 8.702025336823214 11.186528537786298 13.906568827842914
Mg 11.634016401903388 10.261802087709784 14.168223050194845
