24
Energy = -19.99352102 eV
Mg 9.41674889304434 9.413879577078783 7.763836855513331
Mg 13.80995811451363 12.463558736270803 8.568805017991128
Mg 12.449645974980134 9.961824109323002 7.437584045259484
Mg 7.7479652365794385 11.958507511144385 8.132698270688588
Mg 10.702742425764837 12.129454026758085 8.566906555043397
Mg 8.230889870403711 7.064093146015479 9.291865661849489
Mg 6.518216233598438 9.45981523077842 9.162443685562312
Mg 8.941405360678578 14.211293813118179 9.826002005596076
Mg 12.173510615434921 14.47917076828041 10.381909310323566
Mg 14.251581533198795 9.614515066367076 9.86509901863228
Mg 12.288540590766196 11.513326556129126 11.043423685808065
Mg 11.599815068362883 7.935740547688398 9.361360044080948
Mg 9.986524742901112 6.885992529725694 11.660574013229878
Mg 15.062096095637527 13.476646085363926 11.039239038051273
Mg 9.817380685574522 10.038508621390532 10.82303653655593
Mg 7.418102586419638 11.829826096193228 11.09136034602604
Mg 12.443052313284523 8.72500178971993 12.224759270311381
Mg 14.64571901640598 11.148876377409929 12.887331296408982
Mg 7.408487468977611 8.538174324101805 11.951394854172005
Mg 10.104745763178984 13.212292538011697 12.349079846856194
Mg 13.132042331599486 13.795510112126136 13.260629238533832
Mg 10.072615987269426 8.524067598791042 14.093009178849696
Mg 11.65704211991873 11.141845230372656 14.075193349990005
Mg 8.646032305527664 11.002940941862404 13.667320208687071
