27
Energy = -23.10752181 eV
Mg 13.992439359887852 10.775757543257193 10.546779604828346
Mg 11.55177027566302 9.63020099992744 12.172986480381542
Mg 10.96040721508904 15.826116470108985 14.337704940467068
Mg 16.099478800152855 12.159422138923535 15.12539337952139
Mg 11.951590894077505 12.91033920320479 13.257489783057885
Mg 10.849477216673105 10.766451305558414 14.973726313881635
Mg 15.365264424620587 17.057559923006117 16.683215708409463
Mg 16.252860442311526 13.051367749816231 10.153504915102506
Mg 9.964780428325119 14.287580432026989 11.561372373722541
Mg 14.581883070986144 14.132933712410619 17.495351502007008
Mg 14.696646382079312 12.956261502682647 12.598593007758959
Mg 17.232524210515745 14.733180349999584 15.995848678171159
Mg 13.450733360385042 11.539561599726293 16.362777243130612
Mg 16.71151626278737 16.850668779660257 13.936669983873987
Mg 11.496511252142556 13.691889203959574 16.388995046285554
Mg 16.751518979569504 10.945099500141414 12.210553817406554
Mg 14.03437789221031 14.771118936885973 14.659478275909384
Mg 8.964990898700314 13.408885833633667 14.543397415916777
Mg 9.082021632536682 11.414971497081016 12.46259290939015
Mg 11.033903296718513 11.758144158973744 10.122919656186253
Mg 12.30952780170715 16.215530689662746 11.79462437285032
Mg 17.572501741745217 13.98871790318274 12.95309204232467
Mg 15.252037175521044 15.735539684246756 11.647710753733778
Mg 13.120267619918017 13.820726476279422 10.208772012111202
Mg 12.52598782896251 16.612735410418725 16.94050435004906
Mg 13.980217300826926 10.264671212180346 13.707758887279942
Mg 13.719806090993448 17.65104819282995 14.079727422203177
