29
Energy = -25.29852894 eV
Mg 9.548497193578124 9.412127974123567 7.25085950420168
Mg 9.047996267101725 12.291454593382872 8.2823982345089
Mg 11.877800090275151 11.262610699816594 7.446699163001828
Mg 13.45242978869687 10.381736648392451 9.900421577120802
Mg 11.596673769392194 13.291618896685947 9.693094472303057
Mg 14.365597033242251 12.98086751855483 8.568662615269211
Mg 12.082251777737078 8.218687318998105 8.285805373238645
Mg 7.405586064123991 9.934178978279714 9.27614824715179
Mg 14.148112073616945 14.345360135855538 11.262068497046624
Mg 9.616700620647634 7.510449619585595 9.793373424102247
Mg 7.0912947813586324 7.93972053491705 11.464582875581003
Mg 15.98882610252298 11.8610753318834 10.87139528403556
Mg 10.318602912810698 10.467460185937396 10.663584150492877
Mg 6.57626118386128 12.788389605938479 9.976206313247255
Mg 9.12741020512694 13.206631939745504 11.59665554038304
Mg 14.787347240503712 9.665334900404105 12.530028212234793
Mg 12.254034002437619 7.928850344037153 11.328948826412532
Mg 7.267396368735989 10.82079638701992 12.219138552995233
Mg 12.347443488878953 11.97409515104126 12.357784832146617
Mg 11.228355548417 15.328397010350653 11.878832361328355
Mg 9.691339928890388 8.112022949649797 12.890341944620445
Mg 13.471217978256034 17.332833163334822 12.101778026831862
Mg 9.79660029093615 11.055654330616383 13.87725041968468
Mg 15.098825413916519 12.524781252683814 13.731756450593474
Mg 10.258938412148494 14.001053525833427 14.394723685530929
Mg 14.70319224274086 10.146127630585621 15.521788194339251
Mg 13.161253642954078 14.801686264963227 14.16939549660299
Mg 12.19538045915193 9.230930411152999 14.105887100255357
Mg 12.419196502303448 12.10962808059312 15.484952009102784
