26
Energy = -22.14711402 eV
Mg 12.651601709464341 12.840624057938767 9.045525937456524
Mg 8.693177911334844 13.515806249427264 15.02982800648439
Mg 13.515941187491563 11.907329503593237 11.892753516590538
Mg 14.6514389832053 9.004546353876727 8.163811245545217
Mg 15.414904928353327 11.549071125515928 9.478398178623014
Mg 9.36205229513325 8.736462507611371 9.53206580411253
Mg 15.26347475245286 9.220298191470365 11.296652257840194
Mg 11.602928369935125 9.608045751141526 12.937560473347027
Mg 9.989777702954067 11.580441720170988 11.069710772957803
Mg 7.1929024661233 13.066250277237557 10.092683280027748
Mg 11.240350531788106 12.636225932950778 13.744599507103334
Mg 12.298902692150165 9.82748349477116 9.958357856393643
Mg 8.857108031984946 10.64813747286129 13.976870911666381
Mg 7.303363265901424 10.558885045556442 8.306117046472693
Mg 9.950829132031298 14.20093943394142 9.229243504441072
Mg 11.997447140544818 7.434484712558107 8.018611639591404
Mg 7.981071515303917 13.234282232633419 7.195367944241021
Mg 12.038869087116227 14.462478835857507 11.47026406878418
Mg 10.274953754802318 11.269494988623885 8.010062303630928
Mg 7.1335695271300565 10.152499530797757 11.281087618385904
Mg 8.983915428401966 8.063042640881067 12.465085344629966
Mg 13.738672014083697 7.319576427076094 12.96294639083369
Mg 9.060955681013688 14.41442551800126 12.152830515866782
Mg 11.332824912183598 6.909251286338263 11.045583285712636
Mg 14.108648083094355 6.673686223070396 10.058164034507717
Mg 6.767477821642567 12.573389411718857 12.992977480375085
