29
Energy = -25.16434681 eV
Mg 11.899260092797505 9.5446501378012 9.376132994756002
Mg 13.273288295588358 9.802697444219552 12.328139475593261
Mg 9.2377451169188 8.949128975166476 10.849309547788987
Mg 11.053414498257526 11.783776150189533 11.594788277340262
Mg 16.28542567391435 13.318863646016071 14.386199071927917
Mg 14.359038761789886 14.364833518797145 9.000356053693114
Mg 8.97615282856858 9.753288945036612 13.795018530003924
Mg 14.557330005747055 10.532526323236995 14.94391791809386
Mg 11.611348809661527 8.322768886720725 14.334023727618815
Mg 7.9087557880709 11.762271897993525 11.644246245026363
Mg 16.03309816995483 11.051284735781346 12.433347839809135
Mg 16.850251717283204 16.12267590026756 13.128121765001564
Mg 11.277314652201746 14.408857133210324 14.913320483208711
Mg 9.521307148300227 14.501599348990654 12.434649162047018
Mg 13.80507548472483 13.190627660972819 16.06467924349516
Mg 14.363364107525403 16.185285712797597 11.46737251462649
Mg 11.661431583460075 11.381203052995874 14.652524715014078
Mg 14.138411225069893 15.747469897541471 14.589880853656272
Mg 9.182303413316456 6.8185511242962695 12.943948655439723
Mg 11.770969233911956 16.59261268923615 12.94729726454264
Mg 8.822806971483136 12.574425439869502 14.497835804176436
Mg 9.047479437770054 13.624037016702871 9.552755277046687
Mg 11.831819798602664 14.786649991859626 10.517955981832307
Mg 13.50693202738103 13.158305049696574 12.776237731636938
Mg 16.295440502317945 13.75538216066421 11.25483551538521
Mg 9.267545058933589 10.917808756323163 8.616764660708357
Mg 11.756443157943622 7.274713888185906 11.448780243454921
Mg 14.185873321393496 11.57463475095053 10.069454252030123
Mg 11.825490839791609 12.528842770719352 8.412971865328622
