27
Energy = -21.77170948 eV
Mg 14.282927641004322 13.781291562670239 12.603315270714491
Mg 15.966022509269838 12.20989790237555 10.438255497660293
Mg 16.036238209267633 12.127454435025818 17.199147724277967
Mg 15.426301424618677 8.401435949731924 13.962482694291849
Mg 14.829049689116019 9.39550607351148 16.78800750429315
Mg 12.923319835892562 15.89953305451084 10.76533423968449
Mg 15.552143410165057 16.368098571439017 13.728884200465489
Mg 9.576602960802294 16.39834353836118 14.759905482048273
Mg 11.928415529221784 12.590531126153431 14.045054589510851
Mg 11.063411348828359 19.08652210965167 14.832836712754572
Mg 12.284837125350135 15.658809742247195 13.747093671655374
Mg 13.597858753849973 17.33526946489546 15.97886918677084
Mg 14.963332618835505 11.563018222711156 14.485202007375861
Mg 10.928650896516185 17.335949368601874 17.305251049934256
Mg 17.157928901026448 10.365062873342765 12.446346053993727
Mg 11.410302658941148 14.471419950121314 16.471013413678502
Mg 10.729344269808758 17.751987339663543 12.164390206866559
Mg 17.500527012123037 10.079189951101796 15.389213908594552
Mg 17.149679529653103 13.325511490634463 13.508197356596915
Mg 13.93967737981677 10.544750778832244 11.909124430767813
Mg 14.448470899530506 14.338967279286255 15.769056796355994
Mg 12.92534783962086 11.836422825283776 16.86597712241426
Mg 12.885628711238645 12.818206170974955 10.232873319280959
Mg 12.653276078430146 9.600879303359815 14.686223767010416
Mg 16.528796367589628 15.070011651927691 11.058988347125787
Mg 13.446250057834636 18.598778287254596 13.139834978035367
Mg 15.251917993166938 17.763614683531564 10.883379083548393
