24
Energy = -19.84727214 eV
Mg 11.835142554908034 12.626276577105171 10.62490088290684
Mg 16.776045395459317 17.57282699529459 16.036594466274998
Mg 13.517014910254959 14.703157947176033 9.218759734330789
Mg 13.876918078022248 15.6224504564897 12.282025414691706
Mg 14.935727361742256 12.40387245243834 10.385219371047107
Mg 18.312682806505478 15.391973659307816 14.68794333578271
Mg 15.017017029873573 12.61493138137996 17.587772502992916
Mg 14.84934417135502 14.71991586067832 15.136538456566695
Mg 12.379537124980988 12.686688368126363 15.920713756251017
Mg 14.681436135428866 10.710468904505685 15.298610901202503
Mg 11.4217505798553 17.14012366948485 13.27854526330536
Mg 16.471688074391928 17.113281981445503 13.079209794274798
Mg 16.572567584538742 14.087357879615755 12.54834435137954
Mg 11.093018988388213 14.086128733334844 13.458799380348385
Mg 15.198675234707558 14.593634393588086 19.773758491981
Mg 11.025999611596992 15.505858698056386 10.725764435333911
Mg 17.129659324512776 12.651351488502451 15.279176241649157
Mg 13.987740510831792 17.67832328682018 14.724793493162974
Mg 16.34913342603392 11.102643628028925 12.803305673726689
Mg 11.891245783406074 15.776943500521545 15.945975487674858
Mg 17.112240562609095 14.925931124607937 17.452777997890955
Mg 13.69587212277654 12.575795324591972 13.155966413335285
Mg 12.5487305051161 14.255125272454833 18.48300084517525
Mg 14.398435392803291 16.535056553467147 17.57688073452313
