24
Energy = -19.83439237 eV
Mg 12.630064185173145 10.606640073463584 8.094943779802348
Mg 9.937071875919635 9.490222587962776 7.472913582375854
Mg 7.453000805190236 10.994539329337604 8.193757341677182
Mg 8.600855281594098 8.660150431676813 9.936333753717411
Mg 11.616635046334748 7.9086341254495025 9.379492241968608
Mg 7.563986701789728 14.017235088170125 8.845372046456804
Mg 10.192988992095456 15.437020256892477 9.31778519538362
Mg 12.74455208650608 13.671680553133731 9.169804392952999
Mg 15.177623767622196 11.8500994916806 9.107383368614995
Mg 8.354825693788593 14.774564645875508 11.666490926951232
Mg 10.13276823654306 12.463405099149126 8.337896216159406
Mg 14.120103667156167 9.290946369185532 10.482891805426526
Mg 13.854558731903218 12.23362318585981 11.747409221193399
Mg 8.337707901610312 11.739537417201856 11.004209085375587
Mg 13.127467771091288 6.812762113809039 11.847130683111253
Mg 10.14443380397154 6.574201718472623 11.592384085275324
Mg 11.258687822606994 10.74072244242291 10.86859391650229
Mg 11.165664982035247 13.825019028667262 11.74792270358104
Mg 13.030478078580032 9.591885531946556 13.28651446857614
Mg 9.33910529066524 9.32194411828667 12.77844957514334
Mg 12.20034827855972 12.46737021126873 14.189231643490972
Mg 11.354278553971866 7.277669366065139 14.250153049438735
Mg 9.27365309898537 12.474211802425714 13.765167970593803
Mg 10.742961807343818 10.129737472634563 15.27159140726954
