27
Energy = -23.22334576 eV
Mg 12.25340816676761 17.32499137739502 12.773933600067439
Mg 14.117067319748514 17.31366063896372 10.304858925323442
Mg 11.336755398959982 16.473328969335032 10.090358203383964
Mg 15.128482232815854 16.47165523611083 13.047295648866825
Mg 12.346499522682056 15.523064922855347 15.113737280478851
Mg 15.743534952668492 15.039135065328056 15.540783059672348
Mg 13.86310446672086 14.919025384634704 17.84363821847875
Mg 10.197171486068989 14.937996882481986 12.561992561673664
Mg 13.477909179536692 14.484887298473236 8.950454683968989
Mg 16.053482790670973 15.143667704438721 10.43670467452076
Mg 10.367219297972287 13.770107016525479 9.660196219709219
Mg 16.22017833435038 13.51447795204226 12.986795310418987
Mg 16.499760102958483 13.512681652067185 18.001646363501006
Mg 13.726147070468837 12.807817565690703 14.808976152289372
Mg 12.405185121711988 11.64161057153446 9.495675994480864
Mg 14.118068808784608 11.714347083602448 17.707266497098736
Mg 10.319064347540994 11.744711898910525 11.757869959776455
Mg 15.233911694353106 12.24781161090736 10.417599676297677
Mg 16.530461372804726 11.730183575334022 15.598480813519629
Mg 11.470559489249318 13.39194267352094 17.325564870602538
Mg 10.693516706967603 12.749736452296668 14.526498594501227
Mg 13.126966458512712 14.123320509659003 12.090704755576187
Mg 13.266854589218289 11.023056698391423 12.360060176061717
Mg 16.156429350509853 10.513020989327574 12.868930390840589
Mg 11.586235869284462 10.484922076717424 16.71476198062071
Mg 14.12844029679086 9.707136103895271 15.121689770168896
Mg 11.163127580331158 9.680988429713887 13.97400444824083
