24
Energy = -20.12688579 eV
Mg 10.200821290631316 13.92648347309461 7.22862966391194
Mg 10.357469712622517 8.87434846006575 7.973797209342562
Mg 11.75663366027167 11.552846106973403 8.365005587148081
Mg 7.915157840784049 14.103562310517654 9.245606072277617
Mg 12.733829751386697 9.127538505887243 9.853150562183284
Mg 8.740148642883026 11.424629550250646 8.125146425362196
Mg 13.081535120901059 14.24893604409131 8.37765220190452
Mg 10.366997123550512 7.401461251199418 10.616688042227093
Mg 7.860536062368817 8.855638797971473 9.573959331785256
Mg 14.5229856638501 11.72247025972361 9.862904579667115
Mg 10.565655482713606 15.575029209228804 9.658822044154773
Mg 7.514898672332706 11.559913391806369 11.023157196997039
Mg 15.183237607468778 9.03394443384668 11.58302091442241
Mg 10.453967454588097 10.823539732989213 11.078954456431665
Mg 12.15858988573506 13.403094290245043 11.101470314478554
Mg 8.528878994755043 9.031973447889518 12.585336556120005
Mg 13.117756779683162 6.702883165369502 11.674599520723438
Mg 9.303719555115077 13.99330148080705 11.922406006181943
Mg 13.144050584080508 10.982110317751273 12.599873199168865
Mg 10.758677213216833 7.055681318266102 13.591339777783057
Mg 8.51464014127231 11.808636260910731 13.93505618488062
Mg 13.48443083473311 8.344923242231443 14.107647914745245
Mg 11.252192730542466 12.933211559350003 13.97121110332481
Mg 10.929146153008245 9.959800348028844 14.39052209327283
