20
Energy = -16.83969626 eV
Mg 10.246034882037133 10.636004652907307 7.9034565897949145
Mg 7.7348024244086355 11.267445987237098 9.315290837061596
Mg 12.725845253443142 9.432021480487979 9.095665964535733
Mg 12.736297236127863 12.200543971972586 7.620028832955099
Mg 10.16450219439332 13.348750183747228 9.181431145555752
Mg 13.024526947182405 14.222653297615064 9.833838300149807
Mg 9.496853816372939 8.82765332399491 10.18539392956179
Mg 14.630644152647575 11.706203727307418 9.79410480064827
Mg 11.958740214914773 7.388893760221408 11.201672208112669
Mg 11.205157767898035 11.311463501939722 11.145125270565915
Mg 8.146694855359874 13.31327190912137 11.485692523088925
Mg 13.655446058491412 12.890757968698882 12.432041577166697
Mg 10.921706515140928 14.3951762541554 11.99973333087602
Mg 12.820314188609201 7.895412920121368 14.007145653041706
Mg 13.818147128981577 9.784058521365747 11.906842029419819
Mg 10.221902360131002 9.115286964205636 13.130585393863637
Mg 7.763948046991218 10.426811180104608 12.117712253395052
Mg 12.347085102201678 10.926247898303545 14.303557569758475
Mg 11.947404177506648 13.95959516338491 14.750511621476194
Mg 9.642253526738102 12.160054182684858 13.798477018549526
