28
Energy = -22.5740706 eV
Mg 10.309442935811278 16.013599167126664 14.57145961955449
Mg 12.583368889411712 14.265816442885582 15.340096791204369
Mg 14.75218228798663 12.46527734656496 15.957867343829095
Mg 10.02387034424839 12.917882065642656 14.19576603999168
Mg 12.279551730955498 11.002623463175986 14.98849222750782
Mg 15.69312943753534 7.860562432432703 12.327898697925932
Mg 8.92783135550196 14.944990971752512 12.096442775443913
Mg 9.806104716612094 9.898635430578073 13.44387562072173
Mg 12.6930418577287 8.52394602916062 13.000343506633078
Mg 12.040957717297054 14.741110655027372 12.308088709917495
Mg 8.1547332651628 11.980907694389694 11.947299009601593
Mg 14.453304722254098 12.997903643561298 12.974969324626311
Mg 9.93204455596489 7.020004031770697 12.635746924994642
Mg 15.051899591507269 10.199132527431424 14.007749995178308
Mg 10.628198881017322 14.175635837284489 9.652422988136381
Mg 7.975491886055828 8.949529406844091 11.080018738099822
Mg 11.817609034823136 11.482392583533983 11.835950603394224
Mg 7.615312547170806 13.785308103994936 9.577149840471952
Mg 13.510296318541725 13.232630983597492 9.996497059525407
Mg 6.655945906107142 10.99783553135122 9.334644151106428
Mg 10.879817920050623 8.425248617218237 10.345071076651037
Mg 15.033606494341553 10.608571883320419 10.964914622127809
Mg 13.890849585228372 7.754364293766648 10.129517236821398
Mg 9.097296154256014 13.158691962498231 7.08116751281567
Mg 9.740877296855714 11.13226318565228 9.333627590135661
Mg 14.965018830952882 11.560625199645479 7.881335947495232
Mg 12.647376621301484 10.273757762245546 8.938007221208142
Mg 12.047459082040497 12.723763833018062 7.259823317302561
