24
Energy = -19.64977628 eV
Mg 8.874654059725382 12.615003911947351 5.638302393939189
Mg 8.265325080430166 9.967978421655536 6.9760345004078985
Mg 7.426383006843158 12.867107998727095 8.27808809900604
Mg 11.02429178217367 11.747074709745794 7.71503162189775
Mg 10.689810197342366 8.719366789440405 8.48510720901424
Mg 13.297730509103232 10.18494391709075 8.67629974204026
Mg 9.570040203597566 14.942236281950276 7.440289796729377
Mg 12.984983020921709 12.877988004966117 10.04594568758972
Mg 8.84704271321631 10.644417715866101 10.002341191163742
Mg 12.675794555168803 7.9828482343352 10.652360003190617
Mg 10.056529383329 13.483850762208649 10.052541336102355
Mg 14.464880773104984 10.517773160488609 11.370695188521717
Mg 11.34297536653434 10.685011516822811 11.674884283745172
Mg 8.076957765405025 12.810273329979292 12.1526344394222
Mg 9.68276393353934 7.923619082147229 11.266882921872664
Mg 10.465303705917657 8.931473682525782 14.170348873760943
Mg 14.10490120302902 13.322256434575774 12.804804498238862
Mg 11.09107560899074 13.608403849864048 12.840109647095458
Mg 13.405512094053881 8.695136538537863 13.541209346539045
Mg 7.923733664095802 9.841070719780676 12.821938708709242
Mg 15.31899443907767 11.036298168050727 14.213038001084518
Mg 11.528282846956523 6.309798387811413 12.967213577779603
Mg 12.36396646276429 11.40287853119562 14.543902449610906
Mg 9.389923676622683 11.75504590222957 14.541852534481638
