23
Energy = -17.68943828 eV
Mg 17.985631896564197 11.60746108790866 12.565282024092536
Mg 8.785861437817742 15.315244041131773 12.792288012841867
Mg 15.052071672563365 10.864119575100478 12.053855047208051
Mg 13.731968104785645 13.255173773102568 13.371322995999096
Mg 8.91741562504848 13.763124435790775 15.406981401005343
Mg 11.411646208884093 16.95334018004972 13.024483722152455
Mg 16.086803850476425 11.394287241470721 14.94681011191601
Mg 18.450560030869227 15.914451536257358 15.318676898386636
Mg 11.389105130628726 14.184712608241615 11.69983996342655
Mg 13.930017025084313 15.920104286738898 11.781535717088033
Mg 13.447866384917477 9.983891053292876 14.511482738843727
Mg 11.07525331769532 11.792944424759046 15.000563817460483
Mg 11.992641479260058 11.133673788017443 12.075666804509638
Mg 18.55571450403336 12.951901792578434 15.336315748739782
Mg 15.733641408025287 14.453333025107836 15.299373641472773
Mg 16.153270847354964 13.780766851440987 11.63983792887544
Mg 14.03768562650946 17.031274897500694 14.600101565943342
Mg 9.229441704401934 12.342407637554778 12.637582160754242
Mg 11.944647172836603 14.759752192665363 15.2897812006978
Mg 16.59743292438591 16.49512295643346 12.992415737554168
Mg 13.663113126964465 12.492313272850797 16.364684985371944
Mg 18.916636518995833 14.460030932822617 12.71914891366849
Mg 9.517845061191135 16.67022827150927 15.37817316855628
