21
Energy = -15.1604339 eV
Mg 13.26724484149822 8.799032636379371 13.73888557464113
Mg 15.453951478312645 14.18194512544172 12.212881700100622
Mg 15.856260131132196 12.745813218260038 15.091549801703252
Mg 12.261138100647704 13.657004028561529 14.168418792603093
Mg 11.266178928405322 10.986252959294081 13.208078781841232
Mg 16.60740319159484 15.018452903784025 17.10274149782223
Mg 11.727244021171423 16.36090536186558 15.411501628019394
Mg 15.79238415706331 19.489600249494227 15.459836276308295
Mg 14.768315600994288 15.668998977902442 14.65483052087884
Mg 12.661016145491281 16.037644193747848 12.387839274564541
Mg 16.298858304927585 17.52346974865035 13.067806058965337
Mg 13.577744724844822 14.127700550910365 16.850700730253976
Mg 12.896613380484208 10.043315026550125 10.756290419023912
Mg 10.980456581477826 8.089096368535188 11.999780329929651
Mg 13.248791416270597 11.231524575370285 15.662318992371477
Mg 13.35721364699491 18.476230320530075 14.151025441778037
Mg 17.78333968069333 17.42989938618843 15.803908375217816
Mg 14.414375595202856 17.319722628408456 17.065177191623672
Mg 14.665693221293123 11.390563890377805 12.798283500075437
Mg 12.76779966451836 13.14937122726528 11.18944015625019
Mg 17.855346140690415 14.971741115741889 14.20621802486571
