22
Energy = -17.32260894 eV
Mg 13.634267959142836 16.68653379142566 11.469565663430437
Mg 13.367245156428488 13.99623204861109 9.561576527482673
Mg 15.088757881560346 14.154378965528991 12.143472910043764
Mg 16.688479540016584 14.103092594395775 14.854793557031858
Mg 15.60623526650389 11.478551734873637 13.288284997261126
Mg 15.39091496972506 11.762301023195489 10.257031322396598
Mg 14.794862752483283 16.334942599849658 14.221179492645861
Mg 11.04229906685847 15.59598148442289 10.83324301237173
Mg 12.936034108578845 11.061552812962667 9.017043557191249
Mg 10.385652947311074 12.81153170851335 10.160943703699681
Mg 12.487468418589446 12.552457155488085 12.377525004727312
Mg 13.6431315705497 9.695893161042488 11.85476530898921
Mg 11.831229473766069 15.49719957051123 13.744083647874607
Mg 13.592804120566065 13.59895680034055 15.104491153552255
Mg 10.813177537129892 9.959697994220566 10.845560508663375
Mg 9.208639614835803 14.430197771125911 12.864575501718285
Mg 15.628616844609606 11.737342548029838 16.375389449509537
Mg 10.671388933948359 12.587330918477058 14.884467130316866
Mg 13.282747468526008 10.583063085325247 14.946883921390803
Mg 8.840101145080187 11.555625218413825 12.582647657865575
Mg 10.817567041045743 9.621529002526747 13.833475514347136
Mg 8.325036422540997 8.540468259705943 12.20698358656746
