29
Energy = -24.84674039 eV
Mg 16.041045299637148 8.863820276045598 17.846022785835466
Mg 13.834493313364911 13.655428460687903 14.295785127231603
Mg 14.334892791749914 12.611083019876231 11.32044489203558
Mg 11.339849888825134 14.718936525286496 16.355345338815553
Mg 12.590312730719068 11.718502249044633 16.311906254020364
Mg 12.325155388049504 14.787409927281459 11.486047684576956
Mg 13.334074641419457 16.985522995704695 16.216857302537708
Mg 10.930236503844807 13.270094575429328 13.751145642500804
Mg 18.444899936276737 12.561361988966963 15.308398949752162
Mg 17.38649323389275 16.611417151468824 12.888549696086349
Mg 12.821920873639616 10.804728627780348 13.395746574163256
Mg 15.946049703851603 16.804116809718415 17.755999492896755
Mg 17.100627634380814 13.882832616963727 18.143576036770227
Mg 14.961724471253302 11.591694569935008 18.81189506401802
Mg 15.649832197213573 11.991047589184346 15.966046104447571
Mg 13.20186457716348 19.04992333468246 13.930001507864999
Mg 12.899488052749556 17.735027895783617 11.207980889294525
Mg 14.435648075208633 16.27723803989813 13.479948590607707
Mg 15.869883620659197 10.791597035397649 13.13619226288505
Mg 16.726344850367134 13.657783074639438 12.756519490200317
Mg 11.35045566587839 16.37613824501801 13.86478125716611
Mg 15.968664626402512 18.381557154194006 15.1669459497175
Mg 14.375796071320305 9.249752952554253 15.390328514803725
Mg 16.45808301733018 15.07471605895774 15.410176836782922
Mg 15.223148361390034 15.61032268085182 10.717210239031864
Mg 18.003950704812006 11.096764299526052 18.0092503316038
Mg 14.088460861344352 14.285418356971164 17.46460901756014
Mg 17.5572381547696 9.611239631229312 15.362795066113215
Mg 15.511816100316286 18.821727136090118 12.061201205686269
