27
Energy = -22.82649654 eV
Mg 8.384702650311436 10.80828040684795 6.248300919928715
Mg 10.93144968570929 12.18703042010315 7.182143141423817
Mg 7.527554550292398 8.937476451782123 8.332578130084197
Mg 10.107290459898138 14.238967016156453 9.0919100246659
Mg 10.631071618118211 9.258457520391204 7.9180334480961605
Mg 13.279254544373986 10.586600367578704 8.085497774657616
Mg 8.362757152435783 11.67471165434834 9.382169205814149
Mg 13.14778698633743 13.541777760047793 9.269405922078521
Mg 9.424455408599185 8.86027353436679 10.616928851680534
Mg 11.195382287451466 11.4805926406917 10.382176239269542
Mg 14.500427409963347 11.167039730189398 10.757934912887892
Mg 11.566658893972805 14.620619286356796 11.704438311042342
Mg 12.578050197285364 8.664469590705508 10.45682148643672
Mg 14.092555660902313 9.08375229861114 12.945467770678281
Mg 12.339418482927119 11.853384541251678 13.104255525525403
Mg 14.571273827017162 14.042475907946727 11.8461691010836
Mg 8.631780296368655 13.92953589148172 11.683398640306121
Mg 11.13169962436917 8.874752164383448 13.156793344412698
Mg 9.095183288328164 11.161008953419294 12.649115711397725
Mg 15.359849298668685 11.708790125592833 13.779421476491107
Mg 10.036183329260536 13.601996766973395 14.269596920607633
Mg 13.034313051685855 14.543039355829762 14.499879174187999
Mg 16.058835814028075 14.571931487594737 14.424115012491665
Mg 13.26007417435216 10.292820574316764 15.641018637105491
Mg 14.802713878257832 12.892796080638854 16.557825217213093
Mg 10.168457944066969 10.662270840408974 15.383590011206628
Mg 11.805330304960338 12.779659451927301 16.65552590916899
