29
Energy = -24.8987454 eV
Mg 16.625709792202855 11.945641800238022 14.443306739015904
Mg 15.018161820832566 12.079906218852813 16.927907753505774
Mg 15.554708665289436 10.719490549896895 11.873697432636614
Mg 15.200542741881014 9.354903757204667 14.64353586240834
Mg 13.19546139940749 10.23642497792536 9.48672735350721
Mg 15.305511140475975 14.598749702690059 15.13102031831231
Mg 13.75212182145008 9.356515001970482 17.30050437692766
Mg 15.434869291235309 12.564334978012223 9.402863059713276
Mg 15.951079062774648 13.753249910584776 12.23940194653574
Mg 13.551156718042591 8.496639135818318 12.180732971862355
Mg 13.151324337850227 14.519087798070332 17.22718558133992
Mg 13.29075979247861 11.875771186520481 14.257368754993289
Mg 12.04442024968912 9.001574926729282 14.827534839023839
Mg 13.043328512856318 12.502127282440169 11.331596161535305
Mg 11.86596285450009 11.715277834085976 17.100981182535154
Mg 12.903486542113159 14.628590938295774 13.13114802372209
Mg 14.430188990286139 15.324468228867994 10.24549886957766
Mg 15.15956156331093 16.699982210701968 12.876271531176194
Mg 11.079698990696278 10.209676572287963 12.129238397279307
Mg 12.757037443427329 16.849498978890054 15.02800097746983
Mg 12.77319491624362 13.354123675573558 8.28935053385602
Mg 10.81547497436697 14.085240910079486 15.385022374506521
Mg 10.054325991793686 11.197009632809541 14.815545680519163
Mg 10.497943316136771 12.001584774447586 9.683645820375945
Mg 10.044198595566552 13.081506976292076 12.572662768194697
Mg 12.50254618621615 17.4470472236722 11.724099263569073
Mg 12.407768783502428 16.652351265878707 8.475481016287372
Mg 10.226016658241464 16.13764661798265 13.156248519081508
Mg 10.943596804825216 14.927632785336296 10.442961059519456
