25
Energy = -21.60801019 eV
Mg 14.3091699864684 10.902859305359762 10.636695538348041
Mg 11.365940797934908 11.580653963302495 12.505514768925735
Mg 11.19249331211713 10.771196891193306 9.709901352481845
Mg 8.534441095678108 9.17996861167138 9.21995678925555
Mg 14.007009173121771 10.65926789049249 13.700402172422148
Mg 10.91573047101298 14.023034079544976 10.44509036251838
Mg 9.818602565143951 8.8689907451519 11.942625059331549
Mg 12.25785667474425 11.024093383325702 6.6923050307185195
Mg 13.681947905000989 13.566985075476333 11.814984625164014
Mg 10.616972277256949 13.36824174090108 7.5578506432419506
Mg 13.299616447677828 8.846643519130735 8.539794770955115
Mg 11.660695504738863 8.667607370432766 14.251551473559408
Mg 10.1049615114203 13.297828402262626 15.376830889160127
Mg 8.750285307723724 13.236625741109311 12.514542993184737
Mg 7.447300673382147 10.62518326840494 11.809858798261677
Mg 10.957902334721284 7.221021194828715 9.71821351545456
Mg 9.168839544899793 10.609096879132437 14.417883469021222
Mg 11.306999640908895 14.949833267686511 13.272878058538307
Mg 10.670513804166573 8.401670213361552 7.075896696328321
Mg 13.212970374793713 13.356281301153937 14.856147098885307
Mg 8.521629469729865 12.354221547142979 9.650619900346173
Mg 9.12599658228303 10.956284020413095 6.85270639707157
Mg 11.865009203036164 10.958810146334374 16.01523519508522
Mg 13.324957463093474 13.079289367108576 8.869406121644179
Mg 12.926670883820275 8.538825079954169 11.597621284971854
