25
Energy = -20.53440273 eV
Mg 9.698305084929482 14.798830380442244 6.116053784692246
Mg 11.033678042245706 12.147681380571738 6.852565196908899
Mg 8.86361200151416 10.268938288937562 7.806830988309745
Mg 8.375380822011795 13.189672692829781 8.395967917774023
Mg 12.06901410404364 9.562557671887397 8.364054834529233
Mg 11.106444445235361 14.575482753616637 8.806660836798889
Mg 13.470597337395636 12.424797515622293 9.117516567135201
Mg 10.693113743807784 11.786805598306518 9.928107580581699
Mg 14.462355050404954 9.844324669368827 10.155358344891255
Mg 9.957128281481852 8.886227953040258 10.584014863310362
Mg 7.841777887113505 11.183522384665107 10.821889525565206
Mg 12.646782471447587 7.665186195093076 10.775773350521273
Mg 12.496557784216847 14.095825443007948 11.555288802385892
Mg 9.402374366622114 13.971586647722251 11.47246818908263
Mg 14.537226419610334 11.997078991281631 12.177506747927685
Mg 11.6980087498275 10.769054779805044 12.403929859752573
Mg 14.136989545829998 9.03578952969193 13.135874232669309
Mg 8.541221347559581 9.216402025702209 13.164454141488786
Mg 11.18735292685131 7.793631892077489 13.405295017291232
Mg 8.580059188254204 12.086373982138687 13.587463622176463
Mg 14.080304358436507 14.168170792602353 14.194374300744952
Mg 11.222617384997658 13.281612761549788 14.142426331458458
Mg 13.619792915858877 11.436614917044736 15.199115464701512
Mg 10.570699846765875 10.384797128031074 15.235376008781865
Mg 12.87543146129661 8.595859192721974 15.768459058279166
