23
Energy = -18.45354444 eV
Mg 9.458625422597557 14.023674981133581 6.542900747849132
Mg 11.11344699639581 11.461826139386126 7.0143364937825
Mg 12.642350301740432 8.939956094225973 7.822072396483743
Mg 11.273047883511527 13.766803213568496 9.07402533430832
Mg 10.058791190562353 9.774179450287894 9.432855838932257
Mg 8.274948544841823 11.885410275654472 8.188237445756279
Mg 13.464304504079108 11.559469876232484 9.106897572997086
Mg 11.315791606190212 7.065665982752497 9.914911736618347
Mg 6.967792636373496 9.765951080137077 10.036777594226493
Mg 8.476247021788453 14.783936073922465 9.404382362789738
Mg 13.430421413038674 9.06266386547117 10.732250039103347
Mg 8.533007774807922 7.515607630699262 11.103332908261308
Mg 13.493342406348503 6.136235603442694 11.841186540059823
Mg 10.132422233939801 14.62805669856873 11.886332360303259
Mg 11.38553965135564 11.759215814983314 11.292210513689339
Mg 8.350513571022722 12.206247643556326 11.172370133945025
Mg 7.744921212745455 9.729949789023786 12.964154086340834
Mg 13.741951993846218 8.446300923239908 13.768077451185993
Mg 10.800382906062579 9.09541296126669 12.567354426165005
Mg 9.678235787590538 11.849658264106687 13.902275497107327
Mg 12.263186012302713 13.469786620180876 13.720197685726948
Mg 14.089930367998608 11.343175457777514 12.47329643690132
Mg 12.265605755263332 10.685622754785136 14.994371591869438
