20
Energy = -15.89528027 eV
Mg 11.231437689008658 12.016683981167287 7.281047604053345
Mg 9.56627234220844 9.597090735963745 7.590381511582066
Mg 12.94031395815704 9.699731978456185 8.390013017102653
Mg 13.428847942254734 12.608499478646861 9.156503248582553
Mg 10.757373745308147 14.120857331689752 9.429035231035405
Mg 8.586559489519594 12.185368058385254 8.939444940188064
Mg 5.8104468394460165 7.131136825313712 8.938439059367
Mg 8.389724343194512 8.482889115440175 10.237992113475935
Mg 11.033527254051863 7.386203321949384 8.911743588709536
Mg 6.5982279098512135 10.091267098205241 8.376539667037246
Mg 10.725858638582219 10.534956063621427 10.475077753237855
Mg 7.035405320739637 11.014970738358683 11.278422404617267
Mg 13.258632920668429 7.845568573372707 10.816876596576368
Mg 10.47679089076676 7.18357848214781 11.870184657652521
Mg 12.322357506471741 13.516767368941139 11.842788272949853
Mg 9.251733421884284 12.942078832487834 11.94355474909712
Mg 13.55482610339876 10.751331964960448 11.512980864875244
Mg 9.10503206328191 9.722849818504697 13.071964414905407
Mg 12.132033819299425 8.921536115233774 13.502049745094165
Mg 11.238390441434063 11.690426756680598 13.878753199387546
