28
Energy = -24.25404726 eV
Mg 17.57826242424029 18.711620477442626 12.093217907116049
Mg 15.413932103279306 14.16026074706451 10.949192700903172
Mg 14.54427185506028 11.776004169021112 15.165134469150216
Mg 13.005985449637993 12.367998856203664 11.618983941271972
Mg 17.771334722135922 11.365686101178312 14.523125314809919
Mg 12.192207769094576 12.365989766347996 16.999303356149106
Mg 12.294352689374204 17.351809692355786 13.575551036634792
Mg 13.539065626116694 9.710514552299914 13.03402079592333
Mg 17.692780250148434 16.058082776124323 10.788590017424427
Mg 15.851035783294195 11.565827846798431 12.299057902647604
Mg 18.537262184565765 16.297379897026293 13.744446783461601
Mg 16.024817490532662 14.290931100297032 14.197847602599861
Mg 14.369128353983614 16.84457624378047 15.694243946492376
Mg 10.375797804838518 13.734443737105138 12.501563916985763
Mg 10.146885595744898 16.654786569486337 11.544191465041425
Mg 13.023673384691373 14.319362564289234 14.086523322763167
Mg 11.76034144381753 15.56991031614889 16.636996847063767
Mg 11.457978970718363 11.379718345933535 14.194972868772375
Mg 14.483798851923236 14.311503597828859 17.17085718160007
Mg 12.728947641409937 15.38551590569519 11.052812772701172
Mg 17.024336010442035 12.783748958778204 17.06575661359807
Mg 16.762318491765914 18.430894918688566 14.911914711671143
Mg 9.715454926530908 16.135267953825284 14.456876345860813
Mg 19.148455849533217 13.886670708769685 15.323147451683468
Mg 17.184371217884234 15.85191485687934 16.591674884494378
Mg 18.31960089387217 13.46803975554051 12.307742619511398
Mg 9.808177763435243 13.436987792208013 15.550914240022234
Mg 15.130785127199504 16.78890971244666 12.583833465983796
