27
Energy = -23.70240543 eV
Mg 13.778854003792935 8.627435334024828 11.832989426594315
Mg 13.979105073767565 9.74593109091253 9.007315993371142
Mg 13.305088514806602 10.290546499059232 14.299242567853375
Mg 14.380459911624289 13.130212362219542 14.150768244623025
Mg 11.169086866579919 8.296912106356269 13.247476711260294
Mg 13.805917625459676 11.582443482191612 11.50418519895366
Mg 11.593878296161646 7.640566526261465 10.124708168425727
Mg 11.952899962923091 12.583024329316457 15.856375870358539
Mg 13.854507537829068 12.95842544182613 8.753129210136535
Mg 13.990761283391961 14.660616607125984 11.662783232752805
Mg 12.898662155436593 11.201264253558985 6.552884707808476
Mg 10.651705377953407 9.9129674907303 15.811396378046345
Mg 10.827009879727035 11.380084316006688 12.528251140147363
Mg 7.333608084099286 10.143027441383934 8.988321228752387
Mg 9.59284592413393 10.767719903940828 6.958511832040244
Mg 7.619099081402856 11.465724940515354 11.814897477292233
Mg 8.944471161382348 14.08741955766402 12.129048572105173
Mg 9.010454401710291 8.833131433194433 11.157376806392625
Mg 8.794381432176662 12.7512624582347 9.304486008698563
Mg 9.10075029238389 7.896278601760924 8.271845572837732
Mg 9.055536170488077 12.572277026217296 14.739542926151818
Mg 11.140206652653374 13.391419363015924 7.465658449250942
Mg 11.423200604777119 13.819379141238864 10.447897643952068
Mg 11.822838336125622 8.51636862042893 7.2292479334303055
Mg 8.356568991004762 9.679542279934903 14.100058651234916
Mg 11.1619829694124 10.742514432491594 9.647085195654082
Mg 11.562445608121346 14.429831159714798 13.520841051201684
