25
Energy = -20.12559645 eV
Mg 15.054325077021648 15.30091393155716 15.487744692485455
Mg 10.5756572952331 9.255900417564932 13.570013240767466
Mg 10.40557942820882 11.43200990418309 15.665594873050363
Mg 19.02414762914078 16.938489500646632 13.982981386090882
Mg 12.427682623950151 11.994434207715683 13.410195929845298
Mg 10.261751426009297 14.265269258127248 14.376868868878836
Mg 9.150245817493436 11.84455885086125 12.935460347917838
Mg 16.405143970600445 13.033965469445917 12.194206996768008
Mg 12.732895765774716 13.410317890749567 16.107121503704235
Mg 16.480495557548796 16.05909032681967 12.547787501200764
Mg 14.023855346191846 17.68297207601865 13.20899425854083
Mg 17.76944099263468 14.295764505815612 14.770183592862972
Mg 15.365515802159024 12.313923154204044 15.065887297367889
Mg 11.034520545920019 13.628744699620285 11.294858156477007
Mg 10.995148353276244 10.604774807841792 10.868552129115251
Mg 14.608346119667354 18.184326030723238 16.18088170119222
Mg 16.684848601216505 18.78043171186369 14.089539306982603
Mg 17.427855042291093 16.969577245617522 16.44839873514864
Mg 13.758603867299971 14.568361681259113 12.695946732696045
Mg 13.96449871624069 11.84493716842333 10.865793860580789
Mg 13.150208928904355 9.025765119151645 12.143442078079195
Mg 13.350781592691444 9.907946110425183 15.183911413237169
Mg 11.27875383508509 16.383332016526353 12.414296545012173
Mg 15.70053860066179 10.2966971605933 12.997759045060423
Mg 12.210834144325384 16.288545929725963 15.34985028653129
