26
Energy = -22.606383 eV
Mg 11.018433040576259 8.273989469338678 11.339604366522112
Mg 6.446087836236761 12.015643543840222 10.06808949657075
Mg 15.260597689860425 10.740389563792721 12.609954108432396
Mg 13.935656810996102 10.815362899132005 8.070618031072987
Mg 8.236928321631067 9.439040302931545 10.350815321872606
Mg 10.093375533963235 11.506411912082113 11.666748750954506
Mg 10.88168733939329 9.767739295769132 8.747725938315305
Mg 14.903589994466014 13.875879633583505 11.869406375331973
Mg 14.067270230244326 13.941402707965535 8.99458126261535
Mg 11.336848428175403 12.761053834962581 8.67341359041231
Mg 7.14288362813032 13.517670424997053 12.546133263587068
Mg 9.886808068411822 13.896284577153583 13.587333922139491
Mg 7.859199910758913 11.924848312641384 14.957547087539986
Mg 9.197392040782061 9.3762133341365 13.689637828059963
Mg 8.63531269174179 11.627908213128219 8.143285296267415
Mg 8.919756709346785 13.95304427041254 10.223846713229065
Mg 6.6737179359181065 10.501186885151446 12.628152247020957
Mg 15.629780289525133 9.135067550702862 10.010173330106774
Mg 10.73317768303755 11.50167405199874 15.418989914284444
Mg 13.990835907447597 7.819773369894618 12.033120068632153
Mg 12.751396840528702 12.673828193234751 13.571316917267028
Mg 12.29611902225672 9.686235085236559 13.653877601544602
Mg 13.150841278538884 7.857016200375655 9.160187711398049
Mg 16.058427436158595 12.026153420600156 9.929585142552337
Mg 12.928645764199588 11.044296888075973 10.834666675426602
Mg 11.927343763942718 14.284000255129929 11.1833032351113
