29
Energy = -26.11214602 eV
Mg 11.015921087487222 13.232807249300846 14.646845499253036
Mg 11.644590179427972 8.506230894507702 8.38328331889826
Mg 13.02173741495551 12.59845013267955 12.633876505294408
Mg 11.496053421219901 6.869106065719669 12.952940014844271
Mg 8.646931431643338 11.36300456245311 14.666518568758304
Mg 10.518388268090108 6.115767765580492 9.986401194766211
Mg 8.674724560139516 8.800174027130705 9.227477843063081
Mg 9.25056796464347 8.336266322678538 14.32182242585198
Mg 10.086550662046491 11.15000346778653 7.746437189910164
Mg 6.832295487204279 12.619946721411305 12.518939578648109
Mg 10.27885762042436 13.895611075413765 9.232209246556673
Mg 7.706752561737774 9.76176905707263 12.01154097075393
Mg 15.038902737451945 12.540399159996419 7.940034761728279
Mg 14.642957238461285 9.473835125588273 9.12385019172113
Mg 7.991624493677445 11.82032038774435 9.679459042106563
Mg 10.72498863379713 9.264180997167282 11.282036187558079
Mg 12.23436377838986 11.446737721676243 9.815183919492592
Mg 12.333901331540925 13.516491799963706 7.181876823097918
Mg 15.173583425016234 11.936992271238193 10.781630700931393
Mg 13.390337197198942 14.381769891321262 10.034963895147298
Mg 11.141564345101994 15.0889213188788 12.142599738269482
Mg 13.336002392223046 7.0521563389161095 10.572646081589925
Mg 8.523873151766633 14.594333456622886 13.996379168375347
Mg 8.471548662108598 6.768528601399756 11.859377472004143
Mg 13.055696848379934 10.640739281571413 6.7582985108706515
Mg 9.995946214140714 12.154709934370496 11.890111070976173
Mg 13.68031817456046 9.594199452871734 12.109451991823308
Mg 11.531812650818441 10.256428428290517 14.0781043508719
Mg 8.186733217600214 14.847643641901772 11.053228888090826
