21
Energy = -16.78931839 eV
Mg 18.497714262777695 14.416976067909157 17.21563435267516
Mg 16.462283310087894 13.68011967525759 15.009940514863167
Mg 13.9396314315354 15.296858653359683 14.690471631542707
Mg 11.220601271926478 16.19660767012455 13.740568349375476
Mg 11.239908756890893 14.368888543260038 16.021563219514228
Mg 9.749793779560457 13.476092120354576 13.551973636531233
Mg 13.66315801057512 16.24030192474513 11.930393329395903
Mg 13.519837727914801 12.498488394008216 15.64829208464771
Mg 15.784735173370601 14.118078666614528 12.239540839469667
Mg 11.015918655414884 14.97372097332717 11.071135760765708
Mg 12.748524673117386 12.938775284422734 12.758709265054994
Mg 15.367056152187038 11.20511656490896 13.689892213211648
Mg 12.858537385402014 9.703949124046739 14.882832905461074
Mg 10.51072545614419 11.455109983940698 15.64684981362766
Mg 9.660823709807126 12.347308222075656 10.802427897651409
Mg 11.225974046275715 13.469187234716149 8.436240394937775
Mg 13.751149786817537 13.96757161806033 9.975567041024386
Mg 10.790983680459556 10.47518996059975 12.818846238438617
Mg 15.293980029891767 11.525174087821014 10.773848906960753
Mg 13.589050061432689 9.375752052568421 12.072808674249966
Mg 12.316974188507007 11.204906845169441 10.146514821053238
