22
Energy = -17.95741795 eV
Mg 13.50910896279463 12.459582219037124 8.16549033040415
Mg 9.033474130054822 10.378273006818768 9.49000455874237
Mg 11.97460958219413 14.346662438802904 9.874091992782617
Mg 10.583907845371854 12.452282231934303 7.907798101643943
Mg 10.062352877424056 7.431151842544934 9.534469373138188
Mg 11.905701929883351 9.77690350972964 8.515866414742742
Mg 14.097037774459503 13.039634355229444 11.730245460726746
Mg 14.421397577078787 10.515717969338132 10.100484733139213
Mg 9.16530588878273 13.336218287068721 10.44174699316281
Mg 11.52789022354073 11.36511050343102 11.244835274719406
Mg 10.748568597195238 6.389821169348896 12.360395147940888
Mg 7.533070930083128 11.313924192821284 11.993024630153101
Mg 9.509509110453987 9.106953887490214 12.232478486797646
Mg 13.32124882929097 16.354839695510762 11.65976649237928
Mg 12.644641585630977 8.441771037755798 11.261382945903108
Mg 8.230473158944674 13.902463923310869 13.288108772693933
Mg 14.523462064526775 10.200686445928271 13.070837981165901
Mg 11.21424332464943 14.01363415834923 12.811703674819887
Mg 9.923817833929533 11.4905539036848 14.054602913142528
Mg 13.88813705344872 15.036340252866603 14.266905162563914
Mg 11.904785771257174 9.150912098526666 14.076928123626434
Mg 12.892458736783896 12.111766658250714 14.534036223390125
