26
Energy = -21.96231637 eV
Mg 7.530864193663525 9.921060629298402 7.712217459607014
Mg 9.27239039279752 7.437248405401056 7.432306385207099
Mg 7.495368973253948 13.089798416916143 11.765747553548024
Mg 9.928934938225874 9.660665916532432 9.953579784846763
Mg 11.621593747457704 12.963052911836522 7.408815394634788
Mg 10.57241882951064 10.184226132365112 6.903575957945969
Mg 8.199751778225089 8.061720754736983 12.326642988682229
Mg 10.331073322036497 6.76087002109708 10.431680007734846
Mg 11.808971722513977 11.418886028962115 14.716948425156016
Mg 12.128542943184575 7.97295406096283 8.175814351324158
Mg 13.85346196484608 9.278827770806467 13.693164229466129
Mg 8.960429174944627 10.847233654301291 13.114337943455627
Mg 14.861312430601346 11.813320305038443 14.58419262587651
Mg 10.993640803684785 8.559266608170864 13.122339740185966
Mg 14.797230604312775 11.379296386952197 11.562619409464464
Mg 6.97462188791758 10.301910936370339 10.782264689946292
Mg 6.624656959765958 12.577112660653185 8.860044447591441
Mg 7.276241394295803 7.485121982541957 9.536251058455598
Mg 8.672580106824693 12.50596083185927 6.720813778622503
Mg 11.806498224223535 11.150363402199197 11.73421157255982
Mg 10.330373783195604 13.55794677836942 12.817430482248074
Mg 13.309959627478339 13.741077394654488 13.105626188313112
Mg 13.016434806503117 10.754791530879219 8.80319348000072
Mg 12.818283726177953 13.52019962310688 10.171183716586535
Mg 13.163395005671982 8.524621724193901 10.878731001546598
Mg 9.729249139619538 12.610745612726527 9.764547807926627
