39
Energy = -36.35487464 eV
Mg 13.402833172925519 10.738200065227497 17.448653720022254
Mg 11.317509348146713 10.838423107249694 15.267815467315664
Mg 9.359172390438303 11.067773348254246 12.904070955454728
Mg 13.05907676306625 12.628938973363686 19.862178727136165
Mg 10.823306766806922 12.529851615139794 17.986943037767603
Mg 13.85543780450151 9.115446798462907 14.908105153309315
Mg 9.245875234433235 13.014606933374747 15.387187665796214
Mg 12.276659447712762 10.172337237924866 12.38627146509325
Mg 16.302192719912195 11.039329439563085 16.314534928007603
Mg 15.180863961966761 9.49833823578772 12.110442818084172
Mg 16.828535857908154 8.794982015227177 14.540124345400297
Mg 8.215433310265015 12.300535796364212 10.384203100070392
Mg 14.854470337000876 13.360565409340914 17.517823817084114
Mg 14.110017871223535 12.078645074564568 14.325950057475376
Mg 11.514731721496394 13.251169758504918 12.88701473612013
Mg 11.179656009578377 11.932005800240287 10.083014650780516
Mg 7.804195669640804 13.737403541018786 12.928085766250687
Mg 12.56645484597066 15.265924077317615 18.567664070117193
Mg 12.202198540884272 14.130132499764704 15.735134479329037
Mg 13.731837373558044 10.213474416290904 9.535829623818843
Mg 12.957269715629883 12.55561907393626 7.613399142224685
Mg 14.100818755746616 12.669362970020508 11.328247313157346
Mg 17.090816703787766 11.57114733616224 13.299702897552304
Mg 15.627394186636243 11.368228168508903 7.484407913665856
Mg 9.931202797759553 15.65768122113524 13.990473651056819
Mg 9.749713255939712 14.836438752875656 10.8597795929916
Mg 16.519781401902236 14.002905657070313 14.983843800359008
Mg 12.554068927194773 14.754383686936084 9.61683029695239
Mg 14.700679485781539 16.062580460634127 16.36071817058772
Mg 14.008822209837495 15.020951709031744 13.372679639689764
Mg 15.542757139015638 14.035641663398957 8.808104943912781
Mg 16.72288409680787 11.440539830616359 10.275173911198355
Mg 12.337911435056235 17.252894164401756 14.869797423547013
Mg 11.938189237400872 16.679498964336126 11.840077954842679
Mg 16.806559256268148 14.192094465860867 11.814535529805491
Mg 14.955527132642615 16.357896208594884 10.672679657319746
Mg 16.47995807560002 16.786006070463895 13.448887504324366
Mg 14.99825232731567 18.769050132789154 15.278885457800614
Mg 14.17705162592972 18.52727265372603 12.516267518787835
