33
Energy = -28.48782621 eV
Mg 13.5973995607933 11.980712998438044 9.299823520013721
Mg 9.624040305105513 14.77007651189499 11.252188788781046
Mg 7.787721070848539 9.036561312609816 11.065745417286319
Mg 10.272406844762415 13.090267461866052 8.824982968290842
Mg 8.022542898889302 7.725313316867629 8.351332028602977
Mg 13.73494961599016 10.29254147656566 11.873355434957153
Mg 14.494244486031656 14.889173512098768 14.618100589153878
Mg 10.992205589618132 10.872226710762963 16.254678477202052
Mg 10.550913071216504 6.7880900730618015 9.732292028807542
Mg 10.675751090606816 9.977420762265346 10.128824683200394
Mg 14.450405943914822 13.338367485031188 11.992631755951834
Mg 8.39222164666193 12.07240820168851 10.884548585095832
Mg 12.879013094341952 12.182735393018932 14.370313934291147
Mg 9.999347127872689 7.982918407225102 15.402189535479938
Mg 8.634024348133092 10.626362533733447 8.024281018480256
Mg 12.74569799109883 9.15368570911071 14.465463950625306
Mg 11.794340854035424 10.974919538578261 7.063223603576211
Mg 11.4981757276258 12.38027865833237 11.655639321643699
Mg 15.82374642156256 14.326831136836057 9.572835866459997
Mg 8.169263902087394 10.50621177156121 15.833558186059772
Mg 9.489527146476107 6.750462662165164 12.632790986118959
Mg 15.268451449964275 13.205035048922174 6.823652402553486
Mg 13.104168417307859 8.839935547416351 9.012674138331347
Mg 9.513547416108649 12.900935394635628 13.961137372273198
Mg 7.336319748681383 8.22965825015822 14.031852759814518
Mg 10.081865242744328 10.021317290281166 13.073379077975744
Mg 14.454498754035468 15.995879495789207 7.556365909870332
Mg 6.986412498302166 11.112282390253887 13.228175478268664
Mg 12.361101622067842 14.004874996777012 6.957713201067167
Mg 12.252992019494878 7.784613219665066 11.905609460802943
Mg 12.59016358222912 14.981206497649971 10.075602916342573
Mg 10.641908127874165 8.279436380387198 7.0759294878013375
Mg 11.90864466980984 15.055272140646759 13.127119401113667
