39
Energy = -36.76253977 eV
Mg 11.147723085650247 12.741607300452081 7.039580900374918
Mg 13.944428109373769 13.133750194871105 8.175186512993134
Mg 11.726325481076167 15.396087912336347 8.18939088681535
Mg 15.549849477022734 10.65777345153023 8.935307106472132
Mg 9.597302810477814 10.761424200419134 8.6576476334625
Mg 12.51990705129569 10.333587238406857 8.560873891114733
Mg 9.213667920363388 14.026967872839498 9.126633106906095
Mg 13.889888600695631 15.421803094553715 10.313128492993586
Mg 15.943417085385782 13.262334278397484 10.632270721929888
Mg 11.75469202416829 12.785355528496675 10.251802198287516
Mg 7.9443786935731975 8.723216187806669 10.084753997744922
Mg 14.044117402761435 8.194302423500226 10.229621820521636
Mg 16.995951778166518 10.573449658988679 11.665614909574488
Mg 10.963043183209411 7.861400849013767 9.790652671423977
Mg 11.053890255220038 15.544936548564154 11.255202258305834
Mg 13.86567203584875 10.969821589158748 11.349542244669147
Mg 8.39655490526128 11.746812533632665 11.172757946733418
Mg 10.954596880438427 10.183456422528801 11.599295587918025
Mg 16.052624406020488 15.835212103563222 12.411758231251909
Mg 13.613762528933362 13.51497497851332 12.797797744987598
Mg 10.77608383296133 12.896045188529243 13.093590494484705
Mg 9.169278950844069 7.75764729093132 12.614635604047093
Mg 8.348584609633015 14.588417441947053 12.309366536727461
Mg 6.628976871496368 9.467270331261012 12.599981562502261
Mg 9.069940621778699 10.580595343445955 14.068741090530285
Mg 17.665959253223786 13.47369284796469 13.127176488934094
Mg 12.704668273614734 10.628216451313898 14.061845459096313
Mg 15.616582974522338 11.530915115863976 14.106641037642882
Mg 10.220785682610936 16.178697994875737 14.076272596087632
Mg 13.202959961001808 16.407609398762034 13.456517584192602
Mg 15.077909348812081 8.61234492078508 13.120526109070974
Mg 6.64901823784367 12.366934831800409 13.615620243086232
Mg 12.330512858125147 7.525617807447535 12.595142919499281
Mg 10.922334262661215 8.446752269765183 15.06645718483854
Mg 12.077469605926415 14.421795982071687 15.547535481902832
Mg 8.84487849802674 13.710087524471534 15.281200891203493
Mg 15.431102848211582 14.527947939315563 15.034842459531482
Mg 10.905618779827861 11.612205138262746 16.257845890585653
Mg 13.864752874451 12.278143874126663 16.406453562070084
