37
Energy = -34.74937908 eV
Mg 11.786991951880264 9.180054551752423 7.650449081635955
Mg 13.324386333298051 14.264405370360645 7.9076637796523315
Mg 14.027969739135289 11.048416292265129 8.41779624552448
Mg 11.54881302400527 12.106928066428738 7.053189407365274
Mg 15.334224406032574 16.057685565499977 9.204798062425361
Mg 12.07575769387013 8.902527993284401 10.6110411071526
Mg 9.714888536380519 10.816532148528744 9.120777101247816
Mg 15.08307273781269 13.218903044775915 10.249572619626974
Mg 12.480175160136278 15.084217995091624 10.797227651229385
Mg 14.684162977531539 10.396501895922764 11.439056457029196
Mg 12.095134198868548 12.016002285379457 10.603937606304845
Mg 10.266815298505376 13.930909179511886 8.994197873923971
Mg 11.04271906151029 7.306498963694519 12.984350395518684
Mg 17.406765809723677 15.020517521164344 11.178622899136528
Mg 14.897583260414741 16.095345896184543 12.352501779414032
Mg 13.89761388795313 7.859463873919161 12.975279772714288
Mg 9.469105982532948 9.849348087717587 11.942096792521326
Mg 8.394804576698586 12.652913194561174 11.132742962897513
Mg 16.82425721385703 12.23863152446967 12.762194159240186
Mg 7.478351772305459 14.403419695493934 13.454430621553449
Mg 13.903978394845318 13.17478318793338 13.048867997473888
Mg 9.476908552482147 15.596350149198296 11.46366490790608
Mg 15.229685890424413 10.112912895465634 14.453365701071334
Mg 9.463259367300507 8.849754917229701 14.853625042448575
Mg 11.958519803358172 15.906428816853092 13.77900142792905
Mg 12.188605035549264 10.617777899094897 13.469688243170303
Mg 10.766516213185644 13.237196735250627 13.019933551849054
Mg 12.425499148790424 8.401061279963924 15.623939449422412
Mg 17.131374823070765 14.809355206848743 14.12263217615074
Mg 9.107473114779129 16.649580905324505 14.310036375240065
Mg 8.394841548525006 11.606071571455555 14.19595486104494
Mg 15.674834677628086 12.764956985581287 15.783287253982909
Mg 9.532077637029937 14.023358736671568 15.745228127181875
Mg 14.549131329418326 15.575243492342532 15.301635328232887
Mg 13.696629193327206 10.804793755388232 16.88867185569865
Mg 12.549141057836954 13.37363058493755 15.760526966976329
Mg 10.737571985936224 11.069420696199439 16.26083106786181
