37
Energy = -34.39195866 eV
Mg 11.598911860605712 13.77288520727033 6.1326264718739285
Mg 14.184601330357268 13.601466952031029 7.699398641039714
Mg 12.362697596833737 11.066543085146538 6.784982616156212
Mg 9.947511852653093 12.23554832733753 8.15825367657747
Mg 14.381920428592409 10.531902067418555 8.905413074652774
Mg 11.389269020576824 9.67320622155831 9.53385570500103
Mg 15.933573123349152 13.039514809063931 10.065873991356915
Mg 11.533632729525111 15.229759681087238 8.670880154352503
Mg 9.86253145026905 13.770821613467199 10.85084056462344
Mg 13.951158643292313 15.377931918945674 10.596261626896078
Mg 8.72695976667009 10.657996161472415 10.567683132428108
Mg 12.461064575291223 12.602765639794347 9.991760545759936
Mg 13.394310279672041 9.098508924442491 11.71219477957847
Mg 16.355463967891204 10.030091491160556 10.958088753293339
Mg 11.227893914473734 16.660871225577402 11.432555761757031
Mg 17.21609413171023 12.173563026328042 12.80741158404449
Mg 7.3941203692841055 12.899773312431293 12.208184049394642
Mg 11.117993606812616 11.355968910203563 12.440193611791441
Mg 14.213584540604572 11.971252931642782 12.240821550961975
Mg 8.758456466970879 15.67151888150887 12.8952080086859
Mg 12.175599651366555 14.092770814492512 12.924655595336118
Mg 10.380111987580825 8.529185615603883 12.539046408169776
Mg 8.01906126845151 10.300356491945156 13.491107353861256
Mg 15.491600347667898 9.8158749459793 13.952015111740929
Mg 13.442405247545002 16.90142388519593 13.462466456111104
Mg 15.442370576729202 14.625711826282526 13.170912172171477
Mg 15.859616162171742 12.53652029102855 15.455528433411164
Mg 9.478103505299975 13.130212112794776 14.402817032970042
Mg 12.940681544125816 11.817425683961016 14.879163598116344
Mg 12.72128346814761 8.762409947702322 14.770629430491805
Mg 10.219839977259076 10.370837621573703 15.3980143281924
Mg 10.896853172739872 15.928474292097262 15.010064092509934
Mg 13.68975344564783 14.803659316519543 15.686140917951503
Mg 14.947213569634522 9.92031260860317 16.878758049757188
Mg 14.039667304699876 12.62221763695565 17.943138338215388
Mg 11.230392096108671 13.25124885667195 16.83499916503651
Mg 12.176188540581812 10.331959185897817 17.710546736925348
