34
Energy = -30.07440085 eV
Mg 11.692734687491216 14.243933862349323 11.025143040035003
Mg 16.581041203436985 12.104261599665742 17.91867015727233
Mg 18.55534160661996 16.975933322804842 17.58798027202564
Mg 12.497432930733423 16.251053967226323 18.07285285454514
Mg 11.758139401508892 11.509459908968228 12.103087622963898
Mg 15.32665129384823 15.353399721737349 14.333236910621793
Mg 16.64006518886824 14.87134068628543 19.12678096393364
Mg 14.22773661424721 14.148454591055563 16.748840026029335
Mg 0.052330934991740116 18.435251236702086 13.343918275360549
Mg 16.850692004921864 19.50925374779572 16.20641254033163
Mg 10.598447956748982 16.172649407279525 13.087680423181586
Mg 12.780533632637631 16.85005627412689 15.13092068750523
Mg 14.884937138211706 13.461059253408003 11.983669629139218
Mg 14.317234785604672 12.992802560098891 19.698783138162785
Mg 13.880536599652059 19.191294354727976 16.73236715615009
Mg 17.836533109485362 14.1180245904166 13.148624065693149
Mg 10.580884619188895 14.862388843478382 15.92506030833701
Mg 15.999467176809322 12.313598391575477 14.837458929035632
Mg 16.509851830741958 16.666642621589336 11.77773387089256
Mg 11.142311231421981 11.723237755567766 15.47681018263504
Mg 17.691428344553586 16.93165978093907 14.6954769546798
Mg 11.66722950189813 13.163214043846933 18.118263651195335
Mg 13.7710403782829 11.142664301421675 17.001712568127456
Mg 15.093152672178867 18.516996143092282 13.87231290683391
Mg 13.718290995567816 10.637659832041322 14.038200266781029
Mg 19.81779313305811 19.121652158192894 15.827490152829588
Mg 15.56205422936429 16.840415651527515 17.12548108103664
Mg 18.08849030864683 19.280514592512308 13.083623166663472
Mg 20.38135837751684 15.936935620750424 15.044060050513817
Mg 19.497689984554484 16.39502260958522 12.073940382322423
Mg 9.68746065314113 13.34909957601261 13.297348593153226
Mg 12.772460064880274 13.833144761739955 14.061701143624413
Mg 17.784115273675912 14.299190391331896 16.272592132104982
Mg 13.48038982204038 16.413577890170913 12.08269547419783
