35
Energy = -32.03918205 eV
Mg 15.267633496944837 12.90870452234912 8.8402476048993
Mg 13.257359261835603 13.03330501264944 6.601829291487454
Mg 13.39349377454271 10.441121056042252 8.109758546866553
Mg 11.381672840483194 10.720792169771553 5.810256019245958
Mg 15.35537767341061 10.283088341508725 10.501670238230357
Mg 12.375227665499787 9.076043758825763 10.633364126944473
Mg 17.16419512210138 12.6205616698822 11.21509743800602
Mg 14.331425138632744 8.770563759448937 12.94131291625214
Mg 12.782264690371523 14.863195093693765 8.944105266779001
Mg 10.684755434742955 12.599029432781316 8.077644913162159
Mg 10.36315087583142 9.353615340917784 8.196321266923457
Mg 12.698564478449349 12.218865096396268 10.58901668885453
Mg 11.19265734485675 7.693355572820531 13.120478925054995
Mg 14.693953597680695 11.856723358426112 13.000714506313964
Mg 13.20965173747543 7.436199336009892 15.359592127710215
Mg 16.643205117849845 14.24627778423071 13.668024892445473
Mg 9.335437820411403 8.109863604814892 10.775032791722134
Mg 11.678999374416192 10.806501899037865 13.128998969879945
Mg 14.63364384423729 14.625049641290593 11.348591737815285
Mg 9.736146588413959 11.104017771057537 10.638861218110439
Mg 13.904785046194489 10.319175535671619 15.534810262496253
Mg 10.769257319995349 9.299928948871607 15.639200302017196
Mg 10.231428093297232 14.217498217701936 10.556085677232115
Mg 14.480850518420374 13.34365682681157 15.581662072918043
Mg 8.701313585519282 9.616477792307526 13.274790382425117
Mg 11.973077126173783 13.834504521551793 13.253367077080995
Mg 12.102715815770086 16.39817838169596 11.569768317902714
Mg 11.56683548784587 12.276437318403826 15.947438660859518
Mg 8.660263240253574 11.533073186057704 15.563551315324299
Mg 8.875427157352572 12.81789240427406 12.927740594605968
Mg 14.065931302650423 16.009243599707546 14.01749829040385
Mg 9.098510879777207 15.966389235856948 12.695422706358096
Mg 12.27733523516246 15.170032160587233 16.390722059134276
Mg 9.47715397117165 14.587407068206291 15.340399555204801
Mg 11.158875174433193 17.045526452870547 14.41520514721696
