34
Energy = -30.03450431 eV
Mg 18.77883503335557 9.793882955662266 16.061226525457613
Mg 11.36341201656924 18.689675349073262 14.7046621776378
Mg 11.304601586891765 12.852757503090885 16.02240280967856
Mg 17.11350014298165 17.029497000940893 19.06449866011297
Mg 14.020302891023364 16.63629410211659 15.288192174255013
Mg 16.52358824660818 9.880611092673641 13.947816781388644
Mg 14.118819311358076 13.842545780633472 16.74317488772056
Mg 19.105038770783864 16.02346649222724 16.956286758840594
Mg 10.99057728535562 15.746745246377717 15.167284730737602
Mg 16.68217423727851 17.954241751667222 16.2504476657517
Mg 13.116832710623855 19.860556347614942 12.646780834969192
Mg 11.466605876089686 14.972162610627786 18.128218740250706
Mg 16.532938112957154 12.220598931729604 16.05110405010038
Mg 18.633169822014555 17.325610492766433 13.843660757442754
Mg 17.741834976527056 11.031275413524277 18.57186066463054
Mg 18.087789709707756 14.671424908207477 12.237273180149684
Mg 12.419869952269064 16.8707123085265 12.556464495759423
Mg 13.901714672006488 11.176469886115335 15.049208555507297
Mg 16.759703492078604 15.042510122007737 15.066565332091358
Mg 15.830560835072184 9.330807025368449 16.804060241034744
Mg 15.775173203755022 12.71636927187242 13.028773653948393
Mg 16.91406128427084 14.196102719198107 18.269282213131767
Mg 13.972609652275585 19.799348147353783 15.633953853445405
Mg 14.503982542877022 18.1349672749718 10.594509710081539
Mg 15.245633899735237 15.58392900930487 12.281263744895409
Mg 15.78233261641881 18.466896492545505 13.440872521692555
Mg 13.12325167431818 13.995253784054823 13.777292700138204
Mg 19.388309616801198 12.934033044022502 16.80452022826255
Mg 14.854299869769447 19.002814697434076 18.396618149046713
Mg 20.092912897033564 14.74885788445983 14.500538255498906
Mg 14.279221921947418 16.033667055156826 18.76235695626905
Mg 18.69562890236018 12.119459399388573 13.87992325535871
Mg 17.473568237021148 17.50047009355427 11.060133859899333
Mg 12.178335167613994 17.853311651361686 17.495768925327464
