30
Energy = -26.97874059 eV
Mg 18.486187074685546 13.048822034197938 16.44451867444261
Mg 9.833569848763794 11.729384852205905 13.315096895718584
Mg 11.708367314554764 16.07452479395814 15.33618773915825
Mg 14.136744432855826 18.095236124822776 11.330216374932666
Mg 12.591769468321527 10.245383716668202 12.7005318387706
Mg 17.44959687557721 17.459912376496685 16.190320744780173
Mg 11.72212817944359 16.43610909072444 12.212794389008112
Mg 17.804810995785886 15.312421091043477 14.046597025166857
Mg 14.399345751631747 17.235807552828 16.440984014614415
Mg 12.739755534426921 11.589454218466107 17.68442859788727
Mg 14.541964509721584 15.631218257302582 13.774694694637192
Mg 12.995348762929208 18.54892387032968 14.044056993139558
Mg 10.690671017317168 13.235192943721055 16.071773088814393
Mg 16.67387726514907 16.52099123100596 11.404238605779046
Mg 15.826019648329185 10.706219375189479 12.849388596005275
Mg 11.252860280387798 10.31669435545246 15.44158418353057
Mg 17.383540217659508 10.36091117942345 15.588057540307403
Mg 13.502999902852963 14.313644947421048 16.8763537405551
Mg 12.89475954087513 13.072796368612174 13.93169113224615
Mg 18.51255062887759 12.26061883805381 13.562679068369766
Mg 16.403078912673912 13.573280793611904 11.861642696236279
Mg 13.996508439631025 15.065105537642095 10.733348761777114
Mg 11.356505277337398 13.395606515372734 11.301514123305326
Mg 9.677120892529144 14.65054324267386 13.577760204609795
Mg 16.007683905179945 18.358639481273666 13.74803144068651
Mg 15.708725707014079 13.079073883561447 14.842870161117853
Mg 15.729696006929746 11.979677329755852 17.66549582562563
Mg 16.342366975251117 15.009468757410856 17.29037766892132
Mg 14.294667187441814 10.25691492443787 15.40986352683311
Mg 14.03388191459943 12.082730298033875 10.909846233790413
