37
Energy = -34.73475696 eV
Mg 12.638489446087142 14.13259589971379 18.25958455859218
Mg 15.346814322931738 15.157555274307411 17.370099922117355
Mg 12.86008393669622 15.949468665754624 15.50182538243236
Mg 14.952248224651258 12.346309374149252 18.209510730457257
Mg 10.615025490279187 13.842349337020384 16.148103898513643
Mg 12.136681420315355 11.025406141675052 16.410317335171143
Mg 10.288490529130224 16.346837089826067 14.085560676496053
Mg 13.679489230273017 17.486886473969363 12.950710006245773
Mg 15.689657641367324 15.599263011679833 14.360373408525541
Mg 13.7947730183415 13.174525707409092 15.233951940726806
Mg 11.076581876829456 17.790782878710782 11.429145945981569
Mg 16.928615406539034 13.146641328773793 15.617769964003632
Mg 8.556391146103866 10.78331704250158 12.68585086031976
Mg 15.37867700959235 10.52155837355431 15.95317415582826
Mg 15.825101109459297 15.732867754007875 11.321191049254526
Mg 9.19167632573216 11.161953083659396 15.64490041199925
Mg 9.03224849104713 15.639308039073786 11.524040581409139
Mg 12.35484204874589 14.784723767483731 12.341139435156212
Mg 13.537350525445357 17.114496890853538 9.911539690304533
Mg 11.41400391395636 12.306556363239677 13.59650153482325
Mg 11.254216567669735 15.091871893185369 9.512645931356648
Mg 8.662103755743447 13.641915839960438 13.816903758937292
Mg 14.779550449604793 13.14260355696857 12.535515618021849
Mg 17.808924630708795 13.901134538864673 12.839500570721505
Mg 16.792241276765147 11.067712255862764 13.175269068997215
Mg 10.909863441385076 9.338142226131978 13.74748987643446
Mg 13.763891360217732 10.351706964014674 13.537834568874842
Mg 16.699759955654663 12.523588460359926 10.261105736494507
Mg 14.07603474407071 14.044084475107484 9.51706540904773
Mg 9.908355706172538 12.83241551099704 10.954258738605573
Mg 12.749352122890793 11.686302535099369 11.005923707825854
Mg 15.264112508076124 9.922705627187735 10.691801493778398
Mg 12.705339673410165 8.404329993239225 11.422182538149375
Mg 10.299834388569849 9.901187551811805 10.378754803788107
Mg 14.743183740920696 11.42461876235425 8.165828507165411
Mg 11.663301254992932 12.037916535115832 8.29299527690322
Mg 12.754536688890719 9.32493177955706 8.565826373178249
