36
Energy = -33.29685466 eV
Mg 11.357458350509598 12.96998543751539 6.143145399506084
Mg 13.909456653473551 12.737164316242382 7.86093267167082
Mg 12.872825072516642 10.339828293575701 6.314039865682431
Mg 10.258257375639513 10.621522024014466 7.639689197891294
Mg 8.695194759578657 8.187968268719915 8.352296790378816
Mg 9.343835058447983 13.619782348101134 8.403607512227811
Mg 11.995086347397203 15.154215982031245 7.968145823216511
Mg 11.715638491804818 7.883723569633476 7.796945831776046
Mg 15.193050232112228 12.143995731408586 10.600098622116578
Mg 11.651196236944301 12.242256047036324 10.009845245751977
Mg 8.236896276868007 11.063441956641093 9.81985521648677
Mg 13.982352989599576 14.884055656032407 10.175706825629579
Mg 8.776731720923287 13.50919388473841 11.488935782776451
Mg 10.13215977565323 6.10707795787481 9.691025013964875
Mg 13.671707401084769 9.811966672873604 9.114000985958105
Mg 11.091161315143529 15.403300792086526 10.758656827252816
Mg 10.761041138318438 9.341667605104925 10.549570336528317
Mg 8.06298098279885 8.083954426647905 11.280889198112687
Mg 12.830316610981349 13.075015266265025 12.607021660642769
Mg 12.805346640546597 7.181270470968795 10.825677547908226
Mg 10.327106257831668 6.4920494161697615 12.560877836823202
Mg 15.862221824068587 14.463873509286762 12.537249634192952
Mg 13.513288724871828 10.07647607352377 12.08579720234341
Mg 8.818609785385013 8.569501255961214 14.152705747388538
Mg 10.4639796089449 11.260901706897357 12.863090231949178
Mg 7.287855944125681 10.9369041578996 12.656811103561669
Mg 15.854657496104219 11.654480065133907 13.537987287519977
Mg 11.817458284302116 8.5657539488926 14.044930308655628
Mg 10.226853463333775 15.298175925476393 13.533927470998886
Mg 13.231035039011713 15.90739239870614 13.174621262015101
Mg 14.577354633118865 13.867215777701748 15.156317405241879
Mg 13.318293631935573 11.035854376457186 15.059928643279159
Mg 7.297110390581143 10.656447141311643 15.63759216975692
Mg 10.318215919303029 10.657043480714155 15.865479225206949
Mg 11.541396480056786 13.465887375958703 15.428705075375888
Mg 8.61287677692802 13.14166437264248 14.714900730456423
