37
Energy = -34.28128927 eV
Mg 10.790860169237064 6.343407949917864 9.343984016638796
Mg 10.134656552388169 9.202691905250692 8.80352078133914
Mg 9.65066349243536 12.070124424058896 8.262976543623965
Mg 13.261271061607319 7.9167665538171805 9.642943783741869
Mg 8.701078988833597 7.934881958071845 10.988712652789257
Mg 8.788210531114283 11.266593828313832 11.077992459645591
Mg 12.567231097622312 11.02482590227935 8.491082188596705
Mg 11.540909836165175 7.214485007517953 12.224138329737238
Mg 11.445824504197114 16.45448857333291 9.138242918338433
Mg 7.530604225035848 11.494568800135038 14.055747704720302
Mg 9.177649973521474 14.546150612361735 9.883114791622024
Mg 15.001962643845209 10.493506803515182 10.342869830820838
Mg 11.856233044308054 13.942403954511057 7.638656611967734
Mg 11.813810064533067 10.111678225869836 11.325688935096741
Mg 9.273794795414865 9.072328530869353 13.581639084526257
Mg 14.551805911366232 13.154632539904787 9.094610866535442
Mg 14.44858827911163 8.537576985735395 12.55096717645271
Mg 11.695269885178135 13.087858605290833 10.817043885114554
Mg 16.94468535182859 10.190920828390551 12.669710808981652
Mg 13.788071875498927 11.918639695456468 12.860675633602527
Mg 10.601492462587602 11.762826655436346 13.48387643682441
Mg 14.152949054806895 15.857842758085516 8.016007385637513
Mg 12.22982070527735 9.351073504692469 14.34879869763185
Mg 8.788422060683285 14.124043070771158 12.919292278309413
Mg 13.7030105331551 15.282914434182736 11.102036063496522
Mg 14.932517269848551 10.311883037470668 15.168253154901635
Mg 16.329549058612955 13.099046821245443 11.48368295238787
Mg 10.817700487505387 16.14635192228564 11.999868438490246
Mg 12.113992516719986 14.199165146729444 13.8217450664005
Mg 16.831280501993845 12.489335850085425 14.421684773464309
Mg 9.130914378861835 13.282968778399082 15.861762579077137
Mg 11.812953865244882 11.678059641751904 16.18863283179794
Mg 15.116932388392135 14.916320371748094 13.673473274799456
Mg 10.061074691547818 16.080927641896412 15.042660657931329
Mg 14.264606254521377 13.308659842900939 15.975316370533708
Mg 11.537258509558075 14.527776792873452 17.122939937031045
Mg 13.243200241828513 16.463843899120672 15.629050585777598
