31
Energy = -27.54490801 eV
Mg 8.922841532605702 8.974218980668079 13.338995263646474
Mg 13.486577677530995 6.284047408365046 13.117037073598029
Mg 13.307447083594786 11.125195770901282 14.644778290300344
Mg 13.980333530585542 10.482509992782877 10.089399489734344
Mg 9.010025319821782 9.844948806606878 7.519475584159728
Mg 7.4562019940705175 10.55748459378757 11.1764249553755
Mg 14.35183917922461 13.938954832328047 14.517465946659584
Mg 10.433468797696811 10.807351590284712 15.267462309299262
Mg 6.6958115975709225 11.693517246657805 8.418475036946743
Mg 10.184798678470003 11.476499100485563 10.015269205717173
Mg 11.95683748981548 8.22747216562758 14.809974718047638
Mg 15.394273549359461 11.914701593085509 12.449189642847756
Mg 11.634587373200924 9.956915782772365 12.1992346874888
Mg 12.455519341822098 12.62039103916212 8.441492710434
Mg 9.365385926261387 12.192031563049964 12.89764689666887
Mg 9.610856768478916 8.358609403233011 10.1964671573455
Mg 14.597825019531955 8.990639521233712 12.761527608296339
Mg 13.072959504173857 15.430999460007946 10.117854153207725
Mg 7.935703913901348 13.57038905098551 10.449340937609794
Mg 10.11825331646626 15.085657077349465 12.113194622673184
Mg 9.238922944863535 12.806231665321064 7.320209256189323
Mg 10.373797585546864 14.809574898842284 9.146748739973544
Mg 15.359871793913577 15.046547937524743 11.995358438236284
Mg 15.146096405517095 13.26439259374425 9.673642735911494
Mg 12.726604733304423 16.024810002398016 13.190549153811645
Mg 10.652944412844489 6.7024801433614 12.51013732391232
Mg 11.338366441076571 13.636334360123449 14.658796039022944
Mg 6.589717333934327 8.654157724883929 8.919570302287427
Mg 11.874699685423778 9.522557946343825 8.281914315984684
Mg 12.770590611060396 7.627808550403408 10.462439972512035
Mg 12.438660665842765 12.854389405189924 11.781747639612359
