30
Energy = -26.47249789 eV
Mg 12.532965330138225 10.179499760661576 6.454667932958624
Mg 9.50941265067233 10.507629441164502 6.53995003936659
Mg 10.854496525863517 7.807528696305999 7.122604925815996
Mg 11.469460481080022 12.913338945316443 7.287441010011783
Mg 8.528870617174563 13.245503515435656 7.378377179668075
Mg 6.764020088966406 10.936298864639715 7.962858416372515
Mg 8.33333322190564 8.460574926831972 8.64007095886421
Mg 13.431915089858855 8.202117413630706 8.685553003276771
Mg 13.25609375193558 11.316016630105892 9.068825379778913
Mg 10.00247290668099 14.631983341606269 9.541206739022247
Mg 13.0304037728803 14.23341147634578 9.539900905073516
Mg 9.798850571217784 11.293196460439086 9.766365741211738
Mg 10.77715666969979 7.35454473741001 10.056390059227576
Mg 7.137402963036219 13.220972964257177 10.068045585604507
Mg 15.115694508089923 9.708186947100783 10.71402888438641
Mg 6.8551596337076175 10.157341053786594 10.861496317336135
Mg 8.121127971694774 7.516582526390702 11.45638356723213
Mg 14.2391268745389 12.477103261020382 11.716844274672296
Mg 11.628616579981994 10.182961074720263 11.757366624350242
Mg 13.347174703885056 7.455543745992094 11.726454786927334
Mg 11.45185751537184 13.673980703061797 11.99151915717249
Mg 8.665431905496979 14.633739368957494 12.275679727169582
Mg 6.992082211772369 12.28683632944041 12.991636096629065
Mg 10.604585881608989 7.489933581955863 13.10364680641879
Mg 8.673021092547154 9.863898064838164 13.25176225457436
Mg 14.126414979234736 9.925600641414997 13.566244115076785
Mg 9.699663038748783 12.571549400915648 14.35515331422706
Mg 12.737459662550105 12.48782086690028 14.384716671390771
Mg 13.078205788355655 7.3829955789219355 14.83305546396554
Mg 11.252227927244455 9.898014596371668 14.916458978157953
