30
Energy = -25.96167397 eV
Mg 12.026104227399413 10.693998648720992 6.776930943840369
Mg 14.680027400905185 10.151303913111017 8.073783843383472
Mg 12.808051276331351 12.250344874446442 9.318891214952039
Mg 9.956347678257739 12.240512378322185 8.296814129353704
Mg 9.523365056484682 9.219851658784977 7.689699645827075
Mg 12.193510774938739 8.405481183907504 8.7439489494628
Mg 11.319091709843976 14.83926864662343 9.881471688649924
Mg 13.998371999869287 9.457802857724353 10.93897728181908
Mg 7.847637825957622 10.481077048679666 9.708678136695609
Mg 9.074842454845676 12.963851884098181 11.058356217439163
Mg 15.54813447033237 12.186530909375769 10.476544399090846
Mg 11.034087109961346 10.358525988198576 10.839604297168346
Mg 9.256215524682709 7.874596289223648 10.438535933450169
Mg 14.337442967949148 15.015225838647195 10.062262808385867
Mg 12.05810693686048 7.03522536088136 11.35739103094485
Mg 12.111299070004746 13.05013643590248 12.22262788873365
Mg 8.502842429326618 10.243813603472999 12.570765114299807
Mg 15.441401135411756 14.266670842096298 12.647120596674862
Mg 12.895085491012226 16.005554038967333 12.534881042933653
Mg 10.077576526853775 7.771568754198297 13.343754409424248
Mg 9.88783082571416 15.641030900049984 12.33716713525606
Mg 14.492287774677939 11.342959684180748 13.268835492080479
Mg 13.095892140296362 8.557206194469488 13.772876741954322
Mg 11.158747691532806 10.770163893034065 13.927145967396296
Mg 9.282597426091082 13.163079276068663 14.03112791502976
Mg 13.537357755776593 13.745047922029212 14.869009615526144
Mg 11.060859755889902 15.494677028581322 14.988077222931436
Mg 13.416673708079722 10.850746748043866 16.047892474885955
Mg 11.113298718393272 12.731326286609578 16.352227790090623
Mg 12.213994068717563 17.14150284394863 17.37368200471631
