35
Energy = -32.18825377 eV
Mg 7.753388639863552 12.52984434594665 14.658669851634592
Mg 10.328075863489365 13.386336926065432 15.929166362318766
Mg 12.709407275332849 11.56293656609899 15.34764089466192
Mg 9.629438163963014 10.377983348252238 15.673596351883415
Mg 14.807816072348187 13.948788350854665 15.62936994190684
Mg 12.171368050657703 14.715960621293396 13.766206647654297
Mg 11.982633042981501 8.65486147949906 15.017573611467498
Mg 9.214948659472778 14.826863313210735 13.539129222175907
Mg 15.873392738738588 11.101373773479189 14.938157064533298
Mg 7.90876939643041 13.084842261798698 11.491707419002656
Mg 13.951894869398132 9.653800161874237 13.036778262313053
Mg 10.834145175881387 11.876345521859848 13.02931437035245
Mg 11.400333928298284 8.977429089747801 11.86620444373756
Mg 9.376591964929402 7.845761253545608 13.93038015080249
Mg 14.14133619876438 12.692443493499946 12.817559530664127
Mg 17.2490584644672 13.484099189302103 13.951268037673438
Mg 15.157606921393615 15.628644453980057 13.198557817535926
Mg 7.33923512628607 11.523927678967944 7.035107811713502
Mg 10.386267967834076 11.19782836102783 6.9699209986470585
Mg 13.275046563185112 10.72382515090633 7.471098850066926
Mg 8.44905963356695 8.846524884389922 7.705444202136659
Mg 15.08846735983181 12.331486015501223 9.162429443131854
Mg 12.158908603934087 13.471201250850381 8.207062251417385
Mg 11.367306007891761 8.776945076290067 8.692970560233983
Mg 9.02753592035814 13.586137577166957 8.4299235320686
Mg 16.453238983807406 11.033205505309583 11.751674155818712
Mg 6.845184102029032 10.44652317038534 9.75497567633901
Mg 14.340535835488078 9.282314610850179 9.970984705694416
Mg 9.772065160518203 11.095290710690776 10.049515244961936
Mg 8.831753567121764 8.085881469824987 10.614248428982501
Mg 8.271336248692796 10.294308278510377 12.68279432075157
Mg 12.569635736469358 11.580386769285601 10.590441033303703
Mg 16.568049722812347 14.007561657567123 11.111393224970136
Mg 13.646906436062078 14.775133362738167 10.617334784634938
Mg 10.715604698434573 14.189547420162047 10.957743895543206
