32
Energy = -28.71974369 eV
Mg 9.287129905168554 6.651366755526178 12.691716325080698
Mg 7.084819266244823 9.542836023822916 11.93204826906114
Mg 11.165973545592111 14.584167968740626 9.20520240621808
Mg 8.315564248809745 13.51063030723992 8.624735993412207
Mg 8.55364893110797 10.596900247466994 9.423684011988662
Mg 10.191098161652672 9.578250941331602 12.150358255084225
Mg 12.270863256836268 7.588825360950726 13.431672370409814
Mg 13.089516347301908 13.09161100609384 11.795959242154925
Mg 13.717095347236471 12.702313728062757 8.72424157506709
Mg 15.245873672516632 11.232312080977566 11.130737036982543
Mg 13.349217900121788 7.781547327470757 8.239008630141663
Mg 7.1148669286917094 12.700753107241628 11.329889860269507
Mg 8.552027142037678 7.660078198879343 9.931095305359543
Mg 10.245290293676097 6.943378725865575 15.540732191780258
Mg 10.512727273943565 8.83407852777027 7.940986561201491
Mg 12.173690526733813 10.392584987737894 10.059260867533697
Mg 8.564792567864576 15.519085698894168 10.730160443165436
Mg 8.449277888435935 11.489152276394437 13.954001759630692
Mg 13.931011634957404 15.599013658467312 10.494762870975043
Mg 13.086959347138514 10.501136942838652 13.195970994274608
Mg 15.376117185745738 9.928662449927481 8.54339502663547
Mg 14.281997193504719 8.333316367593842 11.147300632052218
Mg 11.251515796249446 12.76252877492733 14.172136987032372
Mg 10.173226754449626 12.470434057346903 11.251381152340102
Mg 13.016195993513076 10.333366763092668 6.767935592520861
Mg 8.005244971352951 8.59874327890404 14.650510553543509
Mg 10.828976088593253 9.903407506798336 15.189198073831715
Mg 11.445286855055665 7.132741926681755 10.489966366205179
Mg 10.698909407076188 11.97817554347247 7.65259893379392
Mg 13.606927765622364 15.749527119766551 7.495945550731049
Mg 11.241991528871253 15.457495118053098 12.20856149480014
Mg 8.742732101745837 14.422143049511343 13.475410494570655
