30
Energy = -26.24093482 eV
Mg 6.731203269266869 9.547966317535323 9.975583368238143
Mg 8.81754013845159 13.958974786255444 12.713099033295086
Mg 11.81099129188648 10.228422272167325 15.319743066256736
Mg 6.354082032125562 12.847882222097805 14.12788522758953
Mg 7.19100530534683 10.030174950593615 12.911100659590836
Mg 15.884403506774847 13.37575651113769 9.842841821469158
Mg 8.950660208179364 7.996815038961102 11.352726565638152
Mg 11.571074125863934 9.21924929716498 12.521508753274007
Mg 15.537038809118979 11.153925434480042 11.95122683945555
Mg 8.405607127049285 14.304122623395196 9.782567947828339
Mg 9.28366656454284 8.536982728668345 14.39267848094202
Mg 7.423610769072507 11.844384138511083 8.335024784210143
Mg 12.699232404085508 11.264532201396387 10.647744083676145
Mg 14.331038378081418 7.802531517688584 8.219791809053882
Mg 13.383187007837686 13.00842586467209 8.199449199964834
Mg 14.402453546436405 8.447015122806189 11.113409915043862
Mg 14.074609540172018 13.86866476268732 12.214821397399561
Mg 10.394936601525972 12.280502457953064 8.509371035212029
Mg 11.562140222458554 12.476127608320281 13.23435379248523
Mg 14.383006049558242 9.124573092388273 13.99214510340067
Mg 15.244517606012792 10.573383588129058 8.872131709858214
Mg 9.478020581460573 11.234052324669056 11.240521796983352
Mg 6.47203544518159 12.476810749638878 11.12054042035227
Mg 12.370917091241749 10.081666488827304 7.786050117568526
Mg 13.899185886637719 15.578100881381397 9.668318776197717
Mg 11.337274556645875 14.19459456839605 10.689892056145732
Mg 9.07132066089362 11.534587732918194 14.65488488156962
Mg 14.267800769586337 11.985089570694203 14.611520300957249
Mg 11.660672758920905 7.938130669827179 9.792279185795065
Mg 9.312025760873121 9.39181249192595 8.512045885836544
