39
Energy = -11.62927823 eV
Mg 10.491431019507402 17.989290288066236 12.982885774406245
Mg 15.370082690433666 17.507534724370903 12.306401049044574
Mg 12.711490834187467 17.085965998334768 11.008678476871406
Mg 13.002451456673466 16.913596840978443 14.13322412750195
Mg 10.04343325272572 15.666989336937148 11.026260401259458
Mg 17.44675709763077 15.45314911833394 12.344473664136308
Mg 10.313416639222531 16.505216150170558 15.734408731511497
Mg 15.559388378801115 15.373839789607535 14.709691881405977
Mg 15.301685625823117 15.61505524564753 9.870621957462722
Mg 8.20289425864082 16.274520746951573 13.585708871839742
Mg 13.915000049229857 14.464820525852764 12.302515537123767
Mg 12.988767299459962 14.91333661749212 16.414082745194605
Mg 12.421346162593114 14.351059314788031 9.588587083945434
Mg 11.168319257309854 14.337532626775065 13.663426574571687
Mg 19.373507772283713 13.082473329410947 12.30486003808947
Mg 18.20535024915135 13.757681243329133 15.088178840887267
Mg 7.706491990688519 13.873321685423011 11.841633240715364
Mg 15.512399850008894 13.15383939543547 16.787603124631794
Mg 17.337233078265058 13.45438653948844 10.043245695548274
Mg 18.033939485140536 11.391166101321515 16.97896073816944
Mg 9.685520689605319 12.835253661062659 9.871497737028292
Mg 13.544437866614151 12.471752196927318 14.549559410959327
Mg 10.285441790422803 13.761981603103319 17.03374927863673
Mg 18.832708269540348 10.83920211775316 14.145599637118043
Mg 8.40801030270614 13.429927407337944 14.719972083701707
Mg 16.221787838952118 12.510386977219804 12.882937179368568
Mg 12.60913416485564 11.976998576346041 17.51388673440022
Mg 14.584479811457157 12.166011524086812 10.176954708210113
Mg 11.99166102047681 12.054342185604769 11.8524316799935
Mg 15.002266280753814 10.31524145191355 17.878509283610526
Mg 12.063568443047936 11.50137979018557 8.489410951379796
Mg 15.980153460406191 10.283586827679073 15.049556331867624
Mg 10.711304892613425 11.390312252703712 15.063664339276293
Mg 9.024633352292893 11.254977807431498 12.551810253488625
Mg 13.05857104208317 9.519232243150235 15.557466372834117
Mg 14.256676333451294 10.114576078194252 12.648268319307475
Mg 12.971163871528443 9.265207845291501 10.161911602733078
Mg 11.334328064654105 9.157155901697504 12.91817527571167
Mg 10.114354095808238 9.750384857344534 10.110858947654775
