39
Energy = -35.84942101 eV
Mg 14.546202754291407 13.612993839548931 17.70279466012985
Mg 15.87511976222839 13.391718666100049 15.037885799392471
Mg 14.588893222076717 8.159430124827384 15.383223287589704
Mg 14.605331770318747 10.853695648938041 16.645047889463104
Mg 14.397985492757302 8.00446728991437 12.347098131590924
Mg 16.06923501059257 10.222287499018908 10.803430230502741
Mg 17.682727031623102 12.474051444051806 9.37240909420594
Mg 16.856971370195314 12.963241900448997 12.160766163216069
Mg 15.229767251997359 10.677810131145407 13.644060780199636
Mg 13.645801328735972 15.538156187514275 15.490600019663225
Mg 11.799172652131748 12.224834441814195 17.07303104315804
Mg 11.901861834561025 9.63658850057234 15.552151163500971
Mg 12.090147864118663 6.987419027334749 14.159883028491567
Mg 11.589168606104328 7.268357890999477 11.333455799125838
Mg 14.850313164561902 15.19432545591898 12.618538102327156
Mg 12.891662966359018 12.739412282008509 14.224543458473299
Mg 13.338500260751257 9.326890247261222 9.819301275143392
Mg 12.249936985481183 10.265902358311457 12.550756893051203
Mg 15.680122178126178 14.604570969910522 9.688339822692448
Mg 9.936762620523883 11.66896136327187 14.396796471777247
Mg 10.222150448323069 9.627084736897487 10.215029371692752
Mg 11.871752346822738 15.43403643474243 13.063216191663937
Mg 14.92049865226851 11.65019484936742 8.394774436661526
Mg 10.88628830077407 12.961424556779738 11.363791613745603
Mg 11.998753371373759 15.110662861199943 18.001038912790417
Mg 12.747243346132887 15.443961358740943 10.232003167302949
Mg 13.875371727015262 12.475170845201395 11.186860107761001
Mg 9.686497293478764 8.763808834608936 13.250872220608407
Mg 10.389963316919173 14.518930619601916 15.61339841593664
Mg 8.796501312447385 11.83915791878221 8.840355675235898
Mg 13.40243545839147 14.116285843604382 7.6580009469849255
Mg 9.583656629879995 17.104994331655305 14.101121165506042
Mg 11.872414899725367 11.660052458343202 8.583706973456565
Mg 8.276172775680742 11.31846993765291 11.844423831106376
Mg 8.728489732530141 14.237764868747774 13.159657452074649
Mg 10.432718358611679 14.40761331623375 8.420051128807556
Mg 7.895435268169081 14.169019805297754 10.290714793964534
Mg 8.450351076996842 16.677550458103173 8.392957869128148
Mg 9.791795974676743 16.414129783046153 11.097135597171818
