36
Energy = -33.88903458 eV
Mg 12.06298614369879 8.976338696768403 15.955525346337346
Mg 14.647243760176515 9.37624876450901 14.122577624413163
Mg 13.632937355798623 11.759064066590708 15.646936943699375
Mg 15.892188800489844 9.763489058355887 11.29530301792866
Mg 13.086551031443078 6.753102875247952 14.366558572970911
Mg 15.520468440226953 12.158959330035627 13.276674725559504
Mg 14.943742660409493 14.567943769125971 15.113918381039518
Mg 13.288354719827709 8.242755373502352 11.73484545312619
Mg 16.440672716349546 10.587570479930637 8.400982777614212
Mg 10.790359164064371 11.609218334863693 16.669671559040612
Mg 16.341453215231624 12.781264978012533 10.349357279687904
Mg 16.12906238275412 15.012117783552783 12.395967911017747
Mg 13.706065958791529 9.479703439107114 8.949882384782818
Mg 12.01682321849585 14.264439535718003 16.20711417723251
Mg 11.74737172626887 10.713658956783659 13.361869936160032
Mg 13.380679442888868 11.644936033239633 10.998130101647579
Mg 10.524901247525488 7.881258088056679 13.210573459292622
Mg 13.297103009139658 16.979054246177743 15.653752391370876
Mg 9.167572937118576 9.674827631323977 15.21189823219984
Mg 14.118680934333392 12.549417691404813 8.070286120889717
Mg 13.902796068658217 14.698137079700217 10.33815185971002
Mg 13.628858601718791 16.633345213128727 12.722655013394562
Mg 10.839089170755518 16.114789904387433 14.063165079124202
Mg 12.655402256806122 13.663039142645202 13.141339929225657
Mg 10.902466128484662 9.52264946965583 10.529849527372075
Mg 10.528980725052897 12.627522924317928 11.145091959017098
Mg 9.621555351181291 12.876028272126101 14.124987864060927
Mg 8.614140224682535 10.175521582719925 12.349307242149862
Mg 11.344270312426397 11.298113283441628 8.197817489013437
Mg 11.541828521407245 14.250528345080873 8.480770279108272
Mg 11.115415709441901 15.711646494864254 11.069702290470042
Mg 8.435819759471757 11.163481511239455 9.409113244647592
Mg 7.2365244150284616 12.71003793939409 11.698218969919596
Mg 8.491058351779094 15.221187589473534 12.49141443950203
Mg 9.098322340357416 13.020126915837153 7.10969013677565
Mg 8.551144722168106 14.486799625973417 9.570964216284398
