34
Energy = -32.12088377 eV
Mg 15.331365689155078 15.8554467203974 10.905237883995675
Mg 11.696553288241136 16.20999140906025 15.929037076197933
Mg 14.492318367796445 11.157825067626204 17.75499068682796
Mg 12.441213925427064 14.873968979500345 11.117287238789595
Mg 18.986047773083705 13.576421148670162 14.873327791829722
Mg 14.853812618582248 16.391533884247423 16.732606880546875
Mg 13.622564723551413 18.27457277281736 20.231119568649458
Mg 15.535200303894714 13.760752342027812 15.478359554755142
Mg 15.568887295350304 18.51501155970902 12.429248421064994
Mg 13.858494045108612 11.385689205068205 14.749966100814342
Mg 17.42527843535054 11.953711539469081 17.05369786660567
Mg 16.918569728964197 11.591816923339708 13.829115109616378
Mg 16.10339403391438 16.638120531061546 19.524128312029756
Mg 17.72910929097046 17.899885805204388 16.996990126751328
Mg 12.675611215673584 18.73137960811993 14.184256984433553
Mg 16.054735583014356 9.562424374786918 15.841770151041676
Mg 17.789086850626205 14.945922216148489 17.47761314666231
Mg 12.790026682501763 18.68068237515215 17.253273008139075
Mg 14.674530612348697 13.219081077117178 12.410310255366454
Mg 14.08690432853873 16.068148747980192 13.770801425273564
Mg 12.742780768405702 13.501293864040692 16.920256812461712
Mg 12.041443343779564 13.825598586732012 14.00793843185694
Mg 15.2695903576168 13.836612570945803 18.746822547951272
Mg 12.816883949562987 15.811425400005383 18.874712057704127
Mg 10.86291738901451 16.58757735823331 13.023850343075889
Mg 19.974726256492964 16.281516675514354 15.809121180936527
Mg 12.879370180818126 17.773096238406605 11.191949237214521
Mg 18.450416576007065 18.623804217384095 13.917082882542324
Mg 15.520746155494452 19.370089732305516 18.311495640696137
Mg 20.081006229742403 15.820931843903319 12.960732289226241
Mg 18.04337185982941 17.147075917092252 11.314912842075266
Mg 15.48139423458511 19.06181453420657 15.307865237716003
Mg 17.551597459022023 14.137610569103968 12.19232532633328
Mg 17.005115849685087 16.140859312866095 14.427980162086339
