30
Energy = -26.31411858 eV
Mg 11.654128619445897 10.623184860348786 6.837519436434797
Mg 8.644527557074866 10.304330038888057 7.331073060570847
Mg 9.943856795384962 7.725816886634205 7.227686193910053
Mg 12.818037421834777 8.010337825480736 7.772027720232779
Mg 14.170029713955328 10.51890703680533 8.758493177730225
Mg 10.150116202491004 12.660074346819332 8.636779380219757
Mg 13.090599459410623 13.26839402599814 7.913180881960475
Mg 7.824669463575623 11.319823778774342 10.01496260926944
Mg 8.290378120969917 8.223267665019593 9.837802671127767
Mg 10.899647342477362 9.79452098952854 9.738419951834754
Mg 11.317663094377243 15.38176125947943 9.296021111388338
Mg 11.094347134260925 6.640408130669564 9.849537543907314
Mg 14.03625189745757 8.014204902549542 10.490924334629229
Mg 8.791442619521424 14.434306172922632 10.737055246021253
Mg 13.963355543306053 14.90422099530503 10.62207384465228
Mg 12.529873054461822 12.250828002753837 10.755094723863289
Mg 12.513765324546801 6.338014551994672 12.494937463619367
Mg 9.744109074634853 7.494845242397408 12.439438018525381
Mg 14.870894245162699 10.699861071980452 11.807532137640841
Mg 11.441409152193518 14.887583811784168 12.346693687997186
Mg 10.023287519788182 11.871648483403277 12.134781751413083
Mg 6.860108396689113 12.798908147199082 12.473241666034635
Mg 8.835913580056829 14.555330210634756 13.777253664763807
Mg 12.172197497499596 9.428295480847574 12.36380734532704
Mg 7.839069814554753 9.757032057460044 12.63133143285424
Mg 13.41999330838586 10.824846220191422 14.70699540087714
Mg 13.916993521968152 13.399533145389816 13.289392077893897
Mg 11.242577473807296 12.896314662856136 14.826255236525892
Mg 8.25799429601248 11.874217094385402 14.989595112099487
Mg 10.355392766410128 9.811812913212945 14.61272312838997
