32
Energy = -27.68702702 eV
Mg 16.2734751578218 11.365102442002259 20.069555930700485
Mg 18.47516778120916 14.919604237076527 11.906226710634808
Mg 16.601936958799424 12.447461853225123 12.083466101430865
Mg 12.915713782566364 18.66509645936097 15.89141383771682
Mg 12.037503973483949 13.230105703027697 18.168227517955234
Mg 12.817057561758038 14.362376643355674 11.831342673553827
Mg 17.816021803264317 12.17089554935887 17.50641856007719
Mg 15.62862621998582 16.05485021153317 11.74491158392406
Mg 18.218391206703473 13.497628989205111 14.646699365835955
Mg 16.103045975975338 11.328476970143306 14.932192188210243
Mg 17.484665836314207 16.565383506570157 14.323037570285676
Mg 13.402772697584558 10.706255084500423 19.10602990923849
Mg 15.176527496627868 14.182721583498388 14.216887609195885
Mg 13.999901730305021 13.171744844459674 20.685966815137064
Mg 11.852462681576945 15.90629717754078 16.83358959552221
Mg 14.137908435658803 15.486615802161234 9.123911517544379
Mg 16.65534379086683 14.306880198927045 19.72238027358222
Mg 12.264969778056882 13.549277431247942 14.967334611407585
Mg 13.101482461346178 17.6012715517668 10.946684315525191
Mg 13.77760897505299 15.691280564631727 19.054697011671635
Mg 16.796467316926492 14.203088602951047 9.536054504036343
Mg 14.34339814119864 12.53681122832731 10.109441746815154
Mg 12.251005103171673 19.473589714313242 13.052072907138346
Mg 12.706102090439984 16.41379634498002 13.877007307931954
Mg 13.684766026465752 11.599180519051698 13.016313604065731
Mg 13.223196324389491 10.938505539751334 16.06759885636689
Mg 15.758656786337802 9.925827580018378 17.520958928735748
Mg 14.96092935349987 13.354600364652608 17.1824066570273
Mg 16.364381344804965 17.19506275780658 18.769981188156677
Mg 14.892529569317205 16.344362946748845 16.245497093151236
Mg 15.092761078377265 18.364116611831715 13.695551122650341
Mg 17.720296477315006 15.19007675601877 17.00048490880492
