31
Energy = -28.27892243 eV
Mg 15.114573311055974 12.813620701937893 10.50121931273449
Mg 15.318583927101024 10.28075343615905 8.779574376137468
Mg 14.888378232584893 12.31073152720047 13.588345332660602
Mg 13.864306971283835 7.420866038355516 12.680187888841814
Mg 12.676362713447967 10.038014383063823 7.2115524051767395
Mg 14.429017183496795 12.680918679381062 7.420758939236252
Mg 12.87789430036984 13.925316852881753 12.237609630583743
Mg 13.247309153186942 8.42873795121145 9.891748390497058
Mg 14.175783277330462 9.618635402266927 14.8105997387383
Mg 12.863771624652003 14.530881238289844 9.2143719895298
Mg 11.511617839161918 12.81033621598424 6.969386559880222
Mg 15.066426264496888 10.021642142978266 11.790215524628476
Mg 12.169869606608774 11.490718624194665 9.93032504384353
Mg 12.286058358746146 12.858091407185494 14.961438548844255
Mg 11.828022159955013 7.495944137423513 14.742343549017319
Mg 11.06687593940307 16.006943108146114 11.155533014354331
Mg 11.990972375975844 10.450386624199378 12.729255328314188
Mg 10.952137854060682 7.503530739736637 11.711598228654392
Mg 9.754481631995214 14.100293170823724 9.0662476552542
Mg 10.116470591957585 14.952494022355381 13.847828484229238
Mg 11.440074869689594 10.165815121606641 15.96541752008018
Mg 9.35468584432886 11.189559221298618 8.27635276683964
Mg 9.373026812114128 9.035224863312747 13.90372283187577
Mg 10.067187483630914 12.648685834116502 11.82349208061539
Mg 10.562881719768091 8.49361504831063 8.762598105237773
Mg 9.139643894145285 9.820503992559752 10.92776158925039
Mg 9.361646216625482 12.044242632847615 14.807584796679624
Mg 8.202162505395721 15.430163515954641 11.31337244813614
Mg 7.186042056254768 10.864548398027345 12.903659032142839
Mg 7.347915295248323 12.573606429153358 10.3901518306411
Mg 7.270632219596682 13.745720370718805 13.396526089801242
