33
Energy = -30.01253261 eV
Mg 12.121778268475632 13.444515086158345 13.39300497512748
Mg 7.119976249836659 9.298258755845026 8.537667207602915
Mg 12.101139734575712 12.315086067169716 9.332051903177586
Mg 6.821422652816015 11.14656618329448 11.001636798184073
Mg 12.492259050227268 10.044556482991254 7.086954552226866
Mg 8.196738554336166 8.345212186427046 11.260691859266446
Mg 12.425646818771652 14.944952579355457 10.8642468759933
Mg 13.398835601789086 8.353593928690646 9.570538154686115
Mg 10.923617667820128 6.712677563057981 10.562607319287961
Mg 10.468815321968991 9.635758239809414 9.633932397266634
Mg 7.511566473485456 14.589118263022185 7.190891029134432
Mg 14.190988323785836 11.186985155310941 14.196461294895224
Mg 14.70835766758553 10.99424075699638 8.93077762698995
Mg 8.727884805901002 6.889852446663693 8.427525366345598
Mg 8.278108352582624 10.460503055716 13.603450668336775
Mg 12.798343639531115 8.570587371586912 15.183432515489324
Mg 9.53153302878254 9.46430747919455 6.636650657892477
Mg 11.130583924824284 10.93230621297163 14.72466081747206
Mg 13.328720061664892 7.391834317127939 12.406288038658895
Mg 9.888822412664776 12.081471861001836 11.507697896265242
Mg 15.545898673411882 8.43550872666624 14.301560770495966
Mg 10.10061835922751 14.605825117550104 9.0209315525762
Mg 10.665049941247139 12.442371555044474 6.580161183611918
Mg 14.411535182165878 12.751773690278231 11.477179560806093
Mg 9.37075092835895 13.320525345371012 14.654929408432094
Mg 10.421236952751743 8.287329762169103 13.201080960162088
Mg 15.384356774525273 9.765977756593918 11.617059821101588
Mg 11.438234000445835 7.2371949361496535 7.521648765734231
Mg 7.3993281890271625 14.125170084309381 10.309811269496663
Mg 6.965661348611389 13.353120335169832 13.1002353073307
Mg 8.630126717277507 11.86193756876575 8.630200369684465
Mg 12.349537455596046 10.36090844726498 11.853405358024474
Mg 9.606381205758751 15.10382702210631 12.134482058075196
