34
Energy = -30.55964194 eV
Mg 9.199831324636992 7.794207590919308 11.94055930754282
Mg 13.21059946891719 12.259826378700312 7.524301800711286
Mg 12.257955561380214 9.358295328780756 15.562904513996944
Mg 12.846187426400274 7.6057992632583975 8.198268801863824
Mg 11.55415085222322 6.914024248091192 13.90765719534464
Mg 12.390168621784765 15.824263802931874 14.131610452182766
Mg 10.015400552197924 11.972766123322886 8.06436853586454
Mg 10.841484335773472 10.235604269695369 12.90932094358787
Mg 14.806636520376598 14.631753950438387 8.773396820216908
Mg 12.00441549696471 10.91618642362337 10.130066844963622
Mg 13.681803488431633 15.650431359436384 11.404313162628073
Mg 9.848894030903889 14.263344323292365 15.028201635495897
Mg 11.819707336296684 14.233098129051697 9.370114532730923
Mg 9.752348386729667 17.18283919543352 14.48731869237839
Mg 14.358785532488406 12.706117355632745 10.907949008615311
Mg 8.406591093180689 12.585247719531447 13.009297707933785
Mg 9.599818827453326 11.24519881071613 15.5456577586883
Mg 11.661209861586828 9.840541058012251 6.6158823313031
Mg 13.836358329910462 10.946188974436708 13.235974512747815
Mg 7.966763679774287 15.525247400812344 12.783160986946259
Mg 8.743365429734009 10.813843789278923 10.626734737315495
Mg 14.535410607816157 13.820073306469894 13.71763545123093
Mg 14.694181207790487 9.56369294952775 7.234949670663609
Mg 10.041165347915765 8.664905880386515 8.966912624879704
Mg 9.38944822497371 8.303367418205987 15.124379526118009
Mg 11.453215943689935 13.153712957661817 12.332175216329086
Mg 16.025968029333455 11.803956986507318 8.572967532358067
Mg 14.749346600404333 9.434367375726698 10.374293010893664
Mg 10.68271574224162 16.105715872355486 11.586275074597733
Mg 14.211312642760975 8.052954935344744 13.266856075002085
Mg 12.37296583722786 12.491630298757196 15.395531704832914
Mg 7.55440381371132 9.826101174861703 13.41842315739469
Mg 8.906364325475252 13.878793967616263 10.263469648151778
Mg 12.09012758425097 7.905003445917681 11.098173089225085
