35
Energy = -32.36884339 eV
Mg 8.347969310548283 11.718066316341236 6.654219036294334
Mg 13.648675879937924 11.44976097086006 7.713414878918055
Mg 10.830554730550299 10.205643516389772 7.443494133557893
Mg 13.075424291855864 8.323695439831566 7.696279033285633
Mg 11.132083015533414 13.236628687826022 7.03469412135119
Mg 8.15753031826898 9.767459000221445 9.157321558243437
Mg 6.52296720291321 12.427927161021271 8.813547323802284
Mg 15.42308015828144 9.38531140907385 9.228915549541263
Mg 8.175394227833646 14.524956014990838 7.518684691738385
Mg 12.771856782354993 13.623771208642633 9.679984721838997
Mg 15.131405529857275 12.027068524437963 10.522107788447707
Mg 10.391941410476836 15.455302263124407 9.133951766632341
Mg 10.62478399356968 8.019261532112706 9.657436621047172
Mg 9.834704118861264 12.266972939763225 9.701806502023258
Mg 12.353937659996651 10.541879664141812 10.36212497403563
Mg 13.630982735825329 7.377980482233262 10.45603620010637
Mg 7.19308344233574 11.602920030967699 11.607883571089866
Mg 15.134511681409784 9.35850732791635 12.32377533103935
Mg 13.911974875342977 14.19860375534181 12.467509384771573
Mg 7.918433723941869 14.499414770959179 10.760971948805993
Mg 11.712439009133188 8.37487560179948 12.463219438074148
Mg 10.284987429480646 11.350360342965374 12.587823466249478
Mg 10.895414914238184 14.299682133116644 11.8882955440081
Mg 8.71880574465994 8.812107868664215 12.000458187765362
Mg 13.130664043301662 11.358902484032004 13.2201223059716
Mg 7.606071384663734 10.594230551984653 14.351735363879422
Mg 16.32696888557908 12.193590597422418 13.244100777786711
Mg 8.502938596596493 13.595112864386953 13.67608246600327
Mg 11.630645787003447 13.741381300049316 14.722382771809286
Mg 13.434721272375436 8.563076677015056 14.902494808818442
Mg 14.57952038931629 13.348692267529291 15.43461055341555
Mg 10.348646851559339 9.257175213230656 14.938689081540279
Mg 9.646070957899552 11.93855080032407 15.99530918174486
Mg 12.582512030193982 11.175572480735301 16.262763008322903
Mg 15.506009627804726 10.503269814049435 15.495465921541829
