33
Energy = -29.4549423 eV
Mg 19.464030271440595 12.101116380452623 10.434838517456301
Mg 14.231522181735109 13.84210454727518 13.118788817612414
Mg 17.07135183019929 15.096454084019935 14.424458799977984
Mg 16.908144259906926 13.654538357707498 11.782487407841973
Mg 15.50916794565954 16.92405107255071 12.580226402266566
Mg 12.05246969660523 12.735560619827691 11.180987381632807
Mg 16.28440118059884 14.479857972586277 17.320609499409763
Mg 10.961104860831304 12.82803964384942 17.157272747033335
Mg 13.193527746748835 11.2915956606643 15.532938684182184
Mg 13.363157464571534 15.743822815553479 10.855607891021384
Mg 12.270345322831519 17.539269473498212 16.796379717321425
Mg 18.507464640052763 16.717371490583073 12.225240936273904
Mg 10.435858866099744 15.501946073305222 15.560860698271583
Mg 16.70597868047003 10.818079162218838 10.29135428239006
Mg 14.683979922452576 13.158563771416627 9.78899774454878
Mg 12.698987564247936 16.793978082270797 13.761378523960001
Mg 11.116403416008708 12.82511469575411 14.080554381556201
Mg 19.395637702188324 15.05573446361252 9.985708961034868
Mg 14.186331335592858 16.17126847665718 18.5664502703756
Mg 15.073028505408736 16.9978282599295 15.701101023239909
Mg 13.724008584275543 10.289805899453219 10.381797502733972
Mg 10.671999637182997 15.20157782568027 12.40140256894139
Mg 18.845426618282644 12.929629684751722 15.632577208849014
Mg 19.74025856473295 14.041577022536131 12.92551931112217
Mg 16.32814994983309 15.90193374401665 9.797765495611541
Mg 17.49037946096986 13.292546573920234 8.570307261061162
Mg 12.123254311492184 10.151133350678908 12.951161412009302
Mg 15.959370978353627 12.287733465772645 15.382459134059243
Mg 15.161099586861143 10.869665634908273 12.941981781473975
Mg 11.326559309297672 15.328872839269337 18.548354502177514
Mg 13.715467072806259 13.153642829216116 18.412411673762684
Mg 18.26729455468285 11.249180661056188 13.20309498538518
Mg 13.33470186458446 14.50670736861189 15.85166847933998
