37
Energy = -34.47671859 eV
Mg 11.525485704915459 7.095371251606551 9.97635505879377
Mg 14.210768706946055 8.373973268601592 10.782585195666703
Mg 12.096653492600137 7.850573631651737 12.938260396138912
Mg 14.863847488164842 9.233001283243631 13.714934508885452
Mg 16.573386736956266 10.201222204967292 11.415430492145529
Mg 12.863150696072513 8.822976049003387 7.968964028780819
Mg 9.389689307062568 8.589271683736062 11.56486801476876
Mg 14.658960091411036 10.90633541666267 9.172565058090642
Mg 9.999680205949348 9.107525113480651 8.371044612082814
Mg 12.731140716151048 8.889080516580359 15.91377422873314
Mg 11.842288847629007 10.395525209260729 10.773774601878378
Mg 16.91137797888163 11.4832815517982 14.076369908212229
Mg 12.248065463760682 10.76916168772646 13.672823048869295
Mg 11.870072370405842 11.790080032674643 8.052858670823875
Mg 14.276611510842727 13.819150462323417 9.175190085384319
Mg 9.830902194561974 9.228763721530653 14.58612710623603
Mg 14.308422574481027 11.63764621386403 15.691122536538376
Mg 16.772162122940472 13.2310886881924 11.39819271431446
Mg 14.10905604180537 12.127181083850731 11.998657166897907
Mg 7.460832993081979 10.527769102168936 12.964956795723943
Mg 11.790124094494107 14.83869560821555 7.657035881077076
Mg 15.558412136338001 14.044865754901151 14.287236361540511
Mg 8.95483205446019 11.222529428704723 10.177261600144782
Mg 9.303054635977192 13.495304111188048 8.300776391927243
Mg 9.926905912828158 12.211535952378666 12.932525121242364
Mg 11.590318372829119 13.54514999627572 10.80789593826802
Mg 11.210172978711505 11.506821119131644 16.425964001251618
Mg 14.575428188804649 15.27036917921836 11.785787189864411
Mg 8.220506476995638 11.395119418231186 15.833811548712214
Mg 13.10405569244965 16.624498403463313 9.522809142531145
Mg 7.926142535904208 13.886049858368724 10.93659378960329
Mg 7.2424775675098045 13.483497598291443 13.860428073174115
Mg 12.404537677157203 13.90037731053479 13.949098858501838
Mg 10.0144177443249 16.066482610610798 9.920417129589614
Mg 9.744631938744865 13.956927148583025 15.621046969802542
Mg 12.008773031119388 16.58177874666616 12.266514698675673
Mg 9.51176878248751 15.322955743283407 12.964784604159751
