39
Energy = -36.15385036 eV
Mg 15.15619823650019 8.919161537895247 8.891297711122268
Mg 13.032469802115246 9.510076001515245 6.867893776172191
Mg 17.478463561566908 8.383658225380053 10.833254045080595
Mg 14.483440360292974 8.543826355631222 11.856311646748837
Mg 10.594483864652517 10.897930382786297 7.68558562825898
Mg 12.223387876637615 9.447272374985936 9.890363128549488
Mg 16.41811670713134 11.097444552434466 10.74338187493095
Mg 14.046511612823673 11.849559692760986 8.8168662777551
Mg 16.810595365493217 9.765165193965212 13.49243891173924
Mg 13.16573295494835 14.880448495540804 9.005692447548657
Mg 16.04257987064765 12.796580257307287 13.546980444563944
Mg 14.007772257960537 9.818824951424086 14.769034505811183
Mg 11.66368668855574 9.357851791466345 12.890500859580275
Mg 8.948295610595823 13.137570180501214 8.692880018559833
Mg 9.263299665842874 10.564169127311818 10.905842315948068
Mg 15.4759816222425 13.951297089688405 10.777448931240682
Mg 16.29432459399529 11.292662993047388 16.12766245859428
Mg 13.651767749854237 11.477654811529831 12.06694819227244
Mg 11.44665694761203 12.539635255053193 10.2922795710854
Mg 12.790203618292198 14.440286477017452 12.227119690266353
Mg 10.499104930860472 12.311816935880442 13.249850518748739
Mg 14.786687453164236 16.806930317012075 10.973406538052767
Mg 8.915382941889627 9.482404174116521 13.805527118591671
Mg 15.167076100277828 15.723273444395952 13.796317857864826
Mg 13.125101868126443 12.807376076872488 14.774525230310788
Mg 7.039120083187762 11.56635955419925 12.971695559497034
Mg 11.170578857883228 10.58913237127042 15.781154902888398
Mg 15.273530362325086 14.145693444952533 16.497042174952476
Mg 8.410558480827932 13.773675168986728 11.564373337929942
Mg 13.631121796019304 11.485720042984568 17.50617739863772
Mg 10.462480218100652 15.535386998591234 10.410750366479917
Mg 12.304846257647801 17.760010161854265 9.830076304234094
Mg 10.20584977950535 15.51304144140162 13.533416847474813
Mg 12.576841990603311 17.438237364743372 12.88328001048231
Mg 7.707759987674253 14.109973507628752 14.486717541566222
Mg 8.270427190911322 11.574478994098312 15.837001473304536
Mg 12.62773553061963 15.761190378425445 15.471267304677342
Mg 10.417583890481778 13.71270260331115 16.091637918777444
Mg 12.675508344032602 14.175618454907758 18.117160878788518
