37
Energy = -34.27101171 eV
Mg 8.613138045956903 12.089356461519209 11.598601859018288
Mg 9.184985910223842 11.058627745422838 14.470598730482513
Mg 9.65333057473536 10.093946208428013 9.399476672132543
Mg 10.744529033130481 9.880298247851792 12.235312368896354
Mg 8.68918781434688 12.839350847011444 16.992059081140518
Mg 9.512336401575793 13.067050532231391 8.89264434885134
Mg 10.329457628108585 10.4672702043737 17.471892767522306
Mg 8.844076311988301 14.005632645561779 14.125751775743556
Mg 9.528273972099173 15.266471823351642 11.06518034837653
Mg 13.119733017932175 7.918176083324047 12.816079777411641
Mg 12.497613594368236 8.739058798091815 10.01986940540284
Mg 11.919277266618296 9.630743801159984 14.9878978194768
Mg 11.340417543939488 13.385750453403244 12.389346642126359
Mg 11.232703158764972 12.998516359151875 18.67473103338365
Mg 12.192677821712676 11.747977926859969 10.140564579860428
Mg 12.354443172404906 12.268856883218378 7.256759096311947
Mg 11.691795198741724 12.759189233509709 15.236268028983169
Mg 10.484339215818995 15.249866645397582 16.78279243025732
Mg 13.783510509396725 14.854759518948432 13.955880135543023
Mg 13.367454913604263 11.15069763513208 17.252708095338427
Mg 11.981674499887708 14.777405565181187 9.050058726341437
Mg 12.506349228418172 16.571087130818782 11.496279511116676
Mg 11.00207396004447 15.993676993862854 13.946030984821569
Mg 14.930879778621097 9.428178997447295 14.810616060980557
Mg 14.129879330889128 13.910217776289546 11.070555942069486
Mg 13.580137079886144 11.45088786287013 12.913118678640895
Mg 13.451273807798229 14.365495174420236 17.137055603215188
Mg 14.540021569965246 10.709161667310784 8.581596281935898
Mg 15.319756506008172 9.294652167984816 11.339949834026422
Mg 15.193821905513568 12.528844636886117 15.28760256289478
Mg 14.516379558318418 16.506710890716917 9.259940558768816
Mg 15.511820660587915 16.763481268064186 12.11296974751725
Mg 14.937666872448212 13.683860496007696 8.103307083958214
Mg 16.962286632132198 11.037441684028702 13.23616504834574
Mg 16.467821767791477 12.065865197965008 10.446682312472936
Mg 16.636714127353486 14.046462263406289 12.954872212311532
Mg 16.923699046517914 15.073123356826711 10.072928235099155
