32
Energy = -28.12535074 eV
Mg 11.48546261986195 13.139568027782483 17.065551729367087
Mg 13.608367463022658 14.962488234050769 18.113434850335874
Mg 9.43087657272687 13.673564338453492 14.97740916263683
Mg 18.109447461851474 17.184699726320765 14.473169060505455
Mg 13.102807198757434 17.261202046846375 14.228932015773754
Mg 16.25148427325747 12.094405161612649 13.989940886671691
Mg 13.333074789440321 13.219040394123722 9.716893348962794
Mg 13.944343736735732 11.04882774961009 15.63690097585932
Mg 11.690357088490519 9.690701498573421 17.09667780704253
Mg 15.65219723201052 18.665371847449904 14.02656544820301
Mg 11.197289219666335 11.266463326552723 14.46212082653972
Mg 13.320205759011653 14.162474389700053 14.802683667417318
Mg 18.656377463425432 12.768288838961078 12.332389218492283
Mg 10.472065724051859 15.992838550851536 13.482181954925199
Mg 16.03972905555176 12.66502352415195 10.82236660938737
Mg 13.599879411738938 12.087504411017274 12.607442616500647
Mg 18.10186450414532 14.76277935293822 10.11720171383221
Mg 14.342904579883736 17.949461846289804 11.46336728874083
Mg 10.686559464346578 11.28073573030771 19.3968989440541
Mg 13.450086311732925 17.813550050319364 17.24073567053307
Mg 18.155330437200746 14.206747021536772 15.037156968523753
Mg 13.667986964092648 11.833453002625829 18.60890406855955
Mg 10.787190417956339 13.238285812657438 12.205692442571948
Mg 15.276921482395808 15.604271807694506 9.828664531920037
Mg 15.86772297444136 15.061955349582455 12.967914070565955
Mg 19.54610835133282 15.555483299679636 12.599817381539623
Mg 15.628205627918566 16.088359268470896 15.894373147190857
Mg 9.05071026906576 11.201679829673866 16.806342123399975
Mg 13.00043397769438 15.285948666108096 11.8519925031302
Mg 17.296012018618548 17.426583866760897 11.500778583220876
Mg 11.167796936333314 16.072983392382536 16.41910223861725
Mg 15.7934843313059 13.186495731792881 16.78867785315957
