36
Energy = -33.92733957 eV
Mg 9.21934035037247 13.741920454160049 16.72506911370862
Mg 11.572709752055152 14.964640915872474 17.946505850057367
Mg 9.494547370148894 11.190578101385112 15.12913555471657
Mg 8.652442688678276 14.230740631717428 13.856640377473951
Mg 11.863480216014521 12.116774939683612 16.931071323993987
Mg 10.927056929016334 15.898362900172433 15.123600664553509
Mg 8.96941794611629 11.7537638746227 12.204187223279732
Mg 9.87408588918207 8.867161668170999 13.180177067048106
Mg 8.193959518272994 14.468119004688795 10.888692049199813
Mg 12.12365257805735 9.578459154777969 15.318442648921634
Mg 10.609809627123823 15.84354015838972 12.04351715040046
Mg 11.592420018105855 13.14518539991546 13.912216441542235
Mg 13.714651251698914 14.55648328969601 15.88957540411828
Mg 11.010588009064083 7.133857794671387 10.96427261911763
Mg 10.256095621208525 10.021361837766563 10.185722542664095
Mg 14.894148122880605 9.191225841579078 13.548959471593529
Mg 9.154802296086638 12.653129325239032 8.753649467636711
Mg 12.306827309769416 10.570340274126405 12.431896608452202
Mg 12.525021126041961 7.245582902171531 13.469176532226145
Mg 13.417735526753509 15.730199177162842 13.130610820447666
Mg 14.248047701697248 11.766194712644353 14.953115863292425
Mg 14.166140284784156 12.952392705625888 12.10250404082978
Mg 16.182914410116137 14.369214131080346 14.03360619180694
Mg 11.356684529162802 13.090652386663827 10.89813359673198
Mg 10.180846568718493 15.55294811670605 8.905248881253504
Mg 12.09172815425394 8.316004406487801 8.40048314693513
Mg 13.844543626639377 8.322011601232632 10.886561386487948
Mg 13.053035305634154 15.59887297893316 10.097717904384556
Mg 13.252210978453169 11.094826535904195 9.487730621447861
Mg 16.94571620284202 11.478142912311688 13.612232361977114
Mg 15.856466565803654 15.67371841759257 11.273348344872614
Mg 15.876898382134113 10.691152643593089 10.930339911666634
Mg 11.027233995208464 10.882478118931623 7.315081850343141
Mg 12.266107566078137 13.63841733377908 7.963415016931372
Mg 15.198171062380286 13.464884907215652 9.29190269122011
Mg 17.53364015081188 13.323837767703452 11.417363291300884
