36
Energy = -33.25897763 eV
Mg 17.048835630591523 11.869296777717796 11.482706495666175
Mg 15.719236313943357 14.347184212083805 12.296447417452688
Mg 15.631962006867608 10.318565312410826 9.42394697605204
Mg 15.658835543637155 9.26781190603032 12.274403456807963
Mg 15.222286328886016 13.328324350977912 9.181764552891483
Mg 15.46270725278121 11.680286222738673 14.148035772932742
Mg 13.380688250339043 13.847279653990183 14.444623199989644
Mg 14.73457379081889 8.802239355387819 15.240528763072927
Mg 14.02380139102413 16.562215459436068 13.239944260850818
Mg 13.955845099186925 15.866288803277673 10.235408381807652
Mg 13.748351767725019 12.202915350727718 11.448767804042822
Mg 13.556247177229553 7.0531678925420955 13.137638571703908
Mg 12.050234345732449 13.69249841601013 8.935626866051935
Mg 11.770905000471785 14.490023320340987 11.905352535914968
Mg 12.982276597476828 11.267049398357067 16.0173715001041
Mg 13.313826104651953 8.713508342572885 10.359196256911533
Mg 12.899082972723084 10.950641489025648 8.290201522748566
Mg 11.581575852489527 8.346325040502574 15.164015907949132
Mg 12.772091615876443 10.057758259248661 13.112084576769247
Mg 12.018951994756577 18.05134858020208 11.739238900209706
Mg 10.702032017746676 8.866430419173534 8.742993238320828
Mg 11.044875288101707 16.49453658133896 9.440243357263217
Mg 10.965331064754984 11.270641557824394 10.905089348326488
Mg 10.83202440078164 7.988721541206845 11.848467097486996
Mg 10.10719540515602 10.569150626933325 16.539541420608323
Mg 10.868346025299777 12.211484655691073 13.671827614287581
Mg 9.248028645678406 14.012168655049045 10.25989902358342
Mg 10.696924687417665 13.689198831668792 16.219563766312273
Mg 8.086794337770888 12.132124146498661 15.135117352966425
Mg 11.18818218707475 16.20049289157801 14.393827516479826
Mg 8.392351309359341 9.463877558404556 10.533599200748109
Mg 9.361588521685212 16.904294407864537 11.865714957287816
Mg 9.588658079274794 11.672248362059156 8.300122521759954
Mg 9.158418638429369 9.62759565717418 13.679099718361853
Mg 8.882284568961918 14.519110300431759 13.474495641622205
Mg 7.977985113324857 11.967918704696125 12.06156463696255
