39
Energy = -35.86755149 eV
Mg 12.312628141510386 7.994664848462345 8.736683041385728
Mg 14.996388500126827 8.806003967572632 9.80935094792798
Mg 12.969402838186197 6.664195125616354 11.333788100473216
Mg 16.114948978600328 6.446556187501701 11.219716847928119
Mg 15.845238367765509 11.759614778485991 9.439505989073202
Mg 12.992542325979413 10.885973506455532 8.684102459275952
Mg 10.086386123807745 10.190766223016153 8.392672934084425
Mg 15.821976966776766 10.388316510016447 12.327290929952694
Mg 12.802480545367068 9.959161972244614 11.726202601470009
Mg 11.758516499956972 8.05592555336724 13.880954045402076
Mg 10.324336886167757 8.205345802961784 10.920003489759385
Mg 14.783861009383818 7.733838537799329 13.454227764387003
Mg 8.111849977013227 10.25687910380006 10.524742147078703
Mg 15.91012487805762 15.057888158827478 9.757686894003601
Mg 13.63921754806458 13.71697413494899 8.519730393280625
Mg 17.12224450444031 13.159581032639 11.795880744678625
Mg 10.842347788412413 13.093700829841122 7.728091708351947
Mg 13.909262955088222 12.861673653712476 11.549605084617014
Mg 10.926532605471275 12.316516248198944 10.739012571444283
Mg 12.002081659342512 16.132297058495116 8.00967265163285
Mg 13.963642554875989 10.187501992240065 14.885902863922668
Mg 9.803193447253854 10.245658038798236 13.050579254462574
Mg 15.338992531957535 12.846233523024448 14.308473732989412
Mg 15.68538518190237 15.656525855509244 12.575483516907251
Mg 8.114788134619934 12.86204882063676 9.027618083759856
Mg 11.95180880635787 12.25402832389434 13.754253319484839
Mg 8.124543138386638 12.759852624866216 12.116066228177859
Mg 12.807195186639309 15.623104625972267 10.98736582339961
Mg 11.07413801328943 10.283457790445707 15.937308358425478
Mg 10.368589608370687 14.765114990538374 12.837470622528024
Mg 9.8652077381518 15.201970502903807 9.841595069768331
Mg 13.191357273802135 12.617708531061018 16.5541370126129
Mg 13.256216734417873 15.05473279606368 14.008773669819472
Mg 9.030174836429463 12.501299733380142 14.98102232807523
Mg 7.091868537579983 15.35113134168304 10.941584543948897
Mg 11.066830559766847 14.766052846108593 15.919574743520226
Mg 10.374625690020189 12.616632432988633 17.717350528916622
Mg 7.212404376417427 15.059423276172648 13.998535631334711
Mg 8.187294817644355 14.918866288944413 16.773537781466324
