39
Energy = -36.63943299 eV
Mg 12.32732106399464 11.670943247135128 5.890493888618129
Mg 13.913774184258099 14.078150813498286 6.624881936251706
Mg 9.870984761507968 10.815899605672662 7.441019667004115
Mg 14.521100430999937 11.357865228807173 7.9164572391605565
Mg 9.745462612139136 7.775907363114438 7.763229978532903
Mg 12.450741505177662 9.12161248821332 7.5111224813010296
Mg 11.018359825754114 13.621347309968186 7.822615064332625
Mg 12.465457804555957 16.226231118350935 8.28837414907078
Mg 9.124838360541302 12.611805629664524 10.035421275574452
Mg 11.933975797399464 11.28016437913552 9.791796089418517
Mg 11.388783315372056 8.33598699094083 10.342927029710333
Mg 8.719971141551975 6.647656291639946 10.291556455111538
Mg 13.587436564284484 13.838847161099526 9.701844576908284
Mg 8.391085310295372 9.6597996668427 9.870948429690179
Mg 15.42208891176897 11.649510362102943 10.886948339107775
Mg 10.172589436772268 15.474140871023382 10.2042865385968
Mg 7.057953696076512 11.457658903448657 12.13637530480159
Mg 14.350631931051932 9.010371533734219 10.019579464385583
Mg 12.877889863900906 16.393116148690073 11.32541915905646
Mg 13.06147061600196 10.734012261890177 12.656327009980414
Mg 14.691568644991685 14.104074856004363 12.48834681185743
Mg 11.54744007330992 13.38035509634045 12.191657547953756
Mg 16.053183116561506 9.046344284361517 12.599882670775639
Mg 13.387478806746692 7.620190689817893 12.619635977488382
Mg 8.527821343678223 14.157510271482888 12.614009308788049
Mg 10.278550904865563 16.537847508835256 13.057660597350038
Mg 10.009992705949713 10.577470185602566 12.421757245681748
Mg 10.193583867452151 7.313283665008518 12.884782794884304
Mg 7.365846372652917 8.336892655449493 12.49366948467735
Mg 16.12801370283362 11.748658315121432 13.867812663311357
Mg 6.146416805103167 10.01739472899242 14.672771414858651
Mg 12.894051245643379 15.777906830987098 14.213813330418088
Mg 13.486809356469736 12.88895374139223 14.995849986709366
Mg 14.560554117464498 9.683080226546007 15.170154250698264
Mg 8.223875457375112 12.188898143624996 14.900789518755023
Mg 10.501522161448078 14.214538418303087 15.073040032637387
Mg 11.85702594393338 8.471840785069546 15.026762294847162
Mg 8.9036883258999 9.128898500096826 15.09135082398303
Mg 11.07010835720377 11.274282164980008 15.324077610699291
