35
Energy = -31.68363549 eV
Mg 18.24239024820654 13.785201963779697 11.093849176091368
Mg 18.244007602146315 15.465661547854904 13.708445106720133
Mg 10.693663280284603 15.48006735274851 13.337909809358441
Mg 15.687170606917244 13.764898725515343 18.002885921354217
Mg 18.237958640095286 15.454620593810127 17.116602461525513
Mg 20.344094387433234 13.90203771630767 15.605395411278415
Mg 18.093826708712974 17.287223815386408 11.08691758144959
Mg 10.028141706032892 12.461648166709892 17.212380333107234
Mg 19.189682537562717 12.098399438195006 13.433167813483397
Mg 13.214359423425767 16.964432331803845 12.86150341861883
Mg 12.81055197119031 14.794345216650182 16.06870952745514
Mg 17.275019471422247 17.980942274623036 15.809872125494076
Mg 15.61897997695852 15.243806778408812 15.012452338777939
Mg 11.107368699424129 17.790522699919304 15.04400500033209
Mg 10.92307923625722 12.739387756172642 14.449924552898826
Mg 13.28079771308841 10.92137507598481 13.392073952465404
Mg 9.734057933181386 15.350133570153869 16.21487508396938
Mg 13.588175229115123 15.133833801733285 19.611866384135173
Mg 0.11721439642260877 14.321645582362784 12.723923009418545
Mg 14.5151427227664 12.245156440122905 15.714213106516643
Mg 13.364924400366052 13.926023564954757 13.08228594192215
Mg 16.014451240726824 18.134969648862235 13.112628735991573
Mg 17.588920442362376 12.783627413957609 15.799581914049925
Mg 20.8318313860577 17.309509167011345 12.470167843306072
Mg 14.08782463309334 17.934056903878165 15.582390722413816
Mg 11.989798573950301 10.486603843080555 16.10271692415976
Mg 18.814380525170588 19.129591753213834 13.50144916498727
Mg 16.19828412937086 12.591270125808975 13.03675099213217
Mg 20.3402134907217 15.563728149383971 10.040560774815864
Mg 15.422106022897017 16.741320179238922 17.958449134276485
Mg 12.864322143310979 12.482305122863748 18.316107505033283
Mg 20.269588050832706 17.036752211249446 15.387597299183993
Mg 15.716885377016524 15.447299582840769 11.771910600691555
Mg 12.150214917206114 17.167471774696356 17.84148388187121
Mg 10.77015116593626 14.728911614492443 18.970542069774126
