30
Energy = -26.59855297 eV
Mg 10.683031187758369 9.55428345344384 7.26389242351687
Mg 13.527324197476462 10.387719758141447 7.008918168669355
Mg 11.32356545687787 12.501704899785938 7.729885298530999
Mg 8.65496399232871 11.40237196768529 8.713942814535324
Mg 14.90422532246516 12.393743320210376 8.991812735483101
Mg 9.67030097444324 14.102746433676323 9.99544870222527
Mg 12.588889998637324 7.965952725672123 9.051370317274966
Mg 5.619218093299981 11.574752757289632 8.905142087907873
Mg 12.600647497767067 14.02751520882592 9.857540237018679
Mg 9.60489413071175 8.6882019445706 9.953282138843713
Mg 12.380271302574336 10.816915204715384 10.0391716220891
Mg 15.391009918504928 9.364364795064732 9.011515330269003
Mg 14.686674274576415 13.968915698689417 11.932579614779279
Mg 6.991884604364855 12.974798236373342 11.102769175530556
Mg 6.927537568149881 9.976844934135238 11.139281249917932
Mg 9.831595645756654 11.429225682443155 11.593113314082752
Mg 15.303446243453672 10.920032276601624 11.659402993797375
Mg 12.46287695487671 11.983035150100982 12.7841645498636
Mg 14.432378803119493 8.050792499725736 11.500444452819735
Mg 8.544692455245672 14.551492167984724 12.94189776314494
Mg 11.611791987836224 8.61773412632083 12.155963610974068
Mg 11.455918469678787 14.849226921502275 12.418204991877042
Mg 8.734830706861048 8.626043031339083 12.973507368431685
Mg 15.16174589056506 12.260688227097285 14.436633494728639
Mg 7.789455258245645 11.493784057363955 13.837222108586456
Mg 13.749873576795826 9.526451433191164 14.09258530850365
Mg 10.65448492388877 10.176009077465306 14.608683057033293
Mg 10.323175738980652 13.210321475176483 14.931148970460356
Mg 13.220779730246154 14.44672872791713 14.83375899063694
Mg 12.755291620533379 11.744380333511238 16.123493634487374
