31
Energy = -28.04139998 eV
Mg 15.57707951207283 0.37633764929045743 17.585207401812045
Mg 18.431743881992034 16.049254791134835 16.34753061241386
Mg 15.304017184496601 16.19808831261926 15.763961108995005
Mg 17.061866009596383 18.77273879793913 15.471558000998332
Mg 11.849984620567824 14.35843479843752 12.139076590283738
Mg 10.266275665801038 14.247897457599498 16.901070957295968
Mg 12.114691249117275 11.77207736602106 16.51777368967941
Mg 18.39290846341304 17.053320814994105 13.409494237587236
Mg 13.911046920585447 18.99775401538184 15.391938012278246
Mg 13.996979604147294 16.085649653161653 11.009570992325862
Mg 14.123239630238825 17.617479281786775 18.283159072875314
Mg 10.225461202272305 12.73833930328724 14.299289921715106
Mg 13.01183382954609 14.338841758108945 15.176322027425668
Mg 16.959550318685398 15.50938325282004 11.256311210296342
Mg 17.179177456571086 17.832786389861564 18.404161617707107
Mg 17.739664724531835 12.6597713008856 11.414278943489288
Mg 17.049665151266368 13.33785820912205 16.384833877529434
Mg 15.553445386480902 14.025794638167904 13.644110670310576
Mg 18.797933980297273 14.174607071663795 13.892069015851652
Mg 17.901843022742934 11.381336888263231 14.21162218877499
Mg 15.037045144004498 11.200525103420011 15.419377104436066
Mg 11.736597539407722 17.020451457221988 16.439355940473703
Mg 12.927762511560983 11.808969163731446 13.324478066353194
Mg 10.064605574212923 15.698659170019893 14.278504509496265
Mg 14.611028852319379 13.201115992204603 10.807552822372843
Mg 15.611174735420681 10.87308120799475 12.47464881872145
Mg 16.02535494820322 15.105452140474927 18.69811790619075
Mg 12.866617967266416 14.825199528825797 18.3064533723027
Mg 14.675891651303703 12.52398878173048 18.007041347117774
Mg 12.650079900009851 17.01975535830441 13.493616433450907
Mg 15.522260878065968 17.753248085157047 12.933614436031677
