35
Energy = -31.10553082 eV
Mg 18.839566585618268 15.259472983461908 17.3650101057262
Mg 16.131384483296323 16.8890039196807 16.39607048111606
Mg 12.920437208624444 16.79914756564386 16.230773436659668
Mg 17.754352675702258 19.757875762592274 15.395677533653378
Mg 10.538640884753788 12.605090411346799 15.004395274239338
Mg 13.096663480786843 17.833848724072663 13.31757326896639
Mg 12.622298561745627 12.34617859207098 10.277171628204576
Mg 18.50374250217379 18.228137584981987 17.917780073119804
Mg 17.415556509883963 12.511825991935908 12.39091585196547
Mg 14.946097428114424 16.99827899491177 11.042045374611979
Mg 14.292950228796029 18.280234821832664 18.4945704159984
Mg 11.381327940200183 15.42813959845403 14.16237372993917
Mg 13.785315017360144 15.247201592705316 18.69669690225766
Mg 10.017589963154116 10.733434255236535 10.371703817806635
Mg 14.524128388245138 19.4309437192992 15.574071077057624
Mg 13.002180636120459 12.991051603928799 13.162492809531763
Mg 15.156313273008491 13.992463032107214 11.099987252645748
Mg 14.53229125456513 16.778641958939787 0.7304098352119298
Mg 16.244556399064216 18.264252607553907 13.387726691018278
Mg 12.409197086098818 15.539479783149664 11.336575773542581
Mg 16.728884453422076 15.983400493214837 19.3164463282124
Mg 17.963200209818226 14.03514191608045 14.891446217333982
Mg 16.02065222537696 13.787428545728272 17.253122711190233
Mg 17.414133137672344 15.646759616657146 12.338822426085548
Mg 14.872501563968473 15.26158802349839 14.091642953285307
Mg 16.305192428297836 20.388942743892333 17.887607702496528
Mg 15.556039488622496 12.141830582772487 14.758775427384355
Mg 12.375148988176775 9.488411141296966 11.695405271211087
Mg 18.836572351935782 17.02135816860546 14.8112109395859
Mg 14.92311869628412 10.936462638423308 11.920108166310103
Mg 16.72079119364982 18.839272934977018 20.362700840882006
Mg 13.161553844410493 13.652559733393065 16.21651741246991
Mg 12.852082758028134 10.404618851992 14.568704913176544
Mg 10.003329609935593 10.257984153983312 13.286594478586673
Mg 10.222677166767225 13.28032482838775 12.04661932156906
