37
Energy = -34.29932069 eV
Mg 8.83533994096795 12.815569006174648 15.603356384443504
Mg 13.370895262098815 8.94742851834632 16.132558864871704
Mg 11.848729004964097 11.308733679078161 10.797213719454028
Mg 10.10830641135216 12.77153677635579 8.636513203307878
Mg 16.279600179253926 10.247433396016296 9.663572385011022
Mg 10.651097174359212 10.561748823138986 16.503430339472015
Mg 14.617359031458289 15.294208994537811 10.03158949048271
Mg 11.66426926257802 14.402477178317271 10.735382871987648
Mg 8.171394709108942 15.216142673220967 13.601297088689124
Mg 12.143456360951404 10.730385068304138 13.829316401441483
Mg 13.456503759231333 13.426515990061525 12.767235765402864
Mg 9.894255443435288 16.676172184988022 11.619431511370745
Mg 10.823694751202343 8.684349224856739 11.858648812765347
Mg 17.7052372654823 10.572020842784504 12.36689071633073
Mg 14.337328860194383 11.85031831708214 15.721220181681957
Mg 13.26372416456523 16.6781982767836 12.437398999285813
Mg 8.821684406107353 11.047257420639857 10.91618756176585
Mg 12.47091008106917 14.615472909436841 7.821966059737943
Mg 13.549754991652739 7.821978147867507 13.273104455868017
Mg 12.179289604902669 17.163845265465238 9.596871510727386
Mg 10.893505785735496 8.032871296335207 14.790100901122381
Mg 14.671456361347772 10.880931479591624 12.232955415276702
Mg 14.131046682157617 12.41207789190725 9.251064725730755
Mg 16.1721786921344 8.080061430764443 11.794605182809367
Mg 11.17728771607375 15.623913927676725 14.250915120885553
Mg 16.491725927856788 12.895713675069452 14.01082033155112
Mg 10.293149479480968 12.949555301056 12.92823158043744
Mg 13.604053520409096 8.807128438942927 10.270431753415709
Mg 16.07729441113011 15.57906785438768 12.688942461840979
Mg 14.209562414637793 14.997525280688775 15.130361357528205
Mg 8.212866765905583 14.203178018543326 10.701206539069785
Mg 7.210721215435436 12.480003932753199 13.024228087870389
Mg 16.534537327252554 13.104949327953477 10.95650259005916
Mg 11.790383354639468 13.313958410953004 15.996645606951851
Mg 9.733486327750468 15.791610215485521 8.633358467717771
Mg 8.986563250250418 10.187320414226004 13.883852529503603
Mg 15.907421806467445 9.420184193845468 14.58092558549863
