30
Energy = -26.54105073 eV
Mg 10.250806725493113 12.892718334231366 6.523454937326666
Mg 13.312023816332474 11.870533934585767 7.4170427979107165
Mg 10.578286945651382 10.043967725346405 7.209021604459684
Mg 12.157266432287807 14.708255597772423 7.857940436276883
Mg 8.450056821371746 11.635389230038225 8.595792734724991
Mg 12.739028954272811 9.192492769116754 8.942166002861752
Mg 9.41441035341977 14.435468229776058 9.430458636994222
Mg 11.399117474403733 12.113543473519686 9.599719599405468
Mg 14.073138973648392 13.918750639439626 10.044052219750583
Mg 14.814779002332331 11.031102785230738 10.226991519094428
Mg 11.763952348355634 15.947329630129818 10.571627609978869
Mg 9.875980244759024 9.443726682030988 10.26066763332044
Mg 8.972169041073846 12.081172645501137 11.602896318627772
Mg 12.352679020614408 10.205366388597108 11.803374808241507
Mg 11.956755313616755 13.18351493150009 12.268941950466546
Mg 9.49800635868215 14.99018306640413 12.387694359926082
Mg 15.14835866935464 12.706741233010797 12.692718793686117
Mg 13.893773250814942 15.487218532854621 12.791268940753762
Mg 14.993174212639582 9.649068741774835 13.161737618488626
Mg 9.822367784929924 9.882862008466885 13.461427777759681
Mg 12.33521023026177 8.316017774499556 14.210634038724741
Mg 9.80957905109833 12.671554792430467 14.528755418674974
Mg 12.872574528181753 11.544616648575339 14.51639905086368
Mg 11.539026195278657 15.268357152225324 14.716818778194249
Mg 15.885138337923344 11.535945917976678 15.45478268784972
Mg 14.234442031236208 14.124787757682922 15.455100392035895
Mg 14.265561203844918 9.119252786548575 16.21651148430455
Mg 11.16641781848209 10.189560978711727 16.444966950600072
Mg 11.557551339894982 13.225231565874411 16.919969108347747
Mg 13.907654820834239 11.624555347238461 17.72635309144083
