39
Energy = -36.10019782 eV
Mg 9.416590527917672 9.387310415777819 10.750624286338002
Mg 12.398411772082326 12.427691884222178 10.750624286338002
Mg 13.02684666304845 15.08252984309017 9.118846991784045
Mg 14.048447754870653 14.33960413946474 12.072885600399925
Mg 11.019575336764916 15.305436270178264 11.386613088970321
Mg 15.194100553425542 12.99278341801373 9.259252880779398
Mg 10.170227437705174 13.858068297560683 8.925978386119093
Mg 12.813148996052869 11.895513305025677 13.720721317691297
Mg 15.087221293553334 11.227462044720085 11.7159213474451
Mg 12.82007054519619 12.611683267418584 7.313957798819896
Mg 9.635903188338029 12.311919271671805 11.776260779717418
Mg 12.179099111661971 9.503083028328195 11.776260779717418
Mg 10.90750115 10.90750115 8.954039457499796
Mg 13.910318352335988 10.172874483570387 9.071011406727557
Mg 11.644774862294827 7.956934002439316 8.925978386119093
Mg 7.9046839476641635 11.64212781642961 9.071011406727557
Mg 9.00185330394713 9.919488994974323 13.720721317691297
Mg 6.727781006446666 10.587540255279915 11.7159213474451
Mg 8.99493175480381 9.203319032581414 7.313957798819896
Mg 10.795426963235084 6.509566029821736 11.386613088970321
Mg 8.788155636951396 6.73247245690983 9.118846991784045
Mg 6.620901746574458 8.822218881986272 9.259252880779398
Mg 7.766554545129346 7.475398160535263 12.072885600399925
Mg 12.074974581218365 9.784769153601847 6.405773854890518
Mg 9.740027718781635 12.030233146398155 6.405773854890518
Mg 7.256959256845578 14.510887405183473 8.310923118606025
Mg 6.744775581592089 13.660563387221202 11.283444784635368
Mg 8.285762108482652 16.145985132484558 10.550588783604725
Mg 8.656644885935023 14.96350692915643 13.35396146777702
Mg 7.140130606455693 12.457147321909634 14.05079202358774
Mg 11.68870741832489 14.668807998967733 14.156396432818175
Mg 10.008505001419435 12.407862823530202 14.995298347657469
Mg 14.558043043154422 7.304114894816526 8.310923118606025
Mg 15.07022671840791 8.154438912778797 11.283444784635368
Mg 13.529240191517346 5.669017167515595 10.550588783604725
Mg 13.158357414064973 6.851495370843571 13.35396146777702
Mg 14.674871693544306 9.357854978090367 14.05079202358774
Mg 10.126294881675111 7.146194301032269 14.156396432818175
Mg 11.806497298580565 9.4071394764698 14.995298347657469
