32
Energy = -28.74761211 eV
Mg 13.643362301863132 10.583607682642684 7.20351980066598
Mg 10.015144884479502 14.40582983016954 12.410236990534917
Mg 12.819144803954673 6.176500467665675 9.429674377998763
Mg 9.6271861026928 9.479541009225661 12.920398745333175
Mg 12.499145975932516 14.29736825807537 10.70417411965959
Mg 11.938528776693632 11.623270827548204 12.161404577759868
Mg 14.845912167937211 8.679759013488502 9.317889874291165
Mg 10.118236091773701 7.33878740118151 8.411298903461603
Mg 11.902348266377304 9.47298671513223 10.017771107701792
Mg 12.454843104886258 8.952499144459775 13.743192544138875
Mg 12.50730846516326 14.028702745878416 14.182588552171923
Mg 9.506287939701647 11.400466688361423 10.298753576800095
Mg 9.845389276169044 14.229064134380266 15.651253043441217
Mg 8.41119902457816 12.099402811493679 13.610400095853914
Mg 14.208411374813481 11.815539718646752 9.842981381382216
Mg 7.787169214451161 9.68811993759639 8.171968523680437
Mg 6.616386368221592 12.48280067222032 8.9235720333279
Mg 9.43821535667436 14.35595088043695 9.40301165034638
Mg 13.986235000852373 11.425452069981475 14.762223422925166
Mg 8.381447541828608 8.16462020673674 10.64576412833002
Mg 11.687641922399433 12.544080132491214 8.386521177474949
Mg 10.985911243923239 11.425566794313104 15.085563519381857
Mg 6.857496831451808 10.68152477737746 11.345112715182731
Mg 14.778740259001605 13.134834405256763 12.477555650241197
Mg 8.92439199891213 12.354381683952035 7.169855663657115
Mg 12.817378408460588 7.76667967914811 7.03014266248346
Mg 10.974091513585222 7.036720150918065 11.71677811472417
Mg 14.943750878834223 10.025745561757926 12.170452489540098
Mg 14.027233391452505 7.217728948835981 11.884541651348595
Mg 10.65433330839048 9.933947826019379 7.000717247000482
Mg 7.444416390989097 15.16196454727805 14.234130617581013
Mg 7.143634182343429 13.807477646118835 11.477473410368114
