39
Energy = -35.8785928 eV
Mg 11.815042844607804 12.037031065078555 7.722983271743435
Mg 9.657442454255472 16.000815895794794 10.663028050042563
Mg 14.200700836865515 11.210773889345466 6.206028220963602
Mg 9.789396520297814 13.047324894125857 9.790651017569864
Mg 9.73885953274559 15.714646687172765 13.687635994537239
Mg 14.058132783056825 14.093323767052008 7.002964116310997
Mg 5.945400229051562 11.911232889272146 12.989482896565496
Mg 8.215266771198074 10.933045109624466 11.353379136630478
Mg 10.988598556863655 10.21385670122999 10.12672171561732
Mg 11.852285824318066 15.005861393156357 8.786051316556913
Mg 13.6756407857896 9.775586786862075 8.788300770622527
Mg 12.312980833108067 15.302032631118825 11.88058466341805
Mg 7.802117974534956 14.007986222128103 11.954158794458367
Mg 13.031221423815408 12.515785883420348 10.62062670397804
Mg 15.513998843965457 12.275680096746699 8.881313203886025
Mg 10.62878720146063 12.621163060653101 12.732560179987324
Mg 8.363812189904332 13.043732467857284 14.759667616680643
Mg 7.863068221018779 10.08768591090339 14.312044424260826
Mg 14.701705768839869 15.23759904894432 9.764121703125536
Mg 15.09409568941961 16.313954506732028 12.702240523238014
Mg 15.375314102586627 10.329912457090025 11.243752643344418
Mg 13.007332465178846 8.322408953806702 11.480622378265952
Mg 13.084365702110123 10.883343291286394 13.376962087706291
Mg 10.601189041014159 10.850002229237926 15.379894093712341
Mg 12.570427302347099 16.63076397322909 14.66994597181977
Mg 11.180230465760488 13.94431820132347 15.594109517626828
Mg 15.822428543103282 13.351427868383022 11.806902006394836
Mg 10.35126830205383 9.18370956644213 12.859904105534723
Mg 15.232911951472481 8.305262991772262 13.474459818377392
Mg 13.825532157480739 13.739037750532997 14.076891680838354
Mg 12.506081302801247 8.0981950471904 14.694870021795259
Mg 15.423062980364312 17.07993081707956 15.571654673009048
Mg 13.170939574224727 11.890336504980501 16.492827501932172
Mg 16.05867370809922 11.396650379107898 14.10031864214919
Mg 13.969032162378912 14.84760778200641 16.94612957560673
Mg 14.852573419770046 9.545309002519646 16.13723249227841
Mg 16.728580605167316 14.446049645148676 14.679697772250897
Mg 16.036890203410877 12.49465947934347 16.981969997799588
Mg 16.887656821752923 15.34958967084945 17.570663285747987
