33
Energy = -29.73484693 eV
Mg 10.81521170030439 10.068320964069155 15.922618506043024
Mg 9.623886417008176 13.02136998807248 7.441176963355222
Mg 10.649908672490357 14.759363767671928 13.108061318612744
Mg 11.67225065791737 7.7114376022422855 14.22731085291001
Mg 9.327932695653816 11.438603297708225 9.878595144523187
Mg 8.930318185523928 7.669199884153444 12.854401914352609
Mg 7.327565293747617 9.939544004123483 11.521309290448384
Mg 8.529537445395812 12.58158633473276 12.453589993884748
Mg 7.6597970913155775 14.9835269131442 14.123404970944204
Mg 9.019588989132135 8.249359415484587 9.779819967834593
Mg 13.436128930930524 9.262840275002244 7.1735554862935045
Mg 13.764885346919094 14.597907783381782 12.684648930142997
Mg 11.760448656840376 9.768616071164976 9.79332299521076
Mg 11.28415304579101 7.207142883550305 8.03232535916923
Mg 13.65483618313478 9.904021144508965 14.88190446651359
Mg 11.862997663480728 12.631703415589271 11.04135453139046
Mg 8.466087794911573 7.898617321830043 6.809818261688251
Mg 14.627605295326726 11.757165544794178 12.46682668767769
Mg 10.447182499098462 10.126443541964415 7.046299529103389
Mg 12.187140435387132 12.431862382975737 14.235514435692075
Mg 14.365063619285387 13.866585553002015 9.8296701361959
Mg 7.4035063264358225 10.391740606358898 7.9578526443115445
Mg 11.880559249369046 14.92823925658979 8.195080261366563
Mg 13.70160364123709 8.933448513511115 12.074632803251747
Mg 12.147514186306534 16.139545982694887 10.814098145755356
Mg 13.970684046852355 7.462060028744299 9.461746563731646
Mg 11.458967312622606 7.01342888261661 11.206857864427102
Mg 14.686727071877693 10.627961198847693 9.639386092414268
Mg 12.653964788716275 12.113858860406543 7.829397905907296
Mg 9.438741427640677 12.707147070636065 15.339109364274742
Mg 9.512237688831215 14.586847874320036 10.234042430155244
Mg 10.700223043644591 10.230949729819002 12.585830430478278
Mg 8.16523715997108 10.122046469388371 14.488928315039445
