32
Energy = -28.99399274 eV
Mg 9.167560061828764 9.572346040645325 14.137837915269996
Mg 11.422195759765927 7.745410792907737 13.166206907890825
Mg 8.640764972056479 12.67956653771553 14.929100744467753
Mg 8.42313245958782 11.619594439440911 12.077872002164643
Mg 10.980825324556044 13.26711519545453 16.76103704427947
Mg 9.258395997777036 8.600955011730372 11.235887482954602
Mg 7.985128924237184 14.625734510384355 12.70138607022378
Mg 11.560299396266474 9.062389998956219 15.942638677315783
Mg 11.442132717207253 11.621998351454483 14.21151258108016
Mg 8.938583026576024 13.867137390822302 9.79838284125212
Mg 11.639231911426018 10.511770783615363 11.544324056766252
Mg 8.966240473999484 10.853894179150714 9.248061203850284
Mg 10.405902403338256 15.25622895039145 14.501676470276495
Mg 9.962885722018367 16.41918195999784 11.513543987611964
Mg 13.408869815444096 11.414425496850924 16.418388943320736
Mg 10.915190234648568 13.514022516189153 12.020182334851603
Mg 13.822220358763145 9.45678794466637 13.85118774380676
Mg 13.29879785929891 14.146871548118996 14.860714579777273
Mg 13.64762287687643 8.257648381808439 10.98456797458442
Mg 11.541982270392703 12.286098300524246 8.832659256715848
Mg 12.873779348851187 15.895197291166673 12.422605726790657
Mg 11.554942160742781 9.139262253074632 8.906736393562355
Mg 13.729056099572816 12.73393909480439 11.538259175707102
Mg 11.91117847724394 15.214476959633433 9.538367688882584
Mg 14.121687099835784 13.543717047844234 8.087599505071598
Mg 15.440647932250013 11.99193470874879 14.243546523151993
Mg 14.188250337508524 10.610417461148366 9.1059776777723
Mg 15.792769338919944 10.338279240166841 11.67768353067943
Mg 15.71765679662418 14.677508583516268 12.878810717167728
Mg 14.871114328875725 15.521581442852712 10.17223184510082
Mg 16.347421992977335 12.84410183935046 9.969061233349295
Mg 17.835756914991236 12.536750501137291 12.502082918619251
