35
Energy = -31.06012135 eV
Mg 1.0292682826936257 16.510896857879658 8.494707131896773
Mg 18.597507475782216 13.825941905748936 14.374709857470542
Mg 10.744368442032105 16.07920646929888 11.379893976073902
Mg 15.63819932252777 17.46346890648662 12.361132551041209
Mg 14.099873634227135 15.778132553655931 16.908146752538986
Mg 14.109571974224565 11.32449653371425 12.998659173275119
Mg 13.701276809871517 15.752166747412604 10.7572724305695
Mg 14.433539397104408 18.300882448925265 15.025729014586181
Mg 13.194641803432763 18.909090430369446 17.67165025832087
Mg 16.117401871103727 17.755946555440037 17.762236453536307
Mg 13.969165118014779 17.22851446022849 20.009080419767518
Mg 13.33872255646306 15.330220442143295 13.971364582416482
Mg 12.139871257293617 13.327869391528461 11.786332098984083
Mg 10.190357892650386 14.88105065914682 13.968012059321696
Mg 16.664964623263852 15.586176565771872 10.019165344426513
Mg 17.022731083161958 11.36865123087478 13.441099364713319
Mg 17.65963814747573 14.52847273115197 17.170444536906075
Mg 17.949367387807808 11.565764480393941 16.292734839043447
Mg 15.954089839238499 14.377912460094803 12.83797833035586
Mg 12.971673160487809 11.859475041006224 17.360358847660656
Mg 18.472002949256655 16.226991806345385 12.489343807313032
Mg 11.339570942387745 14.35177907236171 16.730724652786503
Mg 16.669255868768012 16.340492263087405 15.04316008627341
Mg 15.098539872812193 12.884236508432126 10.549816924790454
Mg 11.971038088253618 12.40755287693255 14.644325768231653
Mg 18.297512260893953 13.121896547422212 11.291113359495995
Mg 12.569338600693273 18.056189805288472 12.609848227784925
Mg 11.527675492158268 17.30768060089553 15.559593669475865
Mg 19.6643355634569 15.302127904089636 9.86057745409046
Mg 15.719563622747938 12.390648743628834 18.372407047981564
Mg 11.442130960051156 16.694553085109675 18.63107876578947
Mg 15.148730773867758 13.366585235376597 15.468087801040076
Mg 15.213916044784911 10.393194969712027 15.742706591632718
Mg 13.18119342875633 14.233401958500009 19.335994669582007
Mg 16.02120115217315 15.200686420521038 19.509388393491555
