34
Energy = -30.0947184 eV
Mg 12.628326910116128 6.986847203247 11.722033080453341
Mg 7.151394209159592 12.353919508073085 13.17248489508862
Mg 7.054614318814542 13.622154416593673 10.54054138864023
Mg 7.515200102460794 10.250758126075855 10.623882259221986
Mg 12.382872414681682 13.188230401811175 10.741779417875543
Mg 7.337743820119191 7.299459038235601 11.956941669818038
Mg 14.144693064680245 12.102757596304546 8.313043581161
Mg 10.259588949178335 12.268666442763486 14.609031780418926
Mg 9.193109519513959 14.588915267837518 12.51830537195172
Mg 12.751371904342244 9.534173160180282 7.27844559034467
Mg 16.96717775945852 13.652250683776256 12.211456382648196
Mg 13.339517864217234 13.187069567235643 15.719724001508595
Mg 15.034958296687662 14.537697465050183 10.061226474971154
Mg 14.239369022701112 14.598811665130773 13.038945493567574
Mg 14.556767645872048 8.391134072453701 9.63438932154044
Mg 8.24612350528619 12.108254989720962 8.284229276680477
Mg 11.193676513672205 12.115959130553184 7.99879640850421
Mg 11.504419166430017 9.293276321434554 13.672124277106182
Mg 8.570170631989388 9.659298113479892 13.586820452211931
Mg 14.433979113547528 9.15030182639091 12.782846211925703
Mg 9.793222341307805 14.475641560308823 9.48625623205195
Mg 12.323557879152505 10.175582496221999 10.435770509148314
Mg 15.147555969722966 11.480458031160415 11.04551954108957
Mg 11.559431982710189 14.994756302303296 14.18043860795771
Mg 9.995391647517334 6.7199243069154475 13.484500541461971
Mg 15.617602599918941 11.790647299097273 14.152351088002401
Mg 12.819444000907184 11.787220025425848 13.14793263351796
Mg 12.609918174043194 14.903514214066877 8.269863826485464
Mg 9.932408111459813 11.695629925621661 11.526455406458215
Mg 9.982460057175102 8.417208238131563 10.952485809013101
Mg 9.790778145698106 9.464650385576062 8.203305853313873
Mg 11.910269096500933 16.02600574102241 11.319832483256677
Mg 7.668492482181843 11.460672313537485 16.003957002242775
Mg 11.857971269723974 7.231732655211706 8.83786162130966
