36
Energy = -32.53189242 eV
Mg 13.005032171230399 10.311714315769345 16.726222816918025
Mg 12.832675220472828 13.30414582382791 17.2825254635566
Mg 15.134772000452148 9.196381090301218 14.971209549008567
Mg 12.563114322446786 16.290828689452766 17.368166926148785
Mg 15.00396222796357 12.182785804321888 15.312781270896801
Mg 11.972227306605756 9.05533011277808 14.157969723203529
Mg 11.546265154636881 12.183650589104753 14.70845482269325
Mg 14.822410751537577 15.161389711635477 15.761065926382592
Mg 16.920388202697215 10.997097098502179 13.14486010589627
Mg 10.431358311549063 14.81036439826714 16.066185370390496
Mg 13.907150060094791 6.596730633377854 13.835351790012096
Mg 9.310647858909881 10.501196670019315 13.221943372843137
Mg 8.454883404384132 12.986835699777137 14.767707852312775
Mg 16.622195009953572 14.03183649989605 13.396051365697634
Mg 13.757228091999787 11.03329465139902 12.642759777222068
Mg 16.308575336049387 8.112910906804622 12.48504533151236
Mg 12.446577459880684 16.770803344373526 14.231045184675343
Mg 13.53521421679811 8.087452550168614 11.36918522361295
Mg 15.507381006504696 16.859622058273 13.463308971462519
Mg 10.59433349619967 8.317617084279203 11.560012022205035
Mg 13.454463939544699 14.104191466015738 13.116625158031972
Mg 10.237994447044937 14.957754311963798 13.037262289686554
Mg 11.16304577112775 12.493397288507792 11.65178386981029
Mg 13.525189356045114 17.928473653096408 11.550841378347636
Mg 8.057207603411332 12.95038181943722 11.797904707677166
Mg 15.616984074078177 10.143621914335117 10.327723879444402
Mg 15.38279674703146 15.445978883720587 10.87751353691731
Mg 17.044388251708853 12.75719771615667 10.69783073553872
Mg 12.314205004453962 10.33727665506095 9.808108139580787
Mg 10.595366174731032 17.728470247247444 11.457855238819791
Mg 12.341799459867856 15.30628058919379 10.463317774152054
Mg 9.24749283804901 10.571245718185706 10.140961382343212
Mg 14.052445388849144 12.806241048411916 10.0070830325913
Mg 9.353537039921664 15.269605874506897 10.167566559981692
Mg 11.146828812744163 13.017476220899283 8.663564331356914
Mg 8.154445685261932 12.939521806460338 8.76684559352447
