39
Energy = -36.27769538 eV
Mg 13.158141048981234 10.519170437614576 7.199462514398797
Mg 10.800689267320978 12.34157329251007 7.004209878531064
Mg 13.33741577734621 13.441585594310553 8.143062032276928
Mg 10.621625923786945 9.457274800082757 8.283561881896043
Mg 16.182487323720856 14.097398154777661 8.709972279843523
Mg 7.895047237393903 9.051798650516378 9.812050539875829
Mg 8.956919025358637 11.841104941239468 9.252032612127207
Mg 15.303135791009598 11.228907634513892 9.126128271671307
Mg 10.784258929431603 14.434470040092258 9.429111971589471
Mg 13.648906102556884 15.810947778224186 9.986540967644864
Mg 13.407940772000789 8.788628827983917 9.688263460536692
Mg 12.037442134712458 11.53915561870594 10.316708763896344
Mg 10.702980239200528 7.6086871497629955 10.615494467241463
Mg 16.56289695995919 15.879940543759432 10.921996796312353
Mg 7.28463887919541 14.278845098236964 10.137719060705972
Mg 17.282552188672483 12.5289751117766 11.108355423654299
Mg 14.316630548276825 13.294860404119602 11.536241516530039
Mg 6.582781893259961 11.538006903604709 11.153899416528294
Mg 8.039145314534153 6.563826172576387 11.419131842067392
Mg 9.464142338936018 13.298232312606709 11.921607819479064
Mg 17.10809088373219 14.447682081766452 13.443094306225735
Mg 9.73282485780229 10.314932719582702 12.119054266163102
Mg 6.904972401848232 9.075308060068371 12.77110619598121
Mg 16.850436753399254 11.535945864090861 13.962112101143571
Mg 11.742261259654754 15.158819676643382 12.310887239055912
Mg 15.047052705170717 10.29300059524383 11.945182108832636
Mg 12.063156619927659 12.152336075517605 13.298136299325233
Mg 12.534840148541232 8.92668216152408 12.661875553535094
Mg 9.799801505691338 7.597647976922662 13.591809304521382
Mg 14.516265606856168 16.08304688624899 13.070142882353943
Mg 7.637969278277635 11.919388559005608 13.97718361483419
Mg 14.582804720278938 13.43784543391486 14.761026042360493
Mg 14.209059343092873 10.438002536218603 14.942896330018492
Mg 9.833505629268867 14.208006732797928 14.761406297648122
Mg 11.170653016333697 9.818120064814602 15.272161638345858
Mg 8.173933815952921 9.277559114960901 15.452042533517407
Mg 12.434214579790506 15.485041515891353 15.26561118913909
Mg 12.182220568102963 12.62152961624856 16.360494299960333
Mg 9.298374215823458 11.857930466723777 16.460441885431102
