32
Energy = -28.5660613 eV
Mg 10.41952552445506 17.593391731188945 19.657629316267858
Mg 15.212523621904722 17.25520260699916 13.436110618709511
Mg 16.734695389672854 14.990510619860208 11.955474754115974
Mg 13.157242327049405 18.538454591946564 15.257108698535085
Mg 17.792934792086594 16.058272587859005 14.523163339011692
Mg 17.010176233890075 10.377166767778492 13.727870671521808
Mg 13.21565161069911 17.52987138286079 18.171693308463148
Mg 15.310604593732828 13.683656238302998 15.080681876603832
Mg 12.890781481662753 15.438638926995857 15.596426848019455
Mg 12.293005240873049 17.396320840190583 12.416632701083097
Mg 17.128772920602433 12.035850079239776 11.234585182142851
Mg 10.649444441299444 14.699966375166607 12.890678588631706
Mg 12.904882088873258 12.637570468784826 17.181312475998546
Mg 14.651591403690468 14.862987631431261 18.52196957420429
Mg 13.768584059561176 14.607781460244052 12.775004970928865
Mg 14.656667405799066 13.473934331924742 10.032712431596407
Mg 14.603445103000066 16.61543440572899 10.459575048144533
Mg 17.78803829890687 11.356003099263408 16.429175795036574
Mg 10.182132684145616 14.02721368238596 15.984534207252382
Mg 15.642001359554015 12.053603660021102 18.254273481953174
Mg 10.294861885021673 17.036751254097975 14.718932545665538
Mg 18.188994010133932 13.175965508013372 14.017836466123304
Mg 17.504793710834274 14.306029562549595 17.099396520032954
Mg 12.216395937357893 12.428248586398663 14.331753551347953
Mg 11.996851613719326 12.533440727226452 11.271461735167815
Mg 14.681430437766215 10.737044768442804 15.61088977638823
Mg 8.915922554102002 16.335939554843165 17.40066036182007
Mg 10.639444011258663 18.867197147983166 17.00304333812902
Mg 14.447464705165412 11.43900122695681 12.556728962024353
Mg 15.614617814705397 16.783579269563585 16.351491668908196
Mg 12.02876915213675 15.267311456972884 10.071852841260982
Mg 11.600721881952788 15.001309394492182 18.590862522092138
