36
Energy = -33.53694905 eV
Mg 7.535335538540898 12.638652382438192 12.928460400327305
Mg 12.29336196260095 9.73900496112056 13.635480942295336
Mg 9.801836122355382 7.975492114192279 14.458393586891123
Mg 10.376929755768934 11.590851317329289 11.751012310027068
Mg 12.164688067778023 6.393624562758783 13.285071780726367
Mg 12.412317279853873 7.242572408208931 16.100963145872704
Mg 15.118126367818304 12.52856517948988 15.22834167601128
Mg 10.607127905750614 8.221981925710873 11.493885905434174
Mg 14.442275688219874 15.207817838904067 11.30331466667289
Mg 12.346347754820673 10.191064987875972 9.800432357722093
Mg 15.344148806594024 10.75743777135656 10.360971381517817
Mg 14.734309171986405 7.489257618263653 14.287919982812019
Mg 11.503942115584698 14.202303401983292 10.59088862561175
Mg 13.561097593495381 12.752847140233941 8.80478237220334
Mg 16.39304403813478 13.502165028118549 9.62530405753992
Mg 14.121097862463689 9.823652704728294 16.1875432225999
Mg 14.575871677712948 15.560967090224164 8.202760220096783
Mg 9.385843989375545 11.072227258009953 14.673813156438214
Mg 8.609573756818252 14.963689340888472 11.421321502248611
Mg 9.933330230863435 17.063787888675446 9.695421248235197
Mg 8.739515058626038 14.754335106964959 8.348323783190365
Mg 13.346454213436687 12.264909227478814 12.22155755288016
Mg 12.8800291333984 17.36509587822734 9.76606550245779
Mg 16.356217804124444 13.08064236847666 12.54291492568622
Mg 13.966595548662925 8.265599485676788 11.469678164173397
Mg 10.477221901567694 12.270708943345955 8.40579936320411
Mg 11.450449813341919 16.595582082848537 12.362393483010104
Mg 11.07367871950673 9.730559741768534 16.710400865488065
Mg 12.126921236619793 12.308309929880416 15.42349921559491
Mg 7.76360937085129 12.310758019455037 9.973892615057741
Mg 13.252887782457758 14.718199766881105 14.01887044239358
Mg 15.653303738479934 10.216157430886879 13.338418836562832
Mg 7.943933314985296 9.685059515815158 12.2334354470026
Mg 11.643604202389284 15.229505580050901 7.672319930244754
Mg 10.313531760199842 13.980589718595688 13.720118448373114
Mg 9.237924393250099 9.792507961570887 9.442712561830827
