35
Energy = -31.74424354 eV
Mg 1.2718426093282813 14.872685280007166 17.26631171823133
Mg 13.23390361346611 18.064233753593342 13.395919487540242
Mg 10.857670480621744 17.36635411585449 14.97782527101599
Mg 18.156319432995556 13.94535080860319 18.942800976381942
Mg 16.074625343637766 18.465187472989896 17.466102612227434
Mg 13.180805741828426 19.066088343953002 16.236860943988017
Mg 20.779795899037286 12.734689835527599 17.91253021163349
Mg 15.654537486273021 17.26074312711879 11.584389969203578
Mg 15.68449079219788 15.794819014358776 19.01926023946267
Mg 19.77489373871506 15.081581863526639 15.840252959235201
Mg 12.768592697776128 14.836012021494996 18.770532624145446
Mg 15.889001575830491 18.119315647279677 14.538418943518995
Mg 12.677544534906996 16.21014684433697 11.226158208556521
Mg 14.972821244653638 14.975440811307209 13.474195225367563
Mg 13.578390673846119 17.89239013378187 19.020625050708507
Mg 18.17426501493414 16.471017652161834 13.396505772424367
Mg 12.654898397520427 13.262745510029017 11.062747225080974
Mg 11.88217838796861 14.69813502857719 13.799820438688961
Mg 17.444543822386887 14.783254703443856 11.078590750734664
Mg 20.9511977901465 15.267357268640959 19.59829337124482
Mg 16.699204674106984 15.282565757931215 16.046464033382087
Mg 18.001760813327365 13.454681848190509 13.691368106946646
Mg 13.790720912050315 16.079301995936973 16.121051251003927
Mg 15.576088546926815 12.253545122731076 15.026801094524751
Mg 18.657521029630814 18.099464454199126 15.821871955327396
Mg 21.237834801063766 17.40778187733916 17.3360410774513
Mg 18.198467374971937 12.291731558099332 16.4378963041607
Mg 10.933258889292452 17.434709925867246 17.933025443722816
Mg 14.840660301363902 14.816396485037004 9.808676432758011
Mg 13.060040215475041 11.805403029565435 13.500088842509625
Mg 15.554539042915577 12.43472307812422 11.839316170584782
Mg 18.50394366319791 16.8934177138259 18.485105769882136
Mg 10.566755499539465 14.853058544867718 16.61279881628339
Mg 12.915225152057362 13.028386401193629 16.236299705340652
Mg 15.355771384436247 13.038196655170674 17.96197495477034
