35
Energy = -31.64825195 eV
Mg 16.10757050661941 10.70287606457662 14.280319731851042
Mg 12.145741799090677 17.185511689611864 16.314300723163807
Mg 14.346812665904142 14.616837873614948 11.303862146677572
Mg 15.40056392466303 11.831876595685152 11.533345417937417
Mg 14.302831013437906 16.946342698368493 18.630516814605556
Mg 15.98081072699705 20.13048496160533 14.064418952197187
Mg 17.444570674878268 12.654468591444639 16.585218677106045
Mg 15.225727336103704 18.200960453419775 16.175384563871408
Mg 12.354473002008286 15.780411217651586 13.504631117174316
Mg 16.019577642808922 13.696171393325201 14.040170936250426
Mg 17.1221678393195 15.762121287779046 16.576256214282935
Mg 13.160257153890345 12.753013205629891 13.548248795010801
Mg 12.390218164050735 14.645630884070991 18.418625867098484
Mg 13.177345437324881 18.764191504444955 13.863806228500462
Mg 16.57688682538962 9.543374362945016 16.956432970104427
Mg 13.577684657447069 9.789727323844517 12.826785780313925
Mg 11.359113673541382 13.834049477004758 15.728830429885688
Mg 17.359149679283643 14.201698143980828 11.381187537414041
Mg 16.185682687790283 11.338116393428576 19.17653329494326
Mg 11.987247912096178 10.547623455556673 15.369278143706627
Mg 18.940304773153752 16.61122120580641 11.867865784642962
Mg 14.24904431347972 15.18384075231073 15.861326543825651
Mg 13.233515529981258 17.336241715067224 11.084280913046586
Mg 18.13764191841896 17.90877569123888 14.637259186012772
Mg 14.262646379799646 8.486332083274627 15.409561423308293
Mg 16.239709503067765 17.051938516937977 10.34301191550921
Mg 15.53415216975137 14.186800980947465 18.667454220891823
Mg 13.619707371519244 9.762834465451814 18.12910863209679
Mg 14.82164535439877 19.711124587929373 11.41637117219373
Mg 18.76599268218588 14.794691109551637 14.234722888595027
Mg 17.74371791072456 19.259476886795984 11.841271527768537
Mg 13.491891967163205 12.21858224227422 19.93922617689309
Mg 11.333714405629998 11.827107543017409 17.986181963458836
Mg 14.31693212827784 12.227908205247116 16.468443676412164
Mg 15.619195729902332 16.710573652506344 13.402016719235442
