33
Energy = -30.46049457 eV
Mg 12.110874909750105 12.560101767334082 17.1342082817006
Mg 10.22901549789471 14.723825508035958 16.528964625867506
Mg 13.359451551016615 14.810308796677266 15.67221698920952
Mg 15.776629417440905 13.985266701163065 13.848464066562535
Mg 11.5820854067377 9.831615773805563 16.2649723340187
Mg 16.55597405740048 11.081216927551301 13.36174886849019
Mg 10.985824823912942 16.420273458899786 14.366102314958377
Mg 9.501765026793969 11.881048494809537 15.492754940951972
Mg 13.949039382194272 11.503999148566901 14.899830896783161
Mg 13.357159779525324 15.479066281208459 12.67601761325033
Mg 12.884805169044109 8.276939739321401 14.191404579028417
Mg 11.56443786467379 13.193193303940102 13.723765721610725
Mg 9.700834639552117 9.057481759913747 14.08675478555634
Mg 17.604059435297057 13.14604398263628 11.3803748957081
Mg 14.120017848835841 12.501759341186155 11.7803894463839
Mg 8.732906540845656 14.431533463538539 13.776875200065303
Mg 11.93210594431687 10.52384600756666 12.591817687709007
Mg 14.75148935364395 9.04807063657892 12.077855791087677
Mg 8.867624405159948 11.6164484057565 12.531560760068501
Mg 16.60210085926075 10.602644138345731 10.354429225468209
Mg 10.583986312354202 15.390684422803218 11.46117447066818
Mg 8.153069257903987 13.903081450613504 10.678755991197102
Mg 15.747165897773483 15.266080138224991 10.902440190389461
Mg 11.220098881091392 12.47773925334731 10.600224931193837
Mg 12.967147037142167 14.790921133638184 9.60314004516482
Mg 12.197789001654469 8.082803857078758 10.785284062121768
Mg 9.819594059480139 13.454058275660993 8.088337502329276
Mg 15.419652645360003 12.999232026515065 8.951805734902564
Mg 8.21102250623866 11.260930472617611 9.374459395496128
Mg 9.305671413407275 8.974592783417323 10.973519855167229
Mg 13.634510840439207 10.504481275148818 9.603770118060583
Mg 12.614787788933063 12.537912905070106 7.654525498659825
Mg 10.811240201356847 10.102349903133264 8.581269057658528
