33
Energy = -29.05066656 eV
Mg 13.536516371417665 12.737246042326937 9.456794376053207
Mg 7.500420998579764 14.908459483185052 15.519996970771416
Mg 8.0956093049328 11.94221076430363 14.863824004472367
Mg 11.346554140413717 7.89266160232234 11.447018634626124
Mg 9.028570950924426 13.381728340556784 6.7940089277776945
Mg 14.586757683751474 7.398208683684506 11.829512293982555
Mg 7.361462685543349 14.318201825964682 12.682346656517385
Mg 10.761630198290641 11.374395272254919 10.489155242016562
Mg 12.307256750706964 14.938015782789245 11.594627984847513
Mg 8.326399962605217 13.360023662888043 9.860055457696049
Mg 13.405286463288068 9.836801468448272 10.594393622437982
Mg 13.241305006751444 6.921109224072423 9.091400052233876
Mg 10.08151175395976 13.853662531745284 16.39092692039232
Mg 15.519401114116151 10.24133735980193 12.921488209252553
Mg 12.473000702075952 14.174387201984688 14.640396852249296
Mg 9.513327226497696 15.86603534254862 11.048510333334745
Mg 10.127077060957985 12.98552246932532 12.878675171771741
Mg 17.36069914529138 8.642025453008293 11.275104187100458
Mg 10.995469587434147 8.960748838721964 8.531346402501095
Mg 13.093934740940595 12.167561424033826 12.463122935314491
Mg 15.914302567183183 7.954415100328794 8.864155939721295
Mg 11.063919248952306 11.202517652359116 15.53811376763568
Mg 9.967002585243556 15.853686728249123 14.005386008640233
Mg 8.666859117704782 8.87359895717633 10.578907277774404
Mg 13.997991904215295 9.938977114679483 7.668298812263516
Mg 12.728751053025114 9.237884086436503 13.784890975553006
Mg 7.52797055855542 11.304528071932591 11.887422651855681
Mg 11.48191135007228 11.769908381013947 7.279569256194778
Mg 16.071799720613726 10.903981857576637 9.76436818354993
Mg 14.00876397381256 11.59725445093168 15.29857311089698
Mg 8.56020986841232 10.814454507707556 8.242278500811109
Mg 11.08969039835316 14.37047374342743 8.939302539454077
Mg 9.744673976219467 9.764014745055439 13.262065911141262
