31
Energy = -26.94044111 eV
Mg 9.86186454038412 10.416433907969363 11.72878469752315
Mg 12.918310194864258 9.465099354922655 7.559778574361643
Mg 13.011070086838535 12.054683426233115 13.675532330480085
Mg 13.624249893302188 6.495356356421251 8.183106320855869
Mg 15.276451558731903 11.16265573622663 8.40243689373836
Mg 11.756255745772926 8.050594502594503 10.157197658538017
Mg 15.852224989491408 8.256180453679168 7.313286714232423
Mg 9.624990779997587 12.826615669063647 9.342803425866096
Mg 11.86337403736707 14.765044767410101 9.860888872279444
Mg 15.27929051220867 11.767065895457998 11.456088721479363
Mg 13.003677406392411 14.96797318346776 14.850837390135862
Mg 12.254975335694528 12.478342120468977 7.814917764480693
Mg 10.13848343515397 9.98439451285918 8.51118420920094
Mg 10.65215907347583 12.996287716206874 15.438655847835381
Mg 10.617705669476459 13.310035548944647 12.267263755252241
Mg 11.377750755054764 16.244950509221812 12.58463397944213
Mg 8.403877430425352 14.615899521705837 13.92084525492523
Mg 10.667877341902498 7.4642435175844835 12.793866336031865
Mg 8.219284460138335 11.525390405175436 14.300355427793589
Mg 10.860200353762458 10.05259378509544 14.636070845206742
Mg 12.44625498496038 11.303544317300814 10.532570799903201
Mg 13.071179899325518 9.220491971938376 12.722499139564771
Mg 10.383176636225537 16.202089701697815 15.409341166195793
Mg 7.456567068874383 10.637000415028602 9.436146870540785
Mg 8.196499690789079 8.507923150347558 13.86005730864792
Mg 14.673519001509028 13.875056261450277 9.279767408584586
Mg 6.455996594615025 9.959388316012763 12.075089185035704
Mg 8.428285006556177 7.9694553595649795 10.69509578022565
Mg 13.996563416397107 14.551312280238557 12.078217347469693
Mg 7.611477782957401 12.767363539760089 11.598848413977821
Mg 14.758597550441898 8.848725029039867 10.25602279328256
