32
Energy = -29.55825948 eV
Mg 10.728145400300123 11.298541686528656 12.276841546635287
Mg 14.60660600959326 9.504598959772721 15.868984140620562
Mg 9.445329265525778 13.230047990425586 10.254352069295244
Mg 11.30479454117754 14.996635285741169 8.838871957717437
Mg 10.149266708336766 15.949848692626373 11.549041720050244
Mg 12.243180247187347 10.89257246142272 17.154970425901187
Mg 12.458544659616859 13.9703559990444 12.103048101808701
Mg 14.109313453264718 14.259737554914006 8.968607720231503
Mg 8.870235903972508 13.616732345945996 13.083041727994438
Mg 12.125803089853669 17.464104658005535 13.250023513047342
Mg 17.549952297578763 16.094317251183625 13.566264441554727
Mg 14.126697301165853 7.641063510770474 13.587537857310304
Mg 12.183283763410897 12.02049417588048 9.683895931584837
Mg 14.263435118343377 14.827153279393096 14.376858134381616
Mg 12.217702225747919 14.03456784564084 17.003072942305927
Mg 17.024201726622852 11.227689117359578 15.463925249331055
Mg 17.006267849895483 14.318683284532247 15.92386529512572
Mg 13.179911483988123 9.766362988859873 11.673629465400829
Mg 14.803370904484977 15.470366585046863 17.74999506399604
Mg 11.801476795060276 9.434029102140986 14.521613004444724
Mg 15.66398289488349 15.103204775521645 11.352044700576887
Mg 13.660381671223195 11.929263136878445 13.990756262949196
Mg 14.978517158776901 12.139365110871116 10.968694466490907
Mg 16.8672763137328 13.03232403835595 13.122731545660509
Mg 13.138061729758226 16.669959644365644 10.591421736576097
Mg 16.067203269026773 17.3234549815438 15.832673493814426
Mg 10.580647504456143 12.281680233313532 15.13314711696388
Mg 12.982094109989294 17.11094577702519 16.08814605929009
Mg 15.052540539614911 17.617269762523428 12.992875734918746
Mg 15.938046843443672 9.990356975788607 12.967291456626082
Mg 10.859282459281477 15.260709318199805 14.645471979933312
Mg 14.795974003459493 12.515051824185871 16.919798660488304
