37
Energy = -34.31232251 eV
Mg 12.875473658648625 12.265368724503539 9.075510797635358
Mg 11.586021723706883 15.095148810168885 8.937617158515506
Mg 11.418873966544949 9.580624782786309 9.051733200399019
Mg 9.858613824072604 12.516822945010608 9.038472142998518
Mg 15.798260026142946 11.827495680005372 8.319454017323391
Mg 14.399627086735475 9.530861319369508 9.73740855674338
Mg 14.729904235064906 14.575058644482498 9.31747884190152
Mg 10.359217781607917 16.748810516305284 11.096864475866157
Mg 8.412439909541419 9.891483814511535 8.828400353303714
Mg 12.463000515320788 14.165451287398126 11.695370165808708
Mg 17.32932256835168 10.265068839016612 10.36930140532223
Mg 8.247527510413564 11.078765612321163 11.56796061373174
Mg 13.482259746032005 16.892071374599826 10.868450232890366
Mg 11.262039049712879 11.380126132440056 11.602314105203662
Mg 17.48977511542819 13.232734555869134 10.241638657889705
Mg 9.284342798631666 14.016035143735891 11.59843268836099
Mg 9.517974045758047 8.322006167919916 11.082733203672644
Mg 11.86392883899738 18.051303685971632 13.178789712800828
Mg 15.690187859025277 14.69924898131923 12.166869956426977
Mg 14.37030150230833 11.84597718394377 11.862134093336248
Mg 12.514438554143629 8.548928127412776 11.854510841634967
Mg 10.731132339743118 15.256769453417562 13.983015789313692
Mg 17.2226120648132 11.789280303209821 12.982071384107545
Mg 15.574364655340002 9.13133537013194 12.625210932300586
Mg 9.371279743023639 12.320595397982549 14.121395770566195
Mg 13.715756374995305 15.83267544465409 14.018293617042149
Mg 12.346331393705768 12.438996776369134 14.211965310779933
Mg 7.781886957768592 14.990531408463994 14.669530856236111
Mg 10.153349264494857 9.351249691326116 13.774789765161984
Mg 15.18365811343705 13.268274580367931 14.807585037149185
Mg 13.169801079278528 9.503698939291375 14.640118062446597
Mg 9.285046753454315 13.714410297429565 16.933583777794688
Mg 15.974952677859218 10.392925295946597 15.34825899174102
Mg 12.510959102341753 14.391469530532516 16.46928443132736
Mg 10.752593194112524 10.717480190397861 16.382227471487333
Mg 13.695369515406751 11.525096644349514 16.928835375185788
Mg 11.406938074432507 12.55238435876704 18.587353820136975
