34
Energy = -30.06225256 eV
Mg 18.342409697692776 13.539357384858233 0.8000050000949142
Mg 14.463174066292432 15.291579626160559 19.0718487871875
Mg 12.602614091756882 16.77166399171237 11.139917622432009
Mg 19.30726594953457 16.000727927543217 20.61760569776801
Mg 15.112811028557278 18.521656679053912 11.614829280281421
Mg 11.816585918674921 17.8748580364854 15.39830808198521
Mg 10.201392684837595 17.519662569608 12.826897029840321
Mg 13.896937805164006 16.18251165934387 13.872251314786142
Mg 14.29038082655702 12.603117120612023 17.46818303257981
Mg 18.03446802837153 14.113127923366177 12.002128133839427
Mg 15.658001478961411 13.671846221831338 13.647509498896937
Mg 17.936189010083762 15.378654633113493 18.039553768413708
Mg 15.093075052824027 19.065271818783426 14.61939616893976
Mg 12.622224851326724 19.3472033768477 12.889357933639202
Mg 11.020022667999074 14.964903955842855 13.962444078360944
Mg 18.51929403934855 14.946494894231279 15.100694119943551
Mg 15.551998002604572 15.1558722929998 16.160799003481046
Mg 12.513682175981488 15.112048642719673 16.64396781771778
Mg 18.535133556742053 12.096036889514846 14.22787460534297
Mg 15.60067446082864 10.925530391896174 15.130792007563503
Mg 16.590524853338607 17.722007684886265 19.225684065898278
Mg 17.380837546944864 12.617046152472946 16.937933774308018
Mg 16.26717281062623 13.004367568683334 19.76226276642621
Mg 17.299482660832382 17.76451736521497 16.213241075291222
Mg 19.4639940474965 13.166102904230579 19.31812407779382
Mg 13.004120676631482 13.841891130509193 11.884037073494895
Mg 14.06295268231006 11.007289471717066 12.528474864554653
Mg 12.932320545419834 12.794432202417893 14.810607159096477
Mg 16.91344621148448 16.787354450372842 13.395244565047044
Mg 16.981873216481404 10.714633104724927 12.210568036862062
Mg 15.472934509440364 15.643785669679373 10.963600431125867
Mg 14.2065936587302 17.789796854761878 17.225540495208257
Mg 16.370150160030846 15.636627962058958 0.10911950746531272
Mg 15.593476235877585 12.719645246944312 10.522506462114439
