34
Energy = -31.01052145 eV
Mg 0.3650723757819782 16.734034484221347 14.776744125092224
Mg 15.330300163774229 13.289457068029343 9.247755109719943
Mg 16.490508607087783 15.738861964795854 14.247787998359541
Mg 11.515263127636471 16.81565641096083 16.975538026916162
Mg 15.133000224794102 10.50261696917766 13.421937206748536
Mg 14.629056564747662 12.104529234153482 18.242934512841032
Mg 15.747677259691878 19.269791412192678 15.661349031164942
Mg 11.863155520370132 13.400417512540157 13.143165707585956
Mg 15.05014542791328 13.543248155453895 12.72284071599371
Mg 10.88289602050261 13.967659573476888 16.129442753813567
Mg 17.67377258428591 17.21025418033499 16.79085886261908
Mg 17.918582762675886 12.11044979822633 13.383304385133565
Mg 13.780484245288665 14.909180910092127 15.386298875578357
Mg 15.57967467591259 16.09571802638525 10.556306180757256
Mg 11.654280877970335 11.895319954177861 18.117815807286252
Mg 17.707853664613545 14.017749913718518 10.978287475904125
Mg 16.54738657008334 11.153051863108043 10.864272664295612
Mg 16.135953023969368 14.73573950093745 17.712460673136405
Mg 10.278603559618885 11.054025198730828 15.38403409361158
Mg 10.834908042153028 16.226109761794394 14.111366572944586
Mg 13.374929223107452 16.28286889988118 12.56200424055895
Mg 13.09702342047794 18.179148802841492 14.812238428914425
Mg 16.114893101819984 12.616961133357389 15.619599339374034
Mg 14.532222218820312 17.223648661712392 17.45550514327199
Mg 0.20743904681192954 14.364437656440948 13.059597040965148
Mg 13.257159439553616 11.860439966592892 15.446737099193742
Mg 18.664606464650138 14.222900638803052 15.898426994809114
Mg 12.864672992454613 14.38605664613475 10.376923603941602
Mg 18.207734182621525 18.878859976399717 14.154883665780622
Mg 15.55555968599155 18.36359460897807 12.699340065833521
Mg 11.990733727186894 10.108041806972416 13.214102230600622
Mg 13.04458009414422 14.648405215999889 18.38041175217882
Mg 13.486613237912502 11.456776201669133 10.957518910464282
Mg 18.360833370939655 16.843846132005858 11.949195247207387
