39
Energy = -36.11134984 eV
Mg 9.456760177946588 10.419254066867216 6.7472709531248585
Mg 15.753794500245226 14.902469284145319 13.00618122628837
Mg 9.956259449503614 13.23696134809738 8.067256459376948
Mg 10.317982053142249 8.551508900921498 11.524321276327644
Mg 10.166364443552714 17.691180590803928 12.428163432415548
Mg 9.139592996114281 11.015201238431896 10.029229554909609
Mg 12.566711821268024 14.629215031681895 7.677860626705373
Mg 12.342088754358917 11.654408743281216 6.994556154073791
Mg 15.095247118123726 6.748106719217681 12.882522044940934
Mg 13.51337235393203 15.098431424920786 15.23545330394827
Mg 7.817675410354972 16.012394249629956 12.995732561005392
Mg 13.222407266069322 16.569713518891085 12.61402483424135
Mg 14.693534938533677 9.29756473081183 14.597108387354133
Mg 14.097422645060758 12.027767136116216 15.98821671066584
Mg 11.589071882828797 9.503044438705613 8.977241517664172
Mg 11.255919911156624 12.949826955256817 15.697595954544301
Mg 16.00674896423163 9.377902498327414 11.818311688792468
Mg 14.43318591033361 10.1027664570587 9.218813896179713
Mg 16.287337043964886 14.196714344264432 15.892018862203033
Mg 8.99416570580235 13.896153820147957 10.876538993627593
Mg 11.811000118580951 10.104976703382068 15.032897328871968
Mg 11.410912705089478 15.517638033439233 10.343616838526495
Mg 8.794769182577452 11.13826930927217 15.265486300856972
Mg 14.856496224670817 12.871389458826338 8.135325536516147
Mg 15.458626610799737 12.284502428864783 11.03828803099165
Mg 7.767939352064174 9.914112917150385 12.636511802744693
Mg 10.783698239224613 14.729877896394322 13.28270069615967
Mg 8.917503990024013 8.074719452934186 8.504097317195331
Mg 7.349429372131543 12.857722672722687 13.091787121723902
Mg 16.271045812636267 11.858998195756723 13.849410669802072
Mg 12.996271671808692 10.187359660512787 12.06796877394941
Mg 14.314924012595352 14.951294324327641 10.318714139859786
Mg 12.271279139354498 7.370820442725382 13.578410671985296
Mg 13.2587982100035 12.99784639896784 13.0457138848044
Mg 12.191618546080589 12.456109821310205 10.18236701365728
Mg 8.55549169828903 14.235808359345793 15.435404274975
Mg 13.245605868511952 7.489083708466056 10.666532597036982
Mg 10.438489579486031 11.698467096033035 12.746674088260582
Mg 9.484179578814297 8.264140881256345 14.393397732959668
