31
Energy = -28.34137689 eV
Mg 8.41229837079478 9.579438408921432 14.312134785315122
Mg 13.999571493631189 11.482935193444886 15.307480724371533
Mg 9.944443468889988 11.88614116241894 12.234453750543022
Mg 8.918064635947495 12.363484705042652 15.350974876113638
Mg 11.808900930156424 14.510337785305962 11.807790794165525
Mg 8.000137478669666 9.160886906320018 11.378883268327263
Mg 11.090614152561836 10.5271227347891 9.811430944440806
Mg 14.649817862852347 13.70159848608432 13.266377750627388
Mg 14.263619342542285 11.659842129694775 8.8598571705956
Mg 8.090514055342457 9.452270551455102 8.435700334560904
Mg 14.386909201176287 14.380820576908349 10.305325220557464
Mg 12.177360685402514 11.318054688142013 6.7235651411783595
Mg 13.190337196417241 8.768032131729452 8.225111032868774
Mg 6.892649334203327 11.839390294014578 13.165315521356417
Mg 12.931798773667879 7.471696284551102 10.891927492595958
Mg 10.476647412075014 8.972931404720795 6.772228016773865
Mg 9.383440752241775 12.146267747940477 7.743960380695824
Mg 11.2815015007525 10.345460427754166 14.890379099637471
Mg 10.207266072009995 7.662924710175156 9.597231150919612
Mg 7.523294274511081 11.879931942636517 10.142637570675866
Mg 11.744720264220671 13.379349313512748 14.565900953632188
Mg 6.69546222190512 14.429655698814003 11.721406916018747
Mg 16.34480156813708 12.379676431547383 11.016578791759798
Mg 11.858299530907042 13.455964671644645 8.978383330339048
Mg 15.038935604443859 9.51639530364511 10.750247443646526
Mg 9.099852707652028 14.628001351828221 13.3897863055416
Mg 12.969903224017374 11.547278891799436 11.935544507958168
Mg 10.771618727026242 8.71210739050765 12.464985247294535
Mg 16.05042315925315 10.754719507100845 13.413004414873015
Mg 9.276560477798231 14.32183042864037 10.145451954320325
Mg 13.651973906355302 8.897191124471485 13.527683493857477
