38
Energy = -35.27369765 eV
Mg 14.143366769328722 7.913763012260765 12.749255086030608
Mg 14.452327477404523 9.55244477700083 15.338692730378115
Mg 16.413673953300908 10.07535751052973 13.071286017447827
Mg 11.441361897834243 7.7376878254003225 11.393885213880639
Mg 15.96430745549042 12.254397337047761 15.12743561880946
Mg 18.064814541532485 10.820401154314188 10.578648583455848
Mg 15.204122814945885 9.806447947494298 10.344187251453954
Mg 14.374401846315044 11.499429641276226 17.682111653233758
Mg 17.69812051973827 13.004496262598423 12.548098756311882
Mg 12.75923694601153 10.49224352034881 12.050995558383518
Mg 16.082035074316455 12.795607782920499 9.550231041686477
Mg 16.473368822593365 15.134873384031115 14.47818757097768
Mg 11.625642037578652 8.978942008203882 14.379377696933348
Mg 14.367679907689629 14.2737216603244 16.70840267668644
Mg 10.636069252236924 10.116923227499806 9.803637253184895
Mg 13.203820556731083 11.754555872102536 9.263172221930551
Mg 12.022054685352035 9.877000039115018 17.342163205493964
Mg 15.844085452758797 15.37464978065984 11.433064278856676
Mg 14.72120016197463 12.634445755798176 12.257539718864857
Mg 9.859806473820361 11.195290022834126 12.766397439229856
Mg 12.829450277483202 12.066357466753047 14.67612958453711
Mg 13.470463473312222 14.679256734580127 9.64067392606339
Mg 13.475541750061534 15.021424380748977 13.739917983904517
Mg 9.797416221880681 11.020346555379003 15.822328648113894
Mg 10.538628776857351 13.124083414434919 9.09824178392215
Mg 14.640242385809696 17.166451743628922 16.150699961187136
Mg 11.815697965715025 13.385764896581252 11.856021648315508
Mg 8.135870575363212 11.686720381255386 10.22967736129047
Mg 11.634552390246194 12.99540509492016 17.374148220301667
Mg 15.4665944255993 17.8036139126378 13.253295872653153
Mg 14.745559652468602 20.047301145756542 15.267704464887816
Mg 11.772291576061939 15.902539127301319 16.16561748011712
Mg 10.257248358368077 13.748251584542643 14.606455998769338
Mg 13.098434889157623 17.10976542702027 11.400002211066997
Mg 12.55934135465031 18.29136104061297 14.183721988995742
Mg 10.653729216549229 15.957516100992242 10.084411055895051
Mg 10.60081850218534 16.288816886602525 13.068756794500214
Mg 8.87015315768178 14.098728553717763 11.774214541752478
