33
Energy = -30.57819245 eV
Mg 13.675247550855037 13.459529939247648 18.000962146369456
Mg 10.749089078829352 12.79309323618922 17.23702557346045
Mg 13.05025681322016 11.154796293804798 16.206434857449256
Mg 9.540857053852754 14.882157645610022 15.526118435496839
Mg 11.279795670563198 15.576638435855495 18.01888531387578
Mg 15.611620255703246 14.343207465493656 15.661488482338397
Mg 16.986260045729857 15.957194217315616 10.406097953172926
Mg 10.693162793094068 12.008429857080374 14.279828779612574
Mg 16.546272603343404 13.178240778207469 11.386939949480192
Mg 9.007549360397064 13.8304004958522 12.61142266101909
Mg 14.399734660082974 15.166753278509258 12.638444872556873
Mg 12.064410965916345 9.350172253126946 14.022221920414664
Mg 12.056256033747509 13.428833325911947 11.832267827625433
Mg 16.580339218273753 10.30656216894909 12.289530103753961
Mg 16.009476312102382 11.511138962372188 16.627253286192886
Mg 15.012143214194836 9.297477395489889 14.705565639013146
Mg 17.60529462480936 12.582288414544458 14.181629318000702
Mg 13.943394436783898 8.925319980719337 11.799892837668905
Mg 12.661972382365606 14.291317620625685 15.041362303396507
Mg 11.418761401005229 10.550561706156778 11.395562016302463
Mg 14.411898449101239 14.45017230886729 9.52909225498964
Mg 14.484751766447365 17.49486566617937 9.88558661080653
Mg 13.146729787992257 17.99321154373759 12.667958485835037
Mg 14.325532067218042 12.11431321860805 13.551221246852196
Mg 12.004329578024878 17.240631633908258 15.563453166874758
Mg 17.409194980390907 15.53940313571214 13.37597386372076
Mg 17.971335669311735 9.791825154527714 15.03246565361661
Mg 16.196674659452427 18.090294866375018 12.260545554554913
Mg 15.05888794605566 17.226423136214592 14.951130987853455
Mg 10.907130611865592 16.03495896172421 13.089387421371267
Mg 11.93938784977019 16.084582719626937 10.32482397306023
Mg 14.165195235790055 11.557570032499394 10.432886522160882
Mg 14.106069599964657 16.36623031173354 17.628094648989528
