33
Energy = -29.17107086 eV
Mg 8.30399896841607 17.94448022353293 13.233984962126875
Mg 15.544138766369393 11.06277903736363 12.405758728317448
Mg 14.209063301779546 19.044821817881477 15.207284495828368
Mg 16.146818120635015 15.614501522397958 16.630948966859933
Mg 17.451901021013427 12.83959469529634 11.275108329126814
Mg 11.76209967886427 18.473440458657507 16.849210627028807
Mg 10.43566309858304 17.35021369578226 11.295025641440734
Mg 11.428337366673125 18.549156075880276 13.875394085056934
Mg 16.934033100529216 18.541198734981887 16.565744674470768
Mg 12.084663910430493 15.577971643254925 17.77156898165313
Mg 16.84421989253024 17.313379227140356 19.554095485547396
Mg 17.692013709686787 15.751683956268645 11.931396614706264
Mg 11.86796472338333 14.92566274588246 12.321210120131818
Mg 9.966534708164367 16.50452444204398 15.58344481243664
Mg 16.122907037865986 13.954126578028673 14.29228697264992
Mg 13.29754894681178 12.674843150345957 13.627946607821755
Mg 14.81385733330576 14.62320898067384 11.652270269987785
Mg 15.003721924476913 10.92725666097293 15.389870547338854
Mg 14.750338646507773 14.851711693425225 19.161941936713493
Mg 17.845863588424354 11.473838816894299 14.709886451800875
Mg 13.454460067161477 15.917139175241786 14.90706288738258
Mg 17.785911758102113 14.494412186517811 19.2445970735137
Mg 11.00124664326541 13.810073918563909 15.21987558903157
Mg 13.566151470769737 17.47058707878048 12.10641747214828
Mg 19.344757135238453 13.811200517512233 13.476846261281363
Mg 16.01586749607397 17.196417737176994 13.805680300781907
Mg 18.721011131634995 16.4839481929149 14.787904571156528
Mg 8.983719066812464 15.080395654082919 13.100213988529248
Mg 13.730576075038364 13.328251038702744 16.6347385793829
Mg 14.286501704752443 17.79550449162918 18.135850570102438
Mg 18.943726837376374 13.88042838150481 16.451093776847824
Mg 16.459512232014298 12.46871227793062 17.501297916644067
Mg 19.105199744500734 16.72348182193462 17.744631277603826
