38
Energy = -35.45839829 eV
Mg 15.70217705924259 8.646365174301755 15.414064913089392
Mg 15.687713531545867 9.12493545256314 12.414297927981865
Mg 15.671122792528942 11.565042047794735 14.4793442638664
Mg 15.803931906965587 12.119202152685569 11.576412508651456
Mg 17.618690971172825 13.880983538836752 13.643045685550558
Mg 13.015936680534367 8.343062301920481 13.989764814341433
Mg 15.11512581985052 9.969873742841571 9.514169657343096
Mg 13.42742949574156 10.47325472804943 16.35534390486421
Mg 18.223436895018658 16.541130300692256 12.47149262413093
Mg 16.654684030945447 14.74101921576297 10.518521708184466
Mg 15.805129493635553 13.862766482205322 16.39025816517857
Mg 13.186145457708433 11.028574616005452 12.689984751912801
Mg 13.147806510704665 8.341841444618211 10.914715958067086
Mg 14.571712685087215 12.890353742693994 8.868769553067903
Mg 13.250843552030949 13.3971850129264 17.975898251125656
Mg 14.763037761266302 14.662122755844427 13.248714153515026
Mg 16.54785316008141 16.52526420899712 14.95616754012474
Mg 10.677081086583762 10.24355286738018 14.74990447211274
Mg 10.822127966293948 11.796117999127745 17.291735698994426
Mg 12.86526614995181 13.006141418363264 14.875735610797845
Mg 12.844503490157136 13.661147844187594 11.331847635707295
Mg 12.207248577688395 11.109334288357124 9.622589688327004
Mg 10.565254871473874 9.694696357919545 11.75109038510298
Mg 15.512009110305566 17.293399895139302 11.340642462914573
Mg 10.518346830969382 12.666651697772318 12.984836560877499
Mg 14.239701202249318 15.758480267642405 8.9039905348626
Mg 13.59880326740442 15.806099358952672 16.158135610485186
Mg 8.47771461709513 12.385983213459825 15.285412777358252
Mg 13.861815332340992 17.63000821886149 13.782999559931591
Mg 12.452567086053863 16.683042781157347 11.04570438751986
Mg 11.523569418714636 14.129640541469255 8.704657893503125
Mg 10.65872212426523 14.576975265872461 16.33736979099466
Mg 9.422100453154467 12.174875830106279 10.165187846171703
Mg 9.82923931734654 15.011828609385187 11.125290169373447
Mg 11.674960806712708 15.510376203310608 13.648505457043376
Mg 7.412807406325815 13.175587748829198 12.264323030818021
Mg 7.978282913737028 10.45402786793552 13.021560840922874
Mg 8.695103387564831 15.173832905172057 14.024056609722075
