34
Energy = -31.03499344 eV
Mg 10.772089813380195 17.54237911038263 15.58072189630032
Mg 13.626296792449416 16.120971858147918 15.494140192135951
Mg 10.128625987392772 16.73273794457462 12.653597644605663
Mg 17.50263754268577 13.93186979203462 18.894011324956157
Mg 16.26750831454246 15.791456087382535 13.304028067245616
Mg 11.892540436533535 17.232781183020194 10.382954691274056
Mg 13.75520403561372 10.179593709988051 15.075252765210077
Mg 12.065034663125903 12.024838768404246 13.227196263744753
Mg 11.217636472916876 15.205465621787184 17.420140638460065
Mg 18.05510806099463 17.284966908441362 15.262111560335663
Mg 15.39991207432176 18.508424036697928 14.163721734190748
Mg 13.055997459092419 17.392299877874475 18.35994530287377
Mg 10.813188654243929 14.554018531070088 14.558883493412065
Mg 15.32959002772415 11.81938232059334 17.194991948757043
Mg 13.243387801182898 15.167392370507473 12.66024733975404
Mg 15.825000014772085 13.425482374150512 11.474864583167117
Mg 10.937735502378432 14.355518223737807 10.908237081409293
Mg 13.190217462402542 19.318615584780776 16.021619645160722
Mg 17.84935211336114 13.296073683844073 13.945106565743318
Mg 12.520317676646412 18.41025018325483 13.21016215698903
Mg 16.275745609974045 14.973776710785424 16.35230546525718
Mg 19.43473152766835 14.745941018269095 16.32080105633588
Mg 15.756296105580306 16.369689278453393 19.502613809145835
Mg 16.678929782554373 10.56054765904478 14.623080347393625
Mg 15.767238049145966 18.1984370098517 17.15936964779741
Mg 13.883326540805012 15.112325287865671 9.556598704430117
Mg 14.784979647455769 10.682089438668077 12.317444352316338
Mg 13.172562743935202 12.400821215665728 10.503367782921838
Mg 12.38651826075544 12.642978431050972 16.326023081005378
Mg 18.23312035055242 12.07044672410025 16.662160156366298
Mg 14.796041637226416 13.191725485653572 14.377157391702932
Mg 13.908595137507168 14.35941697080436 18.32752494944423
Mg 14.777754350975577 17.49927596822244 11.273691766499763
Mg 18.350394465463904 16.81063943709301 18.243803440983594
