34
Energy = -30.68928715 eV
Mg 15.060761657738617 10.581410930873021 16.301406288775325
Mg 14.921725479638258 13.740987410719024 11.329485252291537
Mg 19.96579660007765 10.215166213922721 15.910824907451746
Mg 15.35518568680568 15.309162912003604 14.079196899628183
Mg 17.137419746917697 11.549429510499074 11.82206502789808
Mg 12.72453254802848 14.911851974868533 18.109318056123136
Mg 13.749456805434486 19.920224796356184 15.471028974324678
Mg 16.1002357576643 18.139758885222005 15.97176504788122
Mg 14.705027116403462 11.664828374639571 13.497334967841551
Mg 10.460353006542531 16.03848143979641 12.94332172050364
Mg 19.54340139808614 12.141573150933622 13.498898022265982
Mg 18.323302884455572 15.93637503246007 16.277807741606416
Mg 15.141299526846092 12.675054518257458 18.400660593236804
Mg 19.938967364077516 13.139248546017237 16.441930286234747
Mg 20.08329932371232 15.025820105838177 14.085677777956198
Mg 9.421334672709664 17.365167053627122 15.271242444398204
Mg 17.851673442291816 13.876364057176042 18.448848673877762
Mg 13.595689222897136 13.260029737346716 15.81895383407848
Mg 12.921146028631592 16.60792740823981 15.251011327162235
Mg 17.36881939201101 10.105024678744574 14.466645828009025
Mg 16.06835260277764 16.55922090630577 11.232017633451315
Mg 17.86856319512172 17.220303477502664 13.595420345577365
Mg 13.165821810187822 16.40292748868853 11.830099439399957
Mg 13.62159821633598 17.944804815111553 17.898225865508227
Mg 17.835885092059964 14.380783601605476 12.279894468903995
Mg 16.96710684585455 13.130741260097102 15.32714967865467
Mg 11.716262755150996 18.79007540403292 13.467792601597491
Mg 14.926404261801352 18.481579406594438 13.1827983558954
Mg 17.709949747382836 11.010313647449337 17.619186829369383
Mg 15.49840810063661 15.50647589257372 17.283687382984986
Mg 10.731148226043823 14.532786864650387 15.676103315446026
Mg 11.158432883974204 19.415417142666545 16.60769426402251
Mg 12.385874604012654 13.755548828679174 13.116147698274178
Mg 10.568884096969372 16.869696145453766 17.91086865551019
