39
Energy = -37.37006226 eV
Mg 16.063097491952668 8.712447190725529 9.865005163508801
Mg 15.348988816839835 9.026893834222555 12.824463505206772
Mg 16.64669815331332 11.373376035471544 10.986391683913551
Mg 16.51587308293055 11.625363137364573 13.96054830317313
Mg 17.39122529117007 14.192801692640586 12.124854230526827
Mg 17.933234481864993 14.092038202260497 15.118240921859037
Mg 17.179364353821626 16.70148398432553 13.86257413786897
Mg 14.258581283225478 11.071722867310585 8.990249597657352
Mg 13.223119374213633 8.62345635499891 10.666016692620042
Mg 14.89194850473467 13.753618748261664 10.311911790439618
Mg 14.040482271485061 10.427184473984198 15.282807781126202
Mg 13.677856747600499 11.490766796851785 12.105141729703416
Mg 16.014984741021507 15.904796988191972 16.476571461829725
Mg 15.264766383801405 16.49097941180552 11.555430801109207
Mg 15.399110882348 12.92305578354682 16.524895747711888
Mg 14.692611199446754 14.191551191004221 13.606247377346893
Mg 12.217228967752169 8.816306149679434 13.487488994239992
Mg 12.236631708111 13.468901813927049 8.702117307673836
Mg 11.300233917310047 10.814682592226168 9.71072244697985
Mg 14.11988687982863 17.126509525252516 14.374500752100213
Mg 12.125618326436916 14.1311799796266 11.711152618608207
Mg 10.252403773502392 8.202077496013542 11.172681658778288
Mg 13.493262419283225 16.20606684331125 9.101988547839424
Mg 12.310847839214846 12.82017776352503 14.54042531611794
Mg 13.130215289190476 14.97219488821279 16.659672994209558
Mg 10.58820515848121 15.99978682590182 9.185747893328495
Mg 10.63151151911304 11.328904033602393 12.601647544673705
Mg 12.713280792497349 12.087131949910328 17.624081649187836
Mg 12.287237907562414 17.269412269809482 11.671619822709477
Mg 9.43423862115095 13.266037386484387 10.439310270851493
Mg 10.91153076425101 10.356474113280173 15.765096581065151
Mg 8.682460436757827 9.190798423235835 13.521113842080453
Mg 11.429948237472166 15.828483046509826 14.299332080973711
Mg 9.495915927235954 16.108069124559293 11.845005344187156
Mg 10.268854831312709 13.462557263647206 16.63620815793614
Mg 9.329201909563725 13.819139020888588 13.709159184403514
Mg 7.306196893886987 11.868581488839926 12.487806443524759
Mg 8.288483582632463 10.21566982657765 10.354547958715436
Mg 8.246767947100093 11.535732380979002 15.36775283071121
