34
Energy = -31.28494817 eV
Mg 16.476203785351224 11.281249651368734 11.346429946364399
Mg 14.034411998580765 11.116054927238466 15.922629151542367
Mg 12.623141227282444 12.866156799783443 13.92832626471618
Mg 18.771382068661577 11.356050774685983 13.78499342279058
Mg 11.374101430370319 17.06244914239533 12.804192421937444
Mg 17.024571574075193 16.019914689547566 13.0372239885618
Mg 10.503806844853452 14.912576278683954 14.837624349648282
Mg 15.041926122072367 18.48248328272516 16.803395597658596
Mg 11.128232304587579 11.119863422171614 11.70124432949
Mg 12.742597064198677 14.125398796457464 16.73994596155105
Mg 17.09122038535683 11.857046963541608 16.33944424981839
Mg 17.588445782104714 17.11976787959297 15.797381278453374
Mg 15.7008464117637 12.936570118709293 13.656797614616716
Mg 9.414202892514803 12.251106693673332 13.83854507043431
Mg 14.514095430954544 15.971001974791667 18.37465417632664
Mg 17.50004460646758 14.602708165142147 17.906335298215875
Mg 15.385950846757178 15.08639310165339 15.629168882609646
Mg 13.58416590552514 12.795314343918424 10.955702804271604
Mg 18.46521592967897 14.19612948357095 14.998158884600775
Mg 17.06743058101821 17.461946058535617 -0.8345548404705031
Mg 10.799556338760356 11.96399387338772 16.44965153223307
Mg 13.880756747824758 10.274283387379398 12.744440716723929
Mg 15.618156895140988 17.446350916527688 10.83152281464985
Mg 13.148009745841064 18.833017952013947 11.28084515264617
Mg 11.410267721277295 9.898267181510633 14.497080776899095
Mg 15.914497808408429 14.441878279135425 10.617631931045137
Mg 13.91795733348302 15.401438122632 12.98580905136918
Mg 15.040465468069176 12.90233593651947 18.215851406591568
Mg 14.969321117471674 18.214074816756103 13.779452167109513
Mg 12.982626664544496 15.873276437164924 10.161402371336145
Mg 18.483821271196284 13.621719952164906 11.970416766297562
Mg 12.71381003199606 16.9270744838306 15.608565598546823
Mg 10.901024381598077 14.24371620872095 11.788060938753008
Mg 16.36594755140392 9.747702771023068 14.159657648094708
