36
Energy = -34.04617821 eV
Mg 16.62193639567205 17.00020648656433 13.332412120143395
Mg 15.206084195836537 14.742512877043382 14.664797959716987
Mg 16.49255523851482 14.266751368910576 11.829209804192558
Mg 13.95774369008317 12.344642112883891 16.09033904136979
Mg 15.911669175760963 11.921129298523887 13.684261950067244
Mg 15.423529915689263 9.683634338517209 15.600748411045844
Mg 15.222713407790085 16.673042549502853 10.673744409511494
Mg 13.475081956800015 7.708912505673703 14.61190442760187
Mg 13.466282606254412 16.741174296911236 13.093484169540389
Mg 15.269268509684467 11.485079614105436 10.76329838839375
Mg 12.121344755917438 14.520200656121819 14.970689257115223
Mg 15.167648393919492 9.049192884190177 12.466837706127945
Mg 13.41857723320251 13.693050663604103 12.230295703568174
Mg 10.854322582716398 11.901984869833232 15.883527665095986
Mg 14.647761476448418 14.060562241800822 9.28146650064466
Mg 12.931197322072983 10.952050027495277 13.514267614218703
Mg 13.869268662862583 8.968756335900508 9.417078178259501
Mg 12.696738324243274 9.64399560619157 16.76235651072268
Mg 10.605820903261161 15.86975628457343 12.744811258880931
Mg 14.359345313559732 11.47962756211108 7.81337325836747
Mg 12.320512991994216 15.745714269315137 10.213166662216803
Mg 10.522778992026813 12.700087884155677 12.833660452310694
Mg 12.185580935404928 11.376596492088582 10.533068063409845
Mg 10.68942002314183 9.105843899559202 14.523406114800922
Mg 12.26987087092003 8.298427106882038 11.90816867904145
Mg 8.976891464618364 14.209645604353652 14.98267232918403
Mg 7.834875988057251 14.963314010843293 12.334783534960902
Mg 9.835483067674328 14.025651998125047 10.199752542367165
Mg 11.839458641124915 10.199958523193652 7.148744681037847
Mg 8.34215544993895 11.065181894099734 14.314032848617675
Mg 9.714990211498773 9.897676562237374 11.755989140845616
Mg 11.875997883522041 13.2233018935097 8.126182891069398
Mg 10.840342909314824 8.49524493069423 9.23320206906114
Mg 7.6951716057618915 12.11068993181112 11.35120628019641
Mg 6.257880322728543 13.042768796434164 13.926529357218078
Mg 9.499652155596529 11.24196560827279 8.904424052933303
