31
Energy = -28.31730318 eV
Mg 10.361328988834545 17.3838380201859 15.544803017025597
Mg 13.705054819345365 14.04575458368716 16.109221816145862
Mg 12.558037125761919 18.213985540771418 17.502905842824713
Mg 12.340045567732679 11.52973478498248 15.047098401370263
Mg 16.787614890588664 17.889176603308577 13.77809819501548
Mg 18.208245924101412 15.256217724387447 13.316097724726824
Mg 15.685166245239783 16.741077619281707 11.28117650409908
Mg 11.249180985309783 12.439844439111928 17.764557079219806
Mg 11.534000931690866 15.473913708308663 17.880242271541704
Mg 12.661353364460822 16.524165769056093 11.45625306710789
Mg 17.341431752607846 12.265556139714079 12.918655315498844
Mg 12.171229041583743 13.780979148617844 12.889257004629547
Mg 10.097750843425766 15.955147317558128 12.93614158262859
Mg 16.432079623182236 15.840484933750094 15.942431736682975
Mg 14.213526104003257 14.069915561358481 10.552702126329258
Mg 17.323485693828385 14.294826537887221 10.63027770455974
Mg 14.216181618891195 11.60526184511557 12.619530954072886
Mg 13.905764499442467 11.185541711651172 17.80334974026449
Mg 12.432796913339951 19.853103620928774 15.041348486618059
Mg 11.016991302676422 18.745037232314463 12.751921084168735
Mg 15.169164896968113 14.495135583316966 13.451414006921196
Mg 15.084956314966142 18.576263136632864 16.099629003739288
Mg 16.013508372663956 11.663219036919507 10.215441116346673
Mg 13.190266420477151 16.530676062976315 14.582745031566573
Mg 15.55709598075581 11.610444833670831 15.332896683982394
Mg 14.148320144253411 18.96143853819391 12.77834505096845
Mg 10.55895533279371 14.176711933263034 15.330521618469541
Mg 13.50056457520391 13.610953860291342 19.457862996128483
Mg 16.123663885344495 13.408161265281652 17.992230439790568
Mg 14.619640118182993 16.213613727352133 18.293248441752805
Mg 18.062064504921864 13.307178556819867 15.660409447330546
