31
Energy = -27.43199579 eV
Mg 17.59559918717007 16.075525616018826 11.733738075700701
Mg 14.995753592810825 11.942904758680747 18.434195335993003
Mg 18.297149873790715 10.986770541140396 14.893966451809073
Mg 13.497182863183479 12.202862394974538 11.36360772277776
Mg 9.803061511666673 15.497966490392608 12.753180344367811
Mg 12.023773490575188 17.724667060041963 13.610654170654453
Mg 13.243808924600916 14.09923499636711 17.434128767442935
Mg 17.7460816835069 11.382301786867886 17.77632443640181
Mg 18.868017681651253 13.701598765838018 16.178415995989724
Mg 13.208233191870724 18.452802235860158 10.851942695714163
Mg 13.19621074885186 13.245206379029389 14.411010118887242
Mg 15.399323267191695 14.454096740239422 12.963908594831443
Mg 15.228212200806722 16.308794511868715 10.00248139996586
Mg 11.300092455851235 15.27484287405294 15.294418302831426
Mg 12.857249595438558 15.355126953134564 11.95769400410619
Mg 15.910952204687314 12.990564768147962 15.505074927047911
Mg 18.280138773365703 13.405512820923981 13.178157317336286
Mg 10.850639941579374 14.139195088425321 10.113017754795367
Mg 15.183753566129733 17.587123187145046 12.913084074153584
Mg 16.031132285747397 11.236161008304013 12.864544000856736
Mg 13.216704260021968 10.308936998007958 13.746504785341555
Mg 17.279844144994676 15.897772590135972 14.919698016648782
Mg 10.391687409242255 17.431510410793855 10.657638126934499
Mg 14.243864690061196 16.104993762894228 15.406060467964243
Mg 16.291790193811362 14.818508739787717 17.72485559300092
Mg 15.474594396644402 10.058427938232459 15.838059652467882
Mg 16.27753858543523 13.362881882634209 10.392937573730185
Mg 13.701090670795317 13.885515514000856 8.921666191801481
Mg 12.751120245512015 11.215088922957584 16.619700859176525
Mg 12.3414900876059 16.52875657084648 8.714755844262418
Mg 10.846736394615542 12.66815610355973 12.806346016827998
