32
Energy = -27.7505659 eV
Mg 13.878958790088072 9.132176827936384 14.541540278492784
Mg 11.081904803006166 12.444260938761378 17.118089521221233
Mg 11.365583999437538 9.47779043221463 16.430170829686315
Mg 10.327794707246566 14.69136575013492 15.047942678308576
Mg 11.166291773959015 16.799442173803143 12.91483074682249
Mg 13.22287543769775 13.882288738182138 15.340974594010023
Mg 17.556769430329815 12.870719784336881 12.362783173576164
Mg 18.98376548793993 15.312777791604233 13.523137350026245
Mg 13.695269947346121 8.197555825739954 17.703400811729715
Mg 16.64593062804551 17.227672431400467 12.866896397639046
Mg 12.521368233100635 10.546896260708076 19.05215374819761
Mg 11.53299489340899 15.286732933893573 17.92102283765913
Mg 12.106611214335791 13.95705829812697 12.438274686003247
Mg 14.537731611785068 15.864930400195316 17.11045522993485
Mg 17.945333527533542 15.447270485977134 10.766433262996523
Mg 16.149929818973007 14.375362227638353 14.622551503295991
Mg 15.571546004272825 17.234899998170985 10.04562794916673
Mg 14.158257154604946 11.32281904450015 16.407845672336823
Mg 16.293534926398987 8.653136474637066 16.536014059448604
Mg 14.012042594237657 16.41373242116831 14.038070920799184
Mg 18.898953154557983 12.874865731366832 15.277414534571523
Mg 16.724757429094964 10.913693378243277 14.64668115284242
Mg 14.425653233409212 11.976955908583083 13.070781736994011
Mg 16.436088085316086 13.249331033003621 17.386034491849927
Mg 13.692290970523 13.36087239613662 18.688726939713273
Mg 18.216257952253443 10.800246225081228 17.325045106255235
Mg 11.79857838346605 17.297168239063744 15.828842002486713
Mg 15.604311870719284 10.539849351812771 18.890160796170985
Mg 11.588936233476275 11.491942895690801 14.255508975715609
Mg 12.741059852908949 16.14539037849013 10.391835409518556
Mg 15.042292669858778 14.5880902034764 11.730678052977925
Mg 13.67260425646375 18.50633851366493 11.933372738141857
