30
Energy = -26.45593503 eV
Mg 11.383263676044571 12.940205817258743 8.852327973405258
Mg 12.841725635067812 15.741164158781155 8.737516615847143
Mg 9.842944423602153 15.685350274643758 8.517326732219859
Mg 8.502894624730631 13.62858812410851 10.378964360975765
Mg 14.172609475185313 13.484910678745141 10.234114443537809
Mg 13.008227688619318 10.643543945884987 9.709213706189876
Mg 10.054140116933754 10.764492156405959 10.515269989680903
Mg 11.153491215224562 14.743382435653336 11.23771642865871
Mg 11.24270946267409 17.86331024612126 10.138123657337928
Mg 15.507914733222432 11.215227087918398 11.549980381834475
Mg 13.655878185020928 16.275793790392438 11.729871054330472
Mg 8.584192676541754 16.719327873040797 11.03450550511243
Mg 14.813419393437792 8.316881503174056 10.429136277814166
Mg 8.468705068291388 11.982559505146988 12.824671883306076
Mg 14.159638269271168 6.435419548631186 12.686059537352863
Mg 11.72253838550077 8.039682617028706 11.076012698964785
Mg 14.828158616127194 13.674742310370865 13.240351765130091
Mg 10.818684754070413 17.35455284099049 12.982721019476894
Mg 13.417019749319863 9.5947474821798 12.931443068618702
Mg 15.424874895189488 10.86212476782031 14.785204510736472
Mg 12.144331382729822 12.216252082390055 12.42924622307656
Mg 10.384049128019807 9.782213548152892 13.4038240079895
Mg 16.37482675621318 8.517821224449499 13.001091889103403
Mg 12.127507899984204 14.873480466154373 14.148194734855105
Mg 9.076857306349865 14.778845937959833 13.531846689839979
Mg 13.415924235112817 12.763280531735495 15.813870860497595
Mg 11.842995433522814 7.257665365075877 14.284028346178605
Mg 14.639780222321036 7.828862385477144 15.338758379016356
Mg 12.345266936245132 10.015520357309246 15.797022699360777
Mg 10.463790117778531 12.418411399352003 15.079945021904747
