32
Energy = -28.04640721 eV
Mg 16.19642315637443 13.92705829286327 9.243561315968753
Mg 14.028776455723133 12.17969939005849 8.108447474292971
Mg 16.952635330429285 14.229468385972682 12.294306605475487
Mg 13.608224805087483 15.08053313904614 8.05048275247122
Mg 14.332648477759522 15.35135930670984 11.173743167979907
Mg 14.58468200897775 12.219074768010596 11.40887077931895
Mg 17.64943231919195 15.645075865454327 15.234595252904679
Mg 15.463609181718963 16.832163607715593 13.650661728486819
Mg 16.85931637547701 11.253982217198232 13.07619679834046
Mg 18.723867355895745 13.898079413966991 17.301634225199646
Mg 16.65464888425598 18.33413318181332 16.06619205361775
Mg 11.977106059152698 13.282838910607444 10.034307133521468
Mg 18.90878507859618 13.105769805490368 14.2813227328501
Mg 11.690720683491422 16.370696352144176 10.08416687382212
Mg 14.25322310372814 13.974992573174196 14.001105944306506
Mg 12.654528524528175 17.350124008184753 12.804734223959386
Mg 16.33989277444373 12.649579224731545 15.861872152179538
Mg 17.196737531158732 16.37508300675228 18.33269507140804
Mg 13.694224262692567 18.489547596544394 15.62005135419703
Mg 14.974507546559254 18.60881061154792 18.437042866364063
Mg 14.145679774825116 10.8158702789715 14.342838529986167
Mg 14.764628142279145 15.407003727559767 16.643978136497537
Mg 11.87543973274275 11.617487042905866 12.612798158034952
Mg 16.166352809289673 13.534188582545548 18.832188869523534
Mg 11.390993188809857 14.565194392179881 12.681070386672994
Mg 12.025235441400216 15.895594451379878 15.364900150871991
Mg 13.799672087905797 12.122449825832899 17.334931049220746
Mg 11.651315657511987 12.840259580936953 15.378884565137014
Mg 14.408022896129152 15.938504041692472 19.750779505159706
Mg 12.339658086685384 17.381031554693173 18.13093684844159
Mg 11.977912901807755 14.426721449772094 18.081734104618725
Mg 13.568727749790508 13.10612113462445 20.24881316386355
