32
Energy = -29.60657802 eV
Mg 13.08163287117149 12.08236182136649 6.960803706403234
Mg 9.868228083770175 10.364242949900769 9.751029162061418
Mg 11.76509324873911 14.582939735748267 8.018386452816872
Mg 9.355473545895999 7.474783136388112 8.323152682013758
Mg 10.728054564369618 12.327256670037741 12.295116056724899
Mg 13.621479763004176 10.980107195854265 13.882186596847532
Mg 14.108942394873136 14.384647939613695 9.93035865227412
Mg 12.15190472669995 7.634721529336161 9.546933790512487
Mg 8.800276961032587 12.508523705405196 14.450779792514444
Mg 7.2483500779808185 11.867504720858161 8.433111171009305
Mg 11.468287851907515 9.484316013171018 7.169511474535801
Mg 12.432753992844379 6.326124860986958 12.252260886508793
Mg 9.407433188045028 13.593415669089367 9.586545167300399
Mg 8.277210034273956 9.708339371845419 6.824874104826023
Mg 7.281480891011002 9.063518014888764 9.990579416052407
Mg 8.536836245885809 14.785417270229388 12.184817958549235
Mg 14.035856916240265 9.861490239803613 8.92646869829451
Mg 13.188649768934804 8.056096267055372 14.51124927276454
Mg 7.568729613261344 11.958535006322183 11.476863167711622
Mg 13.417558669553515 13.89895107355285 12.880154673795417
Mg 10.299032789972571 7.320512321179602 14.12703618594129
Mg 9.590141682693272 7.242082269781374 11.229714477125004
Mg 10.729851130807297 15.254104166047119 13.991850377394568
Mg 14.490799709734215 8.56981902777804 11.75993689583744
Mg 11.41099109853509 15.361874231050436 11.041196252977063
Mg 11.667216508039365 9.521666779078748 11.967164258809403
Mg 10.853257750079816 10.125263711097423 14.977733560512883
Mg 14.842151267403112 11.659743864746966 11.244202729997461
Mg 11.748124291613957 12.8928862213134 15.336096569829053
Mg 12.206682716420161 12.07287981892971 9.829717863614887
Mg 10.003031885723049 12.196770393824753 6.958660905470434
Mg 8.601143011411095 9.6257612556471 12.928164290901854
