43
Energy = -41.36237368 eV
Mg 8.630514145467801 13.253106262322063 10.844290134485838
Mg 8.96675904502505 15.981364602104717 12.446381129658933
Mg 9.102635768967724 15.88125360618526 9.401448119363218
Mg 9.035971839820713 12.864183498062808 13.938703271794997
Mg 11.839814385042898 17.244089494453483 13.620448281009494
Mg 9.52091554229311 13.207962948943235 7.787516407514521
Mg 11.02570257328155 11.516818255330955 11.55326906424122
Mg 10.525563816080266 15.122520077758375 15.420133232624577
Mg 7.991097812379375 10.450563271255382 12.33821343393748
Mg 9.045603334560003 10.387362772798596 9.476057745000839
Mg 7.680348090773284 10.510083486890345 15.465097495510788
Mg 11.322516479642886 14.440864185483962 12.544930228550323
Mg 9.972642289125291 11.803893367543704 16.778258152223223
Mg 11.728871472299218 16.90052431806754 10.556352174668854
Mg 11.621976375725906 13.840151859047754 9.784221799910082
Mg 13.618530696074625 15.218875564185705 15.055231266398527
Mg 8.025264592892595 7.947226755669558 14.112284895615193
Mg 11.368056357071794 15.917363324276577 7.537355566824812
Mg 12.022303026859346 12.56730508118207 14.739091816063832
Mg 11.563453361131705 11.089902737583492 8.132723040037147
Mg 14.40331448190572 16.415989041207887 12.039780269104124
Mg 9.893307936222724 8.119142873455884 11.588427641035098
Mg 13.446846321665353 10.602290013233462 12.925122940138545
Mg 13.952567068399915 13.516992243875508 12.532837365490234
Mg 10.727539409865807 9.827261632267168 14.045997014709865
Mg 14.128114576317074 15.455571406520292 9.121051659537665
Mg 13.034763520815122 13.408778867600908 7.064964351082263
Mg 16.400944466500956 14.570452931620043 13.840895606645372
Mg 10.519581295785887 6.509230189202713 14.203647635464424
Mg 13.90477353016729 12.019880272611191 10.13550493344911
Mg 12.379590118660136 9.09757306293815 10.101729386624712
Mg 14.96857947487697 12.290382849331879 15.34045649236027
Mg 12.958034371260696 7.581188512705901 12.739252826123453
Mg 9.913237034400861 8.574274271337988 16.615665443621467
Mg 15.052648027244084 9.159882616618008 14.957481170211167
Mg 12.703307936511798 10.303458165724026 16.608805407889907
Mg 16.40090726005524 14.220518952751256 10.756306631414827
Mg 15.91584165909315 13.302207107914773 7.852573669517901
Mg 12.775331392755652 7.4475257442922675 15.789960898611872
Mg 16.3311214482091 11.600731097752929 12.627594268645389
Mg 15.27303865563984 9.196529030739756 10.955488078635867
Mg 14.522024410965853 10.399646991155548 7.875415728692924
Mg 17.02096747207402 11.334486604222326 9.707196232839676
