42
Energy = -40.04745278 eV
Mg 10.87788517925803 17.577650563058583 11.33538137729366
Mg 8.983308171168245 16.00537377952116 9.403808896889537
Mg 12.346930375602405 11.696659384426974 15.584101359981721
Mg 14.582887782752573 9.621079576816534 15.85081567394265
Mg 11.477807764726732 12.295424407593542 7.045212318340352
Mg 9.058653907699385 8.058217444148763 13.033435656405507
Mg 10.42046111911966 10.93993955815045 12.844738678231275
Mg 13.218453276986553 7.999103217321486 9.45268312993845
Mg 11.46518899578954 8.855422014797934 15.146894825174519
Mg 13.252806675047776 14.985503218576955 7.501427490215677
Mg 10.423942783457608 13.90550458829473 15.008730937574345
Mg 12.002524332877353 7.76273922687726 12.254570719500402
Mg 15.232433708289658 12.484210381713673 14.873004934246813
Mg 15.279923930776235 10.1702612203738 10.284580356361845
Mg 10.51086143338414 15.28992445903871 6.646705265729912
Mg 15.063774976812942 7.724364924008452 11.972909614367236
Mg 6.91802217036806 9.954364117120218 14.278920375330987
Mg 13.877631334537732 10.290229635078939 7.5813367099793965
Mg 14.044239886708395 12.800908536854044 9.319587265643959
Mg 9.651046254939502 15.012828057882247 12.352733521813347
Mg 13.253214055911654 14.555955316754291 15.886792866267953
Mg 9.30447537459924 11.073057017349965 8.947591916791575
Mg 9.342426102943229 11.112865274893919 15.781436623971176
Mg 16.515916360010948 10.244011668169422 13.233898937839013
Mg 12.048118059088456 16.27807165658808 13.756354405506604
Mg 13.686051527258433 6.958021740128686 14.60652850576583
Mg 11.076989173377275 13.767786061341138 9.782163506977177
Mg 11.742591001908044 17.20984815840221 8.585646488618744
Mg 11.18981514077913 9.277694328670933 7.439378889298994
Mg 14.883899850724118 15.273235924596808 13.563765578972022
Mg 15.466163105855378 12.841148921107713 11.88104362488942
Mg 12.087385490957693 10.79699551800819 10.363668408959835
Mg 7.953027594479905 12.73987320854299 13.608691369133
Mg 13.412575697369514 15.607090842060591 10.826108318415915
Mg 7.718105174703582 10.24641685783684 11.374589698858921
Mg 16.55104995589141 7.673143716634102 14.642851043904894
Mg 8.448624499793898 13.56045692454131 7.5572120714756945
Mg 12.447443816522345 13.212001979091843 12.633478683736271
Mg 8.036811723387403 13.239858226106454 10.585695222732125
Mg 8.59818134901338 8.137419236845192 15.988113556967404
Mg 13.518862324501166 10.31344171235081 13.024394858675658
Mg 10.04365357695304 8.46606241465751 10.173181331612449
