40
Energy = -37.5397417 eV
Mg 11.485309434962874 18.062384589196732 15.924343305241878
Mg 9.949059735972154 17.761497897950903 13.46689760442746
Mg 12.902938071308725 17.943066218297812 13.10700257992932
Mg 9.395946569596317 15.615300179594415 15.748877791278693
Mg 14.258376344101713 16.838791654653743 15.578377933655842
Mg 12.111236284382247 15.558965421856703 17.290048208018394
Mg 11.896644876791832 15.237220445482391 14.102672237534652
Mg 12.019931602926356 15.221553276155252 11.144351320762961
Mg 9.686345117717472 13.841910989967669 9.734315442687434
Mg 8.950890021011547 15.093602495724847 12.624989185215382
Mg 14.867019064200381 15.549994671046843 12.766004443591559
Mg 12.203794717884945 14.48121028602432 8.153589135890677
Mg 11.19404483378007 12.852931005556506 15.797275077365766
Mg 14.247611735890422 13.803980603948824 15.72300314617197
Mg 8.409131993086016 12.648020653883716 14.674508372793689
Mg 7.703605102223467 12.51083345167397 11.600546269345383
Mg 14.446838517578026 13.703375763005056 9.977170116421739
Mg 10.432978481331526 12.424187870579878 7.070824831897727
Mg 13.454594180820196 12.905297859382555 12.945893728451031
Mg 11.990086997903743 11.689736493303975 10.098784120101321
Mg 10.58381163292407 12.605655722217595 12.593139832903033
Mg 10.260927397872134 10.015353347167936 15.100242340347268
Mg 13.366582424475883 10.772646086901478 15.294193626677144
Mg 8.876423549245375 9.889719570677299 12.314922067217255
Mg 16.059931228972133 11.750370425628024 14.38671919461901
Mg 9.077683871711587 10.85543678165869 9.407615093847006
Mg 16.655201006380718 13.15528429975461 11.821924199743016
Mg 13.514767732771517 11.765289992756975 7.480876767608888
Mg 11.218461523642368 9.656753488104457 7.510350494362278
Mg 14.538079441852416 10.673626232005907 11.609039984647692
Mg 11.994355561570986 9.955710708152974 12.649271559282132
Mg 12.611937947163197 7.78909145620581 14.922269894340799
Mg 10.368402343787594 7.365220172437309 13.124241313290556
Mg 10.810041196111122 8.420772840601384 10.242664723216574
Mg 16.07624051097331 11.129367939304734 9.246461615707517
Mg 17.480272270638324 10.28831604743016 12.186908477602485
Mg 13.637279296991123 9.048928494976824 9.158293792760839
Mg 15.256935040748823 8.727594096376425 13.799394490432364
Mg 15.992288230354493 8.084816488884012 10.766245675805521
Mg 13.248881906336942 7.257703014733903 11.83731762093723
