44
Energy = -41.80713206 eV
Mg 16.75277933266939 14.401614084400373 16.053749888622423
Mg 14.240970532347138 15.831242529961864 17.079107044633826
Mg 9.032595428261793 12.967436906676598 17.290310857583517
Mg 11.55505781105297 14.532163582182665 16.91308501420389
Mg 8.917244597904057 10.563331816022908 15.16442677018618
Mg 13.991563719852655 13.130531648292859 15.506205354580109
Mg 16.803218512582344 11.66907065809157 14.792740704774507
Mg 11.64561131144983 11.46923555139619 16.338540648104026
Mg 14.080934442839796 10.117810709916375 15.007607823889476
Mg 11.316303522346107 8.752546017472655 15.161453439642553
Mg 15.927566552429916 9.426131476553042 12.721327539629616
Mg 12.996060920448214 8.350575325249492 12.744199490712921
Mg 9.03343392836595 15.84537872533089 15.604643983611977
Mg 6.894765866106667 13.387109211553254 15.339079412988696
Mg 17.238394937053688 14.376257737218669 13.08675757491499
Mg 12.023210229139641 16.98749646002698 15.23150571862379
Mg 14.969988371980893 16.07560815860518 14.18371289219091
Mg 5.911187952245416 10.877932438228063 14.119202592137642
Mg 10.04579009420727 13.364939449101353 14.334789675686508
Mg 12.481489236162425 14.56961843729607 13.18519575620402
Mg 9.814125128065154 9.06888697379309 12.575278044732979
Mg 14.795469276104738 12.46442155853517 12.63752587718406
Mg 11.894895358166394 11.407618103550318 13.067869627525281
Mg 13.01159002078595 17.63970332930963 12.457318133401138
Mg 8.314531049770538 11.807580375634206 12.436874875115693
Mg 14.789181064969942 7.692922307064069 10.175147425420976
Mg 17.844890414158684 11.744606376203334 11.864100554826402
Mg 7.633342687762615 14.952706357189099 12.993749215487691
Mg 11.51333598577905 8.293697973605088 10.079787919155004
Mg 13.727146581039891 10.445876689897549 10.576539191409706
Mg 10.115217380163529 16.687999882498477 12.827331761098005
Mg 14.851180957013337 15.396728604165983 11.228339214543386
Mg 13.172138905930533 7.651067761796222 7.6568655417447955
Mg 11.788149436332631 16.18445662144732 10.19083280000722
Mg 10.394886102275095 11.165720117088256 10.296430124556561
Mg 12.789853071400254 13.18994667909552 10.517392348845773
Mg 9.913180714234993 14.05419452977385 11.168006343374962
Mg 16.936086491996164 9.818117836766644 9.907261822220256
Mg 11.9941631337197 10.476122370221551 7.865967225466886
Mg 15.776494475856408 12.728712626726832 9.512389484305906
Mg 15.0065741062443 10.032536637041972 7.721331093808019
Mg 13.891946324374059 15.180969245168694 8.341473638208814
Mg 11.091571925237664 13.608986277513322 8.1520461143393
Mg 13.820694644120941 12.637391474041504 6.984512049778976
