46
Energy = -44.32294639 eV
Mg 16.70477805895432 12.564022114101753 9.215585185879691
Mg 16.12888018657504 15.52790393702293 8.971910076035226
Mg 14.19322382081569 13.784011198815893 7.524984911820317
Mg 15.069503858594995 10.677268102049904 7.691149280668408
Mg 17.20065353459395 14.401576853948807 11.653367818686055
Mg 15.18687163804641 16.70251058047507 11.58866603104537
Mg 13.195653862232056 16.348874637953195 9.155808980591718
Mg 17.5348150957548 11.314815001213631 11.961470805064446
Mg 14.200292760683265 13.653040738591221 10.668433046082566
Mg 11.156603769906821 14.281772851070706 8.10855973002527
Mg 16.73660349131042 10.48647347017854 14.994489927886077
Mg 12.504117338826909 11.697923429324181 8.766730149270458
Mg 10.185534660658178 16.691723536486364 9.745324320048224
Mg 12.271407630013092 17.61120309319016 11.893600913479174
Mg 16.273869373084658 15.608585189146531 14.332943281054895
Mg 14.271557089741378 17.829431431335603 14.24258758110813
Mg 14.641699500826482 10.533444209886714 10.825899831295784
Mg 14.949113380569282 12.482189435282894 13.39102256658811
Mg 13.211221606287564 14.900997556537549 13.459152674734248
Mg 16.439926657807177 8.630496565478175 12.63166843401302
Mg 18.02181760974248 13.201413782730253 14.29675568661592
Mg 11.340367669049275 14.395376090933212 11.178201286155563
Mg 13.957375888029734 15.610549603751299 16.381548277128623
Mg 11.469306705280351 17.160557875125978 14.901813504847295
Mg 10.135806423120762 14.500168796984747 14.183113712556162
Mg 11.802198585446387 11.684344177521629 12.493528718454225
Mg 15.761695017257155 13.141907060150105 16.357339258154724
Mg 9.83970839011719 11.941565309852807 9.883482351609846
Mg 13.828480611955854 7.622295959247993 11.620293751264246
Mg 8.329364253010212 14.490305724352321 11.39346385960553
Mg 9.418396968469413 17.046258819940153 12.656518117315713
Mg 12.48903742530416 12.52363756878057 15.431341353582084
Mg 13.824938232351379 9.694275893361251 13.969813652455082
Mg 11.63427475829149 9.27284715952083 10.361167952013064
Mg 11.108932420718675 14.98624421157098 17.06443099973131
Mg 14.445319821737929 10.446275604217762 16.988996884095386
Mg 10.152839858825969 10.056588738131422 15.000411398734041
Mg 8.389996575353296 12.15270826885144 13.663441657052534
Mg 13.390089074544882 13.155759356464314 18.250895866641482
Mg 9.142764958403317 9.710266853176941 12.008128238887299
Mg 9.414428112009931 12.535997587422125 16.55109561920639
Mg 7.166190203241874 11.78277896642681 11.002624603433642
Mg 11.322429132591106 8.02080240970097 13.15746451263266
Mg 12.334254354930476 8.31753017298868 16.136030677966314
Mg 11.4979466162885 10.65574193400302 17.799893345394764
Mg 10.577064335933683 13.064008948763629 19.308162126836887
