47
Energy = -46.65223017 eV
Mg 10.208807081446555 10.10836376237701 7.181115531516375
Mg 13.286640832736921 14.455363862840784 6.968997076948019
Mg 10.52756668282748 13.113211633608403 7.2768247859907556
Mg 12.995863180027625 11.298396845803 6.602949372451741
Mg 13.150814298552952 17.316628752851802 8.298772258169901
Mg 10.675918510507943 16.0745203693745 7.555556374262412
Mg 12.088339046997893 8.506874807135327 8.820082484487425
Mg 8.733093261860057 11.468555308709984 9.481145125912748
Mg 14.936992947890184 12.502701543486324 8.725086529493478
Mg 9.248382293466001 14.489788671286092 9.772611981279342
Mg 9.042500437423373 8.257572910399238 9.292595024658345
Mg 15.340966086320027 15.405381068942981 9.408630893780263
Mg 11.948820854646288 11.52212565435265 9.48389510192069
Mg 12.444378529690866 14.489125534962158 9.844756970599372
Mg 11.368083291315543 6.785274770940036 11.216553746052476
Mg 14.844376176541676 9.530764798421227 8.318459031695472
Mg 13.829788216286168 17.345380564643136 11.157475101241351
Mg 10.872611689317415 17.006749270856034 10.52966931869403
Mg 14.502506310418184 7.419367849487602 10.657377281708303
Mg 17.016406420247012 13.298304174524821 10.807587404955727
Mg 7.64233609995656 12.89007206486255 11.9615133124093
Mg 16.082026279462422 10.43242213215107 10.913339548610825
Mg 10.25474482000933 9.839345475851713 11.532033425430367
Mg 13.12077865347783 9.715184964511062 11.546919314378217
Mg 13.856865599332343 12.6460839406842 11.771109500439971
Mg 8.481602141758907 7.098281890862464 12.019339149988305
Mg 10.788668590661613 12.810850176003445 11.957517047091516
Mg 15.425059166769266 15.165082182754427 12.55243858405676
Mg 7.189141331913319 9.865919170334585 11.960491670595705
Mg 9.219826107028348 15.41487625171168 12.729378717868709
Mg 13.38265921753287 6.929082644648423 13.47409171840823
Mg 9.24078905670177 11.110421088043442 14.055056401747015
Mg 15.180087752773659 9.31294860862426 13.707161195319573
Mg 10.663020410792795 8.105390517367415 14.020717986294823
Mg 12.28929522669967 11.020410680414457 14.01629654304975
Mg 16.276880525762742 12.169677846091977 13.596501212265578
Mg 12.305668697620986 15.382036556337097 12.875483158443911
Mg 7.692103667412166 13.732703883271467 14.841296640142772
Mg 7.670494786021259 8.431696710770465 14.58829290344501
Mg 13.828383717569793 13.594110605455029 14.859255109125911
Mg 10.742690784086555 13.734812978533613 14.987683260624427
Mg 12.994038226589689 8.714272853425209 15.970594171658103
Mg 6.62083893996416 10.944206607806771 15.675565598699794
Mg 14.8716136165564 11.063683827807386 16.080349613670894
Mg 9.010617006634929 12.232432229899452 17.11464058908943
Mg 9.919326089614422 9.457546138189477 16.591881968597797
Mg 12.004065431317764 11.60847391112515 17.017388355268814
