46
Energy = -45.6810807 eV
Mg 11.962703193381198 13.775922823889523 6.310164321507513
Mg 12.430549322020013 11.027708698439174 7.48189250287205
Mg 10.065795668450267 15.559830563734197 7.705851201194288
Mg 9.750735261024072 12.501541231752238 8.102729235108784
Mg 15.43941431353671 10.296355260018025 8.062270989305901
Mg 14.673760909865916 13.120065461244076 7.406169483322861
Mg 13.108126106479112 16.25451834057323 7.809521941106228
Mg 10.525657661653037 9.961648024461233 9.71771443607628
Mg 13.223477356594161 8.610451685725023 9.267308552200513
Mg 10.834027081339332 16.83667251323829 10.340125375921131
Mg 8.730391631102618 14.504328084777915 10.247583608936353
Mg 16.693302607164515 12.262543149771846 10.045634118645468
Mg 13.634094860530078 11.744325448407333 10.273803974772317
Mg 15.677946499700697 9.379614017871225 10.985875169476422
Mg 7.930398005365954 11.502409127896774 10.355395363143357
Mg 11.040571761586442 7.249674494561002 11.07298974266735
Mg 12.048519861952313 14.05996606356931 9.483097136146087
Mg 15.212099100704284 14.843421479709102 9.720757957121492
Mg 14.028401365045966 6.9816778083286195 11.73044825403028
Mg 13.827842384547557 17.22372416519813 10.708751569594993
Mg 8.149881880785786 8.495258719886595 11.274741292915499
Mg 12.653653054682149 9.754912022855637 12.189036488253647
Mg 10.790819463230035 12.369357556391776 11.561554624223595
Mg 6.442281608733216 10.583015790943447 12.771163583767144
Mg 12.118400935828744 17.44597340429768 13.047402967555767
Mg 16.630431673823768 14.399060209586107 12.362327891406952
Mg 14.934242868230063 16.586961477685772 13.593752532369102
Mg 9.276711349435681 6.657547821082165 13.376343406679206
Mg 10.256485072356986 15.131424278584552 12.873359224084465
Mg 8.059525819633192 13.049392708123078 13.004740498604791
Mg 9.834319042919873 10.129426621404813 13.262619649522138
Mg 13.304392145474285 14.273498481586552 12.226062395696996
Mg 12.112159934633503 7.2816894662011835 14.079210926417609
Mg 12.417358971942253 12.072461090633762 14.093759418946316
Mg 7.068191157276711 8.277666536293877 14.385625412473935
Mg 9.927534393673511 13.336579470472655 15.390585149458742
Mg 14.914765909360993 8.762421351372176 14.055108582999654
Mg 12.380332113612093 15.227581444902762 15.119088039764229
Mg 15.261369550747123 11.660730523706228 12.91218787617483
Mg 15.060637119899578 13.92171877512846 15.02561818450783
Mg 7.863394843131575 11.020036604640499 15.473132432295825
Mg 9.760823372307417 8.444246366942934 15.81644412920881
Mg 12.817111008916665 12.752516773503503 16.99265304645747
Mg 12.646717924608602 9.521515690227998 16.068056689646284
Mg 10.323414711397671 11.056781280100259 17.266257710531065
Mg 15.147377068851723 11.081975037817562 15.941230860427064
