45
Energy = -41.19439365 eV
Mg 13.108561784496843 16.38614996299435 11.234136719367331
Mg 15.989369315692745 17.372502041243937 11.412120117475233
Mg 15.280224788773484 14.51044808003224 10.286824388870963
Mg 11.043831217559715 18.338306062823698 12.747761765166446
Mg 13.935202391717441 18.177434299283075 13.619994254144988
Mg 10.315890282261606 16.705805481132657 10.206822894626772
Mg 12.581718937653884 14.225438560938697 9.148692523521424
Mg 9.80084886277104 14.644397642577104 8.16000741638172
Mg 17.759250176665 14.973621433837637 11.925934652828142
Mg 16.853854424319586 12.091425266567182 11.423957493266897
Mg 10.726750425021834 17.47680210982908 15.77146536819473
Mg 13.436750146914774 13.323371546278148 12.39809370532667
Mg 14.240488014888298 11.514259330436998 10.123415281356596
Mg 15.18873637595138 15.439367027460648 13.632593782477638
Mg 11.96664392335064 15.464705559270676 13.927095550090126
Mg 8.989991716786493 16.15766914858857 12.949959813431967
Mg 10.625838179617132 11.84959333684044 8.90198699693389
Mg 10.613821103429757 13.893761662295496 11.443834422841679
Mg 7.823752087429423 14.589493161097272 10.624077327105653
Mg 13.793885115664944 16.570360110089567 16.180441758372044
Mg 7.626643879636146 12.588575080433866 8.357483545931187
Mg 19.534669841978197 12.622430956969128 12.609158795874295
Mg 12.336706977774739 9.469247437340002 9.111310946716976
Mg 19.194577908447826 9.944828396249402 11.405966559055752
Mg 17.12909924424536 13.279252029046527 14.327416743152122
Mg 16.127945922836563 14.73507715454333 16.756369059500045
Mg 8.44744549014097 11.438621146438978 10.999082126290942
Mg 16.337844981938552 9.179872905011425 11.60044059203113
Mg 8.153019304857088 13.22384676221799 13.40536252960444
Mg 11.539097803811998 10.956295746335902 11.689305303452553
Mg 11.153497125352205 12.52849083192009 14.266097858994701
Mg 13.874751856561584 13.15350831885755 15.496560366797958
Mg 14.801366475465658 10.93900173696043 13.672152265615292
Mg 9.163493271320313 14.891806292202997 15.653276667240972
Mg 13.456505266811874 8.580424479717536 11.635096048599218
Mg 11.754991834034096 14.640291119051371 17.10223595230933
Mg 17.77895232835144 10.3492623648487 14.13784011475673
Mg 16.27678116495125 11.656145743565318 16.604281599017003
Mg 14.695006749350204 7.924066663589239 14.232911475072214
Mg 13.8254077099386 9.901000914288103 16.51646697642875
Mg 8.876981041024333 11.912385785775411 16.11741740945837
Mg 9.180843509217826 10.19861471274635 13.61151689929684
Mg 11.63841468091169 11.690528429008117 17.202283855652738
Mg 11.958489756749984 9.289867718980373 14.252590806569206
Mg 16.573660817924473 8.676234339613195 16.402221911566745
