48
Energy = -45.46646772 eV
Mg 13.804141039987641 5.813672535882431 13.30852081048475
Mg 14.548655145111839 10.851083875156982 13.161294386374802
Mg 7.19086883920728 13.724409401992355 14.313400628396906
Mg 14.109846571636156 15.302141802175953 18.39585869292634
Mg 9.47808599885519 13.006075849269862 12.3044312257766
Mg 14.81199915395877 18.388378231472164 12.075010202422973
Mg 14.600747003425754 12.410618398541407 8.735653995672534
Mg 12.447213358856773 18.088807816251467 13.919592692382336
Mg 14.556919617560423 8.098232375161135 15.132504249753545
Mg 13.468685152027208 9.956281018163208 10.235395933737456
Mg 12.426044534157894 8.339026461742906 12.99174616211576
Mg 18.82078288363001 14.218824490125812 17.413751521603636
Mg 10.280240420171506 17.494633676835974 15.939155090735591
Mg 13.202142779229701 15.653380292182616 12.11931775721196
Mg 12.195198301475273 18.059339316581383 10.677962446144608
Mg 15.270115066955197 10.570555507027034 16.437460048313188
Mg 16.56550481086497 15.965857003220208 16.452502900481807
Mg 10.538416141975905 15.431038979423962 10.460576794819744
Mg 17.084690095712176 9.499238727107937 14.08049707246602
Mg 12.289514591629963 10.36049957228134 15.292587663694064
Mg 10.131024204841918 12.548625612818956 15.484375392301047
Mg 16.082504224340266 13.02988354283124 17.90521514873705
Mg 15.760107135379702 16.233147559227017 10.288529295389987
Mg 18.237125831186937 14.801473640073034 11.475931324023179
Mg 10.313108109138698 15.216047989300602 14.078516935984338
Mg 11.302767457031917 14.995391768116384 17.433025261563266
Mg 11.210106839677886 10.764999554490156 12.262851955702605
Mg 8.496690865514752 14.852599247553695 16.727487493809964
Mg 15.351207180442692 8.021561127297526 12.044805932431304
Mg 13.144099273224375 15.31112658860437 8.925558694480078
Mg 7.665303562549073 16.82015679856811 14.580832165017489
Mg 12.271805697264167 12.943932193776606 10.593050696740965
Mg 12.609982764099687 13.172397085600172 13.663101331993929
Mg 13.014984753180592 6.756088732187523 10.418155368559894
Mg 15.707376399849055 13.301677780010168 14.759735896015428
Mg 15.264014540838458 18.291104156380488 15.116036741724937
Mg 9.85217375785999 17.77247584878984 12.527820948871755
Mg 18.648701920833496 14.401004713083196 14.410971000846812
Mg 18.081129546019266 11.682591362341006 15.8622619799809
Mg 17.469034867976077 12.81492381545625 9.542168767405032
Mg 16.173981624879513 16.002202022424704 13.343093211797157
Mg 16.437351852857184 10.3315908605287 10.682014866912514
Mg 17.752080984825145 12.069458919713751 12.72188685210974
Mg 13.630229272314457 15.535594736286 15.23101487243952
Mg 13.009453850268889 17.83949617270717 17.10078650556978
Mg 13.22964758184966 12.84047066207887 16.70444782377276
Mg 15.239252582623498 13.412647374868781 11.582882023990477
Mg 7.9656868817063895 15.516127079027816 11.908858074105146
