43
Energy = -41.44517844 eV
Mg 13.75940232400472 14.807908558311773 7.273567457346444
Mg 12.881166859913929 12.05448087449179 6.841551444961493
Mg 10.97565167380849 13.973820722553034 8.315225932960699
Mg 12.809256440932606 16.039420790350206 9.896911294416004
Mg 10.010207953139123 15.482381423070692 10.886991838772888
Mg 15.925220666587734 15.515496826470216 9.264182771724272
Mg 10.638269088014344 10.778561384706222 8.333232091831446
Mg 11.983150972640571 17.493666437512662 12.505268846416877
Mg 9.345966361071246 16.510541127649212 13.648403937454736
Mg 13.52547314615484 13.10311991177023 10.092486837966659
Mg 14.920927515721418 17.435422433950162 11.473115152293431
Mg 13.628614684817649 10.20953732910302 9.094314244245721
Mg 10.760015732964938 12.347709602581391 10.985772201089855
Mg 17.74146290109385 13.441856650139513 10.368693746506084
Mg 11.473074408279487 9.21512006981078 10.961778601371023
Mg 8.4990442610543 10.06309402382667 10.421551733295406
Mg 9.060648074473148 13.549793294598217 13.104726977323402
Mg 12.321787942328967 14.455838422969473 12.703950811806548
Mg 15.35796478750801 14.402706712943752 12.157973873078985
Mg 11.805894521123374 15.866991921926305 15.345985064363253
Mg 15.783591627729265 12.465758726173497 8.162566865858823
Mg 15.83604325023084 11.130244340496235 10.970654563058593
Mg 14.304939521850686 8.48727902425569 11.488650824282338
Mg 9.152746925142695 14.529004763215712 16.00805382364647
Mg 13.224149404964749 11.447011349174607 12.667557726164112
Mg 9.85830848414098 10.371733967320813 13.222229348590297
Mg 8.096536329336416 11.617133075895637 15.341275862161956
Mg 14.43638235069234 16.54522612589575 14.223514424994859
Mg 11.382727765670861 12.58007940523794 14.957860097505442
Mg 12.470379594540995 8.749437895587052 13.904357616813462
Mg 14.5507748884411 15.559192111033939 17.095451785885412
Mg 17.308696856580532 12.314608060467599 13.315353714327713
Mg 14.31441707457105 13.345659940154375 14.877787600409288
Mg 15.574434068660262 9.884986965232176 13.86361519266832
Mg 11.874476506548945 14.090020861285733 17.766542307034225
Mg 9.396671368440067 12.188753738046197 17.862644060971824
Mg 10.557096109806835 9.799909375383185 16.14811331699304
Mg 13.660026139612736 10.539706130657251 16.033881822674225
Mg 16.981179350538756 14.92503521744911 14.930208797302788
Mg 17.22064565182465 14.18709594292838 17.77727488177941
Mg 16.69533831196403 11.644372456056441 16.149651940329065
Mg 12.071453325042695 11.107328174309158 18.463754205428042
Mg 14.63561517059485 12.667335176853728 18.115095329402813
