47
Energy = -45.95047317 eV
Mg 18.24827947902593 15.035355685990233 10.517633445089846
Mg 17.18782796763475 12.447283214387719 9.451723311949772
Mg 17.118178407144246 15.778400960742122 13.366496660385566
Mg 15.765610849831594 14.973961311977323 8.450332146112281
Mg 17.75248921533468 12.860084419867354 12.716645783257485
Mg 17.927602385847862 10.241033500014916 11.293410333641518
Mg 14.537513897950033 17.3005903178483 12.709104037606204
Mg 16.380531274105394 17.222007884246043 10.378265806188427
Mg 14.828308983764796 12.15681402315881 7.646179141602923
Mg 17.393691098089402 13.790953736331204 15.707109043406483
Mg 15.837278558302264 9.55232196771689 8.970202160489949
Mg 16.608588784698473 11.122550567910046 16.850567271196507
Mg 14.569779364197524 15.667522735963564 15.201395076665602
Mg 16.481194423269717 10.123293063891712 14.015313747451914
Mg 14.87433137997995 12.847654636203638 14.059177682959263
Mg 15.302437253173597 14.341862811680368 11.43049812080778
Mg 16.036946388187683 8.070870356379288 11.607901174931655
Mg 14.969606901845072 11.312109565865692 11.34368621521894
Mg 12.68878408295061 14.836425649391566 12.819302258232959
Mg 12.979935506868339 13.533589467699798 9.696410151479716
Mg 14.750732341317478 13.50042504515067 17.292292711757547
Mg 13.391342369101391 16.527549171037464 10.002369301346695
Mg 12.720815863433085 10.593449725826993 9.260728999751535
Mg 11.516497029319526 17.654691613058134 12.257709331205781
Mg 12.513200491620086 15.705879755595145 17.491455652234063
Mg 13.444428484483193 7.939245883490863 10.242224352991379
Mg 12.255075668591603 11.891388352734355 12.482310739016594
Mg 12.124306105916364 13.190870280337048 15.470487590124728
Mg 12.16145091469442 13.297452746017456 19.162676011305397
Mg 13.509046413352822 9.109182686931906 13.04274061768319
Mg 10.516635601857447 15.218662323225347 10.487213155209936
Mg 13.799181805789015 10.528928460910848 15.660107270093976
Mg 13.812646531988792 10.963727625735698 18.595145290873997
Mg 10.196321347716076 12.09599991867639 10.130818660580077
Mg 10.856690905794325 16.226361554098503 15.01566164084292
Mg 10.934854206438475 9.254436644688957 11.335760004854603
Mg 9.901598563308022 13.68700709682472 13.311563078147778
Mg 10.875602317271262 10.041040495006396 14.576680084424062
Mg 9.880723987161765 14.207636915888473 17.3781768459815
Mg 8.81195073279377 16.525559122533853 12.6662930197606
Mg 10.947574390528109 11.07608285510274 17.5187535327186
Mg 7.805551841945786 13.738833786202838 11.020182814907047
Mg 8.753411318902566 10.947026186945923 12.579998659987503
Mg 7.928944430508858 15.038877664520198 15.243288715008665
Mg 8.751087612639374 11.927604368333915 15.6429367526295
Mg 6.0713875748462325 15.466971578928653 12.675553377215135
Mg 6.612608292025516 12.744851544872985 13.673577685331367
