48
Energy = -47.37790762 eV
Mg 16.26872659948395 15.094655061596246 9.841048011693472
Mg 17.674394544295627 12.52189120701965 10.91077284765612
Mg 13.591329851987291 15.496251145790009 8.488902043530105
Mg 15.233807559790982 12.67341100942559 8.474142445257623
Mg 16.625017165713924 14.992177886536627 12.793781141728443
Mg 14.918337894115691 17.008175925403346 14.329691400407429
Mg 17.80663890005923 12.52828164141589 14.088815011509945
Mg 14.100970721647078 16.54906432831225 11.379584665678648
Mg 16.124990078390454 14.637293171730349 15.817490684909245
Mg 12.48182167617779 12.847043249881958 7.180711325032784
Mg 16.71404108475161 10.149312984178614 12.600886607970205
Mg 14.83263636785982 12.486831021702542 11.552195036574053
Mg 15.598181283717471 9.906412889052474 9.823719660735444
Mg 11.124353356661848 16.606941402351364 10.707176750398903
Mg 10.57730872264462 15.033667268417815 8.145414477115143
Mg 16.553688630470138 11.616622462090794 16.88923784508998
Mg 12.245080698323411 13.824075785108215 10.60544924226186
Mg 12.990591901146473 15.751008916899643 16.345903114931158
Mg 13.555033628634494 14.407014682237545 13.554674042326525
Mg 14.178514646840743 10.16224267089382 7.190244547013906
Mg 11.898994624430104 16.965449600438074 13.658222956755985
Mg 15.293477320290574 9.082599983371955 14.975397706787811
Mg 14.845297499423536 12.027668749059968 14.58887991051698
Mg 14.202837066373975 13.308396012947115 17.710430957512337
Mg 13.550282507843896 10.44825803162064 16.990613866632216
Mg 11.31523831758652 9.962175398203321 6.962942231748309
Mg 14.128759680517339 8.532593457294677 12.170446859531054
Mg 10.651669048113963 14.012361035093452 13.124646428619018
Mg 9.600863898553765 12.170926087966732 8.321365865859192
Mg 12.601851814004094 11.011629007977026 9.784851618132093
Mg 11.81423202521725 12.878650314906142 15.906055404538659
Mg 12.841682378986118 8.162279302255811 9.327485793487636
Mg 9.910512744048193 15.512324577388878 15.684493933600402
Mg 9.998054325136502 11.615106926284131 11.19806907106068
Mg 12.295352240726439 8.637406442612985 14.78221842383527
Mg 12.507372019964116 11.23765400509564 12.969005989993066
Mg 9.777070178831806 9.200195869877628 9.340022215458395
Mg 9.027490344847621 16.511575534506125 12.870594220802522
Mg 8.772599807888826 14.48516682268134 10.547601873587988
Mg 9.788546074711453 11.2299201176861 14.076951447666104
Mg 11.109253084103134 8.445591301156169 11.975888295847493
Mg 10.482959874449252 10.220708941040558 16.780672571998636
Mg 8.705637484345875 12.812969117217847 16.34225788978307
Mg 8.104893171484369 9.223056834108602 11.912373468010276
Mg 7.03162174826073 11.981797398626426 11.204188661734896
Mg 9.26539178887533 8.375841673259464 14.53998936159797
Mg 7.666394855026588 13.838042695974494 13.576153571178885
Mg 6.897176461122419 10.878273796538688 14.105648270999472
