40
Energy = -37.58904409 eV
Mg 9.10670985905115 11.682535586752177 6.951909182728658
Mg 7.6445105275673315 9.199467255264597 7.4772759076516735
Mg 14.904401730779824 12.496347590206371 8.222985620921527
Mg 12.076853397440795 12.135204725194141 7.448160531484849
Mg 13.157078833958593 14.982165562798103 8.761918912717013
Mg 10.136116431502188 13.895027675518108 8.786331224896252
Mg 15.714576674739417 13.906486659560104 10.710348166734436
Mg 10.672834209480618 9.150967315363205 7.767046692255881
Mg 13.297662016820588 10.141534900078172 9.587074736657243
Mg 7.508987818468409 11.306270491370409 9.59717544852205
Mg 16.100459710151267 10.794198192772148 10.483197666988245
Mg 10.98177777115656 15.696666036294909 10.970778984081521
Mg 12.62048695177472 12.893739505794356 10.758836251309363
Mg 13.842966010556363 15.807390953606705 11.976739427403263
Mg 10.401954982154976 10.9949625734914 10.018361654154624
Mg 9.44453996326945 13.210361006414084 11.805292425302948
Mg 11.380883024501065 8.251025011906217 11.125034526641098
Mg 14.155865489554847 8.873081187363098 12.25795579069323
Mg 8.46757250417411 8.303027944124246 10.14823970411119
Mg 17.76767378046233 12.37219880909907 12.41895336430871
Mg 16.95993356993133 9.586178522989725 13.231117054426136
Mg 11.557268323334679 10.78678647052279 12.84953034346878
Mg 11.568261766595835 17.322348972190998 13.321179281566812
Mg 12.068317838055128 13.722911950937702 13.572757146473077
Mg 8.474900258069855 10.356892612024666 12.483228772989547
Mg 9.276797676314088 7.422901760151507 12.993673491075677
Mg 14.47229752573864 11.851835739170019 12.904685591842457
Mg 12.020459700141533 8.123736589198463 14.361504319654355
Mg 9.50268510813178 15.266171674408655 14.102679067530639
Mg 15.927200931581657 14.386952633577671 13.800780143553952
Mg 16.920022251734636 11.784007141435799 15.215526829444489
Mg 14.584973105648093 9.662587681118039 15.216805067582778
Mg 9.392210849137754 12.28955171334847 14.740089361188973
Mg 13.63862156257169 15.691575350665609 15.323166087900512
Mg 11.878333908396273 10.837712711484281 15.940729914210422
Mg 9.371353880571501 9.313462132538568 15.23156615564767
Mg 10.94491822449438 16.80846449446942 16.284323554928303
Mg 11.309803463530702 13.872966334603568 16.526347478979293
Mg 14.182605323326857 12.752356381039087 15.91513415689976
Mg 13.245935603234226 18.74875270925879 15.392372519178023
