46
Energy = -45.03306936 eV
Mg 17.638936396274804 14.360258788422183 12.207462449751171
Mg 16.687696092391455 15.466580880245049 9.534338820140515
Mg 16.23743256087162 11.753929309330415 12.142571439390554
Mg 15.85035443100547 12.427098456023014 8.954057435216395
Mg 16.94017139325582 9.777041049832995 9.866145350080263
Mg 15.247714038109148 8.893920940398493 12.140496146047848
Mg 15.736331257396468 16.74076963172218 12.25951543120488
Mg 17.006278927259267 12.84518431854335 15.172091270559871
Mg 17.45115048633235 15.892679681179793 14.742064870903114
Mg 14.304958274728046 14.96240403067279 7.78025968209867
Mg 14.465669488119092 10.90375994076936 14.428250453845385
Mg 14.498283243058632 14.120714415698227 11.045885560030813
Mg 13.153287832975435 11.361192142558812 11.623663037584297
Mg 12.758864027526474 12.523529050421047 8.686883285271369
Mg 14.096817388913859 9.742677377912042 9.155380651742217
Mg 14.767369579435837 17.238391710591966 15.076154335142359
Mg 15.64631612185124 15.112347523363864 16.95175557130255
Mg 12.705449675406289 16.439713645259893 13.005543077052918
Mg 13.636192231320653 16.89134936977753 10.030924753181747
Mg 13.49372028784207 7.963779989802547 14.439120412819895
Mg 14.699991441849432 14.188340843260494 13.9577752898054
Mg 14.058960394490047 12.708052220645094 16.79353261673132
Mg 11.624656847026765 14.241169488638947 11.090459197754624
Mg 10.801908145611398 17.335560954272704 10.855831788970944
Mg 11.99363248707737 12.944662189517592 14.00154583231918
Mg 12.515630026165887 10.079251232513753 16.640542746685718
Mg 12.50999340315964 8.074723028478912 11.290700164242764
Mg 11.065129642111216 6.482029060647398 13.38469166689707
Mg 11.380421473150967 15.580497158987646 8.362809530337211
Mg 12.50224465487654 15.299751330933631 15.93677014114297
Mg 9.734026859103059 12.761017450539475 8.788170476484561
Mg 11.048859884774398 12.74372976309184 17.010174512057592
Mg 11.224576725226214 9.865242373991903 13.748389072958382
Mg 11.070224569877203 7.531475488624591 16.17504136722238
Mg 10.065568855201873 11.838298330401711 11.805287008714535
Mg 9.841967893744014 15.29694368417348 13.298220895093978
Mg 8.781917857981263 15.25881232786129 10.252298808452691
Mg 10.993737817316285 10.0174415548638 9.476039639653406
Mg 9.414336227008464 10.179430956526312 16.265975780898824
Mg 9.469818061000126 8.39992310004607 11.603125454050268
Mg 8.965681513850882 12.814688823212492 14.836110697664207
Mg 6.826821391563044 13.118299563053528 9.303701353142376
Mg 7.849628765040405 10.51999943849507 10.164497746208145
Mg 8.65945657202607 7.806665975620682 14.479985576647287
Mg 7.841897563549646 10.421928094417321 13.33456045434202
Mg 7.524456021323327 13.350631379906144 12.239574975128061
