41
Energy = -39.2649124 eV
Mg 15.128608559640394 7.898062575656341 12.57164699368238
Mg 17.205051582721495 10.009330240813664 12.164088833864463
Mg 13.620019811705827 6.644676468514574 10.353182426402284
Mg 13.706144175179086 9.164014193236204 15.122020206826706
Mg 15.846282894257516 8.718574217533044 9.667903925142518
Mg 15.469688907033284 12.009047928015413 15.433680739398001
Mg 12.082542926944742 8.07498274463054 12.708466343232045
Mg 15.245882809858509 15.129477044697923 14.043022255229271
Mg 13.148198482946807 8.26688042749793 7.883992788216041
Mg 14.304645480468967 11.010720546873658 12.876377174024503
Mg 16.712629848276077 12.979637658392566 12.785603609817656
Mg 10.862326981969519 7.580400955789398 9.894766476038102
Mg 10.673225579730381 9.452367788590877 15.090318344008313
Mg 15.719129447380373 11.876560572945621 10.147938289873611
Mg 12.653552349736447 11.474569112296518 16.648084013611076
Mg 14.873879772901988 10.67711631317952 7.551395816754795
Mg 13.096996108395164 10.013972360749637 10.380673852259008
Mg 14.43782227108219 14.2639433757502 16.96815252982451
Mg 11.177165470622057 11.166106623210403 12.628977496253357
Mg 9.194722952542607 8.821502418802883 12.102970868279373
Mg 14.905953866797356 13.860476949627518 8.020668954842456
Mg 10.007637080336414 12.46978391153017 15.293743758840163
Mg 12.383799924018126 12.23704609925516 8.137205652700153
Mg 12.955159160548709 13.08015078521369 11.08530478745014
Mg 11.48500428835559 14.271568352194674 17.2657475968356
Mg 7.966029019830727 10.586506318677978 14.200232424217887
Mg 12.808166307574009 13.343469745396856 14.170608105167341
Mg 10.229390570667112 10.515575959818893 9.571018763831178
Mg 15.385977260296242 14.994973091059599 10.838712641763795
Mg 9.48759402594572 15.569887579044499 15.400222114824341
Mg 10.35817061382544 14.190312407897311 12.646770543124006
Mg 12.614260771240028 16.273635529495596 15.33314548633998
Mg 7.528714861671601 13.695570830246046 13.833049193643685
Mg 10.170943717087313 13.598327300274223 9.585452949442343
Mg 12.679271588077505 15.482034573604832 9.172496422886098
Mg 8.337368455293193 11.83972068950651 11.512157182535015
Mg 12.896693330067734 16.028221980157905 12.195209238385171
Mg 7.938674411444619 16.614860550954777 12.982102029600874
Mg 10.66000477995224 17.613366399956668 13.445105125116822
Mg 10.138921764048941 16.54939907774402 10.641427146494905
Mg 7.592472547295072 14.725457000571229 10.83072566371585
