41
Energy = -38.77429221 eV
Mg 8.949458693144075 8.870832402102128 13.575403301160424
Mg 10.907384351788014 9.77649719982295 11.212370540192232
Mg 15.217567441343943 14.609820167626646 13.622634264303876
Mg 15.311359192981234 13.234274747018588 10.749693288058715
Mg 7.555121315692472 13.603637587395182 12.703884803594116
Mg 12.87196476427992 16.72060045543083 13.267271016834954
Mg 9.134124002436058 13.581601882707698 15.541212597140621
Mg 12.122763140175056 14.70234496685216 15.260613440995895
Mg 11.503713182287608 12.53791120205384 17.122839659013657
Mg 12.344317828654095 9.497221056888556 7.431582568946092
Mg 10.331874365858297 14.24174329739944 8.270076200081299
Mg 14.392734880342369 8.839804605922849 9.593679761462846
Mg 13.719471503411121 10.703989716463568 12.190961797889841
Mg 12.24532236993961 12.495744037430818 6.659842777700554
Mg 13.47081795604639 14.526003695786844 8.612838187223293
Mg 13.419863037277299 7.488918715504458 12.090939678254722
Mg 11.477485370947381 16.176627978918383 10.499155349140874
Mg 10.005160881596533 12.8199670173668 10.978403232984355
Mg 7.663557666685572 10.70594710475401 11.586870423616032
Mg 16.16974015555422 8.662152763947141 12.275884685761483
Mg 13.806866962822525 12.115918285255848 14.995144493577113
Mg 7.240294937440335 9.851930485453366 8.771123487694277
Mg 14.551234850990166 16.13459612053237 10.962742802796443
Mg 8.497398140020424 15.437224032488906 10.474971366985773
Mg 9.770527953274534 10.304131312847227 16.257610067345702
Mg 9.60896871974471 8.218673127511776 7.792843445535594
Mg 12.571213873223824 11.815127385986914 9.699623837445932
Mg 8.649227247447248 7.8454006798434355 10.560277504647436
Mg 14.87272527433003 11.452399408055161 7.899825886788517
Mg 11.77395723739756 7.234821818149628 9.526874792946176
Mg 16.36259085241167 11.703056741707986 13.259486731703054
Mg 16.618067504883786 10.693523856939906 10.250344005610996
Mg 10.796406820014948 11.845287091555967 13.70090143777663
Mg 7.3559422317957734 12.877794072935552 9.436249389510042
Mg 7.445027512770458 11.297665255577103 14.592032291666799
Mg 12.772590748548744 9.878448962079814 16.945680412337524
Mg 12.678198915863188 13.716141939240293 12.195272370928638
Mg 10.099593773931442 15.267672711307792 13.096539415114144
Mg 11.925601505220868 9.088822018828736 14.221772510404525
Mg 9.860860994859905 11.221300803892287 8.251263349921844
Mg 14.914265643429182 9.18978708927914 14.848626625768393
