45
Energy = -43.15739581 eV
Mg 11.688042970174793 17.887211438857285 10.2419376432766
Mg 14.34694762828297 17.5839536062482 11.765076096343181
Mg 13.661764041178419 15.696151746140595 9.340051313784793
Mg 11.26121322720951 18.26883486067949 13.203151713684974
Mg 16.562092016259495 17.166819674674066 13.662276253173477
Mg 13.497222751711496 17.257477403186687 14.783351174219698
Mg 10.541964879994019 15.453864506397176 8.904882575869332
Mg 9.25265520292326 16.44175546684352 11.71781633425696
Mg 16.045658059607725 14.997758041341857 11.14381852525062
Mg 12.09048935445473 15.472340570110637 12.108401241643085
Mg 14.465463582847365 14.584395358744676 13.62409165834504
Mg 15.867433000863697 15.831045767362058 16.13937671392695
Mg 12.470006296725183 13.680036383168844 7.474627413041157
Mg 10.36009290206849 15.63143167263716 14.611578957140749
Mg 15.227283231156619 12.765976998348126 8.776928300426066
Mg 17.426189582632325 14.097720041143527 13.891728309839069
Mg 7.684922272949734 14.75999315093234 9.778202889796109
Mg 12.822184725089965 14.554147440472136 16.158743545894318
Mg 16.732407739061813 12.047700480253035 11.573580525180942
Mg 9.53468300326196 12.608548217235164 8.24997908254929
Mg 13.52373932575819 13.063990064134288 11.087144285870103
Mg 10.412197956495593 13.169035075506574 11.041016481488969
Mg 12.292148409524358 11.100358549864874 8.802742804546261
Mg 17.53546381396101 11.190504289037587 14.526468698438979
Mg 14.5550443580094 11.631130766323983 13.564602894747063
Mg 11.90518248592766 10.64773579156023 11.773495385752199
Mg 7.4587890581304865 11.982425830762008 10.563988720828632
Mg 11.791367757677842 12.858080228828946 13.788198052816409
Mg 8.20606571940552 13.89842101008509 13.083496330590794
Mg 15.402390709952803 12.865983585323303 16.26316632742523
Mg 9.509030379675874 12.674855002736916 15.695474412280678
Mg 14.610104768927277 9.954740128990348 10.600185760223159
Mg 12.52347955862911 11.510305241824298 16.474878691078562
Mg 12.037621483280125 8.259093350687357 9.88135824774247
Mg 15.259153026604203 9.834145322726041 16.17794144911825
Mg 9.062877788685288 10.989815106824409 13.072904874895716
Mg 9.526655942463957 9.987454365099778 9.940308806698168
Mg 15.96995564756736 8.969203260893309 13.137606338255447
Mg 12.739580111089808 9.49903124938306 14.238310465907466
Mg 10.299716030733093 8.150620091042294 12.51228207655141
Mg 10.079980468329184 9.617018539268697 15.58728384174033
Mg 13.4645018476426 7.32696793736492 12.27751787358088
Mg 12.612105905468264 8.482665949575832 17.071322395055354
Mg 14.538768304589729 7.104368923614353 15.14760500403112
Mg 11.472823639734804 6.727002157956218 14.827314269952177
