46
Energy = -44.58902162 eV
Mg 16.804929695818302 15.247022588586937 14.159440263170387
Mg 17.73549928374795 12.274441192395486 14.618737075349166
Mg 14.21716930454821 15.884972260730256 15.861030633416224
Mg 16.199871115337338 13.569366558108554 16.722152934937505
Mg 17.297148745761415 13.334381377197008 11.692489989731019
Mg 16.489844433818373 16.163137345223582 11.316364838214026
Mg 16.075088861044005 14.68670802659709 8.75147668306231
Mg 14.174921542053609 14.631533170380811 18.734164600844945
Mg 13.865977270952055 16.711713328193674 9.856109715290074
Mg 14.620832305366713 11.592603951304353 18.47080614393914
Mg 11.476251678992725 16.944375827718734 14.700429284253563
Mg 13.92092733916054 16.19035080278211 12.878446469262897
Mg 15.242059426643035 10.468668136750207 15.645706678471495
Mg 14.770409904914427 12.99333992165294 13.6298720471148
Mg 16.326969528282763 11.427350584661728 9.578587905328568
Mg 12.801790670987817 14.85509851862616 7.826199151500873
Mg 11.428718364753035 17.535735543034487 11.648532507913481
Mg 16.563908496468272 10.49474754617112 12.595862761080626
Mg 11.511723331534093 15.35195481602419 17.355365774760212
Mg 14.138628469684212 13.587562849245456 10.77696609100928
Mg 13.164832485600646 13.010084574317938 16.220874481095574
Mg 14.709694925602596 12.485932630865126 7.356946765740343
Mg 11.872600398076994 12.846188693648925 19.086605167407196
Mg 12.441771550281992 11.071130941628471 14.096204344465036
Mg 11.787641834187944 14.04127773751123 13.6667960027759
Mg 13.790849967897254 10.678535029528557 11.336828945669703
Mg 14.047316946086394 9.68831404944877 8.297151456751513
Mg 12.023149785790533 10.350961194398 17.388042716266387
Mg 9.154462959888638 15.111309285358182 15.566316190998245
Mg 9.659123531504834 13.978088372452554 8.10087946911527
Mg 10.031037015606072 12.501901808461328 16.609433125347465
Mg 14.607390038141673 8.424916263893559 13.3985883851509
Mg 11.447747130466748 14.766415070602584 10.586588523785744
Mg 9.194079363632351 15.66157071408211 12.671572023627439
Mg 11.090781159686266 11.950176632155094 11.488905212054009
Mg 11.965775404264972 11.987949337102862 8.511805019495077
Mg 12.547530548214677 8.303401208218347 15.440443600104656
Mg 13.733186317742932 7.8012596742190485 10.56735789437186
Mg 9.193449852772211 16.40825610735344 9.71309762906885
Mg 8.914735470740737 12.611514514345265 13.77107975906995
Mg 9.807953928214516 9.83973187226673 14.97856200855973
Mg 8.98677584587778 11.164825760342014 8.98228404635682
Mg 11.501258124582746 8.627620727100249 12.586208896598487
Mg 8.307631951825996 13.427256958668538 10.79384074708196
Mg 11.191919133899676 9.269890490180735 9.668884374352974
Mg 8.833105470023273 10.101729174210416 11.911286408842157
