46
Energy = -45.08939807 eV
Mg 11.806776565417124 8.61816782335488 16.86714328969236
Mg 14.97027968969247 8.953106232586126 16.473639788709942
Mg 12.855625855532999 10.810243870309877 18.494407745407425
Mg 13.098390115908868 7.787968368635725 14.300839535921616
Mg 10.143476669340668 9.24221286578216 14.50131836324487
Mg 10.309666545720832 11.332581325898458 16.79777441734867
Mg 15.337388418225304 11.845110120117697 17.404342336517484
Mg 13.318765071863389 10.965370394997008 15.0122653935065
Mg 16.291218055191298 7.908609757686321 13.635740314240852
Mg 16.81131388406481 10.889072184876099 14.886927133725539
Mg 12.617894744780294 13.411383117583334 16.868160803100714
Mg 13.91171570131703 7.283694965158044 11.521381002662
Mg 11.920933834210315 9.625408790364677 12.121328469732369
Mg 8.959128536867212 10.514496952220272 11.880371279028463
Mg 8.097989880763212 11.985836994302364 14.439795062676085
Mg 11.041739485279578 12.093154050602426 13.712458181471375
Mg 14.844134723459904 10.205074385344874 12.499772972377372
Mg 9.75710909012764 14.196127497733574 15.840651862529723
Mg 15.130300267002669 13.556714542168535 14.996486444602953
Mg 18.020201600151754 10.121875157634832 12.233516233237092
Mg 16.396850483698948 8.400982159607954 10.461845749998398
Mg 10.38271203447726 9.031451091095402 9.546624787646664
Mg 7.143286900167678 12.871230345651202 11.64723721614843
Mg 7.334176333053468 14.942074851387487 14.000808015232145
Mg 12.340798786968833 14.865886976166353 14.166669958176737
Mg 13.546990838603604 9.671810966068188 9.524840602622364
Mg 16.155701920646138 11.427467060892953 10.004047209802645
Mg 9.807295685946823 14.274525534579281 12.424826547550913
Mg 8.662253220547774 11.544439504434035 8.964002566778454
Mg 13.62371197670771 12.803112993956198 12.129656437185698
Mg 16.811824998209133 12.978073617462814 12.57815911927424
Mg 11.384883675505058 10.781316420915015 7.491498945540665
Mg 11.140027875278681 12.180689309941439 10.50879423780862
Mg 9.876763869528729 16.800055153044102 14.304876720271395
Mg 12.210368470896245 15.076328287247431 10.77271989636591
Mg 14.978600503675338 15.630160309717203 12.843424073557644
Mg 8.67241608942807 14.50661325296796 9.660907603157817
Mg 9.748184125889303 17.05147417655138 11.281356135832667
Mg 12.462174109670555 17.51130574491479 12.693763833289646
Mg 13.580135335118413 12.655239895982547 8.749134280770908
Mg 15.514937354158455 14.460158194737255 10.11345147403588
Mg 10.896849210181504 13.674641584163389 7.7320390499617435
Mg 10.399794081510997 16.541557073489518 8.337669980547464
Mg 12.080471921876171 18.42782307987576 9.817820363337473
Mg 13.361151223622093 15.75068384698396 8.11248023888235
Mg 14.682065906077863 17.34673993306011 10.450459388441322
