47
Energy = -47.15955961 eV
Mg 16.033274681693683 12.571421545010821 8.909365974933182
Mg 11.988058738238895 15.832060497679842 9.555429617684208
Mg 13.496294073839385 13.752834030090794 7.869130254261393
Mg 15.797489783776037 9.874217841759906 10.236427982162038
Mg 9.974930669941068 16.520215006932087 11.753196391127176
Mg 12.054366241410614 9.454987295012579 12.278686006264591
Mg 16.402209501402186 12.403956254307765 14.895602315299946
Mg 11.52529330367492 13.802056872875546 12.17274929987199
Mg 9.33498518046486 7.674658199389468 11.885059584343251
Mg 14.050553741019804 10.750222303988389 7.570863152758713
Mg 12.968371135502455 16.61141986054788 12.279111630764517
Mg 10.54641088421708 13.236504346244635 16.425996088845892
Mg 16.273883117541676 12.47121559243864 11.881275927214967
Mg 12.054495599365655 10.394785197226275 16.428305276149814
Mg 11.349619300725331 11.801493420605572 6.494781496754675
Mg 11.520084164319735 8.654161455882864 6.902738464175775
Mg 7.169620270636238 9.35878471030841 10.377050216796075
Mg 10.532824273206476 11.547598209172692 13.97027640215749
Mg 13.71311119582206 13.08561707603192 16.384405412602554
Mg 6.309520581253585 11.71686511832928 12.084385641509334
Mg 10.33160427365902 8.28775286987439 14.751184404924157
Mg 11.520249977344061 9.957464573537322 9.430735360850642
Mg 8.565676734690234 13.27562471713678 6.779631393538674
Mg 11.886949544511328 6.394679137452575 13.023200989092079
Mg 9.320295328009413 15.154207391566247 14.369761927800873
Mg 7.7262560165099075 12.645428201500534 14.543021337549416
Mg 14.79969592889325 14.611029163594514 13.549491969037199
Mg 8.99992421675282 10.515983661382306 16.291824532055237
Mg 13.40498951199302 11.97624391770406 10.621099435915196
Mg 14.432573495703524 7.518413495818857 11.682161349318752
Mg 8.773100283476419 15.352162803132535 9.138082095765048
Mg 15.894505035452578 9.682975133351878 13.28938841934546
Mg 9.227122905567956 7.752112044864172 8.884327818089533
Mg 14.717723452684178 14.853534713490374 10.510572875602923
Mg 14.05586341716352 8.020101260153181 8.692035087145978
Mg 10.910554306627619 14.925026151693501 6.868353177959546
Mg 7.805807600585098 9.590711183273395 13.601294109458907
Mg 13.560306980220192 8.21372103440879 14.731816256675412
Mg 9.373103458999635 11.143260043770036 11.314823504320351
Mg 13.57843724651091 11.716260661296147 13.684626797423554
Mg 8.825018554841009 10.464261179908187 7.803565654967479
Mg 15.063807280378674 10.294092660331959 16.270008433828657
Mg 10.657969801869049 12.950232669437822 9.295647201357559
Mg 11.772161742715223 6.837275106213531 10.098747712926471
Mg 7.9945365839173625 14.200674980858755 11.86104864431412
Mg 7.239822736398239 12.562283236982951 9.376300988396046
Mg 12.219487213889497 15.342353240846164 14.935351454079132
