49
Energy = -48.65586705 eV
Mg 14.388716258031826 11.796905925985804 8.6732411506454
Mg 11.967781791231394 10.000525060827286 8.54267065488075
Mg 14.073088210623498 14.867004388116289 8.89946002765945
Mg 11.609525763313753 13.136915549105565 7.765130392255789
Mg 12.27746888965906 7.044577445958045 9.991785134295597
Mg 9.666541419637731 8.300545844860684 9.891229900843681
Mg 9.0714505964132 14.129579907194424 9.394808755452285
Mg 9.49412963553725 11.247056030909315 9.859596411445233
Mg 16.20605209784968 16.50501522116433 10.362575585317211
Mg 16.957089222873503 10.60922342776491 10.021427663348467
Mg 14.46686148591949 9.042514325157226 10.130117801659244
Mg 16.45610815087144 13.564643819705381 10.284255158125713
Mg 11.404546909762432 15.970232211428803 9.458846373506933
Mg 11.999139061153013 12.885960760610663 10.61204723359552
Mg 13.60441418260966 17.84249979740614 10.749013246611582
Mg 11.901539665982265 9.970596525288055 11.624908940842117
Mg 10.551152935706472 7.1386352907273025 12.477486294379489
Mg 13.358412818738167 15.093713423822102 11.996539260223189
Mg 17.91333726001322 15.112456514804215 12.479611127634515
Mg 17.74741758818004 11.92951335684572 12.532568550138873
Mg 7.946520008235012 12.727954228163254 12.00390706466304
Mg 9.946285606088205 15.147688349431613 12.067881934530734
Mg 10.779856016188814 17.99273304592031 11.660022829460432
Mg 16.167838722325786 9.239648331985848 12.771083598746767
Mg 8.90976369670552 9.792141478711049 12.584292586646951
Mg 13.531463660275715 7.670260140368145 12.776630093561312
Mg 14.480850259323148 11.70386512044476 11.95062529459938
Mg 10.705226779963237 12.258970906288699 13.242050117722288
Mg 18.44814714824084 13.37533272039661 15.054449908048154
Mg 8.546396140109215 14.221329967989396 14.60322836025444
Mg 15.407399794088166 13.919168129816235 13.885960463397328
Mg 11.850625741299126 14.683694346441339 14.619222011359012
Mg 17.367059076024685 16.03322193344213 15.37831947227385
Mg 15.528351672751194 17.12447127328869 13.200726244447015
Mg 9.650970167920997 17.169868520776586 14.354272849956988
Mg 12.632614360447166 17.67236470134259 13.994109378485717
Mg 13.274083979531072 11.93664837307224 14.75372231997087
Mg 11.236251739494273 9.205232770905056 14.605165196002908
Mg 8.990578856501367 11.185553220353142 15.432124332403657
Mg 14.20670744133292 9.070932479487844 15.375143587035211
Mg 8.663909227127467 16.16080241147495 16.95256074183392
Mg 16.465861385618638 11.108025916534396 15.173464495365033
Mg 16.13128219667308 13.71401178052577 17.011761136732503
Mg 10.151533888808993 13.51140183545961 17.047993493335994
Mg 11.621147702020405 10.899470159376492 17.102986639352082
Mg 13.092802864024874 13.781668384768558 17.473804755421554
Mg 11.570670405336571 16.581238849523928 16.957888016708896
Mg 14.408545464948517 16.151155674850312 15.96559193547149
Mg 14.614804076369275 11.147290176388834 17.55990444947442
