49
Energy = -47.27897352 eV
Mg 15.167427444105389 9.413192013938176 9.96868616424075
Mg 16.736345447759817 11.289634034281372 11.875804465606063
Mg 16.448157255360684 11.972785905901375 8.954329593459919
Mg 18.08984138558929 13.855761406580813 10.675391866056298
Mg 15.104151952132932 9.994901385013227 6.945017941705349
Mg 18.630349348977646 13.31272258657615 13.616842905933884
Mg 15.367450929271666 8.798804332801993 12.86447838171001
Mg 12.53536582728503 9.627109414187853 11.622444048787367
Mg 15.251979553144126 14.711150228346396 9.645367304694048
Mg 13.848758154210262 12.792777242064608 7.637347043350455
Mg 17.117780291383706 11.143377842207563 14.943897581739837
Mg 17.03326609159883 16.57324845499164 11.404572315977132
Mg 13.721801380192169 12.274532225505261 10.667003389440133
Mg 15.676178482372961 14.003267251972082 12.774726586886004
Mg 17.660382278568072 16.097886689886426 14.32492291868968
Mg 12.529766604530431 10.183066481629476 8.58064248984038
Mg 16.556400256397545 13.914522480661557 16.05699732827993
Mg 15.457804102362253 8.911777314880991 15.822839141156253
Mg 12.613311315256947 8.785900485092219 14.424914479855317
Mg 14.228568045895605 17.395467790256383 10.583848300555807
Mg 12.451806312091684 15.257857801633039 8.74536676231781
Mg 14.19658822091413 11.471613297185014 13.710230969772255
Mg 10.919023385634443 12.775657618206907 8.094879313956397
Mg 11.371777800992582 12.495767051563154 12.605294487439851
Mg 10.14536151851157 10.829626001453411 10.22880864648924
Mg 14.811621936347251 16.817198132140366 13.515810276374568
Mg 11.385700934291174 17.721425501829383 9.902220642698538
Mg 9.846748735120304 9.887468842903088 13.23902890106687
Mg 14.718424218085927 11.786084155047755 16.781348041537974
Mg 11.78747499197759 11.715342202997832 15.584163711956213
Mg 12.99171960251702 9.362285333245136 17.367604266170076
Mg 9.968743901711226 14.22574087293955 10.467305143821678
Mg 15.430475611119284 16.738183807122176 16.44337705907486
Mg 13.501900840654057 14.205336543013583 14.901730069313029
Mg 10.086078736942097 9.26798228440322 16.118353964819804
Mg 12.74427069818436 15.016531790059862 11.805807139758915
Mg 9.474907256670134 16.91771297565511 11.899985493063081
Mg 13.761547174767081 19.00111289412332 15.279465077962945
Mg 12.049972235589335 17.835369392160736 13.082926623953202
Mg 12.297369595240628 12.139924761254964 18.599637365849738
Mg 8.11599730183617 11.979808178870602 11.910007711808818
Mg 13.934349110318113 14.595255180069861 17.90836008645302
Mg 8.965749591647533 12.623043314684576 14.767766503966016
Mg 10.543910197858313 9.639610018316478 19.111551691377333
Mg 9.289407200057722 11.934008102021204 17.616880802010215
Mg 7.838616245705095 14.750544041271153 12.829637194947551
Mg 10.837472679812706 14.37817215905841 17.079453024789082
Mg 12.26192341042465 16.702116610991077 16.23417783484721
Mg 10.585977800883756 15.202689345405203 14.145622426195708
