48
Energy = -46.83676773 eV
Mg 12.14196314171649 12.288477861965116 7.473710623453545
Mg 14.708058791367986 12.66009936242529 8.90331252834735
Mg 12.439296895245914 14.947260963168517 9.112584829599427
Mg 13.326240008447904 9.93344263895354 8.924520292798457
Mg 9.655086748376071 13.37542106381171 8.547733671624178
Mg 15.500633893389146 15.525593506512402 9.088752526371795
Mg 10.286219050593163 10.30048303705462 8.972062439365626
Mg 9.602861250789648 16.3624424459434 9.249893753640325
Mg 7.348600350062015 14.671012315512009 10.129603150714958
Mg 14.236614171568075 17.502126134049398 10.701438183687262
Mg 16.41975016904055 10.111471072681162 9.347440985703715
Mg 17.086900940795026 13.544776699418517 10.520649821200706
Mg 12.037070070616384 12.056917186595786 10.78976546420151
Mg 8.29220809285292 11.792584732728972 10.740642931158165
Mg 14.451221302862837 7.770919003233253 10.523644779094347
Mg 11.945225884300033 9.102787483028226 11.852418031061065
Mg 8.984917721149515 9.034632334042639 11.311713327151752
Mg 16.305456915695 16.060311477350144 12.400578469951745
Mg 14.034439143636009 14.105501670581146 11.822133623209396
Mg 10.129315015375578 14.128229237697226 11.613901769707457
Mg 8.50831842937157 16.627914706749362 12.222688496163002
Mg 18.16934174311825 11.088701050679337 11.669660462489652
Mg 17.031841296659024 8.290682855618888 11.757251798502185
Mg 11.515954379642169 16.820341343394215 11.53073273055858
Mg 14.814619934749656 10.970933518634888 11.707619242653482
Mg 19.477745039618288 9.019635326520374 13.585660714442554
Mg 7.33715966571776 13.670291434790911 12.986730634488781
Mg 9.447626887255804 8.237145396266062 14.063312186443692
Mg 10.414370190528782 11.620548843909257 13.43658265460616
Mg 16.847616823916095 13.247550485243808 13.570446945144825
Mg 11.951212290194839 14.48346249527428 13.938131035485748
Mg 7.50567638857483 10.558625668931017 13.58704032601214
Mg 10.640692333303564 17.77559567890036 14.19055457786888
Mg 14.486117780464507 8.227078019773398 13.51390046146867
Mg 13.61145121884043 17.210696059247553 13.64577388097773
Mg 16.63339623682375 10.285603941011695 14.24709123204034
Mg 13.403080433271457 11.816891013216646 14.290056100097553
Mg 7.8265249586230405 12.64435627275591 15.736339409163973
Mg 12.06847903508081 8.950733385589794 15.170321087515184
Mg 14.929040516789087 14.980346152335047 15.086661583539323
Mg 9.121421604997566 15.308693856857312 14.982502070842639
Mg 9.592108283045963 10.280850485361452 16.262871186857
Mg 15.713648232034728 12.287831642342116 16.34184122540939
Mg 14.754820614089402 9.403187951696529 16.358716640483017
Mg 12.095260149776754 16.260375965504373 16.278319760703774
Mg 10.679546587583705 13.21408675720141 16.526834238465018
Mg 12.517515803909006 11.044684813206079 17.327208136449055
Mg 13.427328640588629 13.852659708684929 17.41264503553585
