47
Energy = -46.27002906 eV
Mg 16.258102850975096 13.547171902563566 12.914902682640568
Mg 15.568452004126103 15.39925419791228 10.604641529316114
Mg 14.574273075099837 16.24794861564883 13.436849901966601
Mg 16.968257654992883 12.637761026401812 10.116977634683161
Mg 17.477946356828763 11.764704532951724 14.974800651037334
Mg 15.19825661198696 13.866780265872132 15.697079720741195
Mg 17.032364296823506 10.524744229982728 12.297528874966353
Mg 13.487384812444773 17.685381360333697 10.961755617207736
Mg 14.124934733242199 11.98018789128503 11.200140469159168
Mg 12.699164431351807 16.409023485017485 8.301349958261625
Mg 14.63749863450265 13.552270159116388 8.47397520340085
Mg 15.78413823150026 11.401234050728101 17.31950193941342
Mg 15.657549817259026 9.823008025435005 9.579121768973078
Mg 13.128568809743049 13.615445461482413 13.450752911407202
Mg 14.317596258460735 10.943671420815484 14.123199407760197
Mg 16.304303859436956 8.98838249573717 15.22056256339292
Mg 10.498575995042971 17.059278263779742 10.525449625276249
Mg 12.899984255696426 11.01370605602432 8.525087186979523
Mg 12.76991180080455 12.275422563111825 16.538500904390613
Mg 12.145810287088114 13.730455039050472 7.02495122051732
Mg 12.60022859860775 14.661462889341813 10.684115289910194
Mg 15.170854734047344 8.23426273008493 12.21774631031371
Mg 11.764443454905168 17.415742169875504 13.433377072350744
Mg 8.656945727038554 17.551468328286727 12.845504396476228
Mg 9.925203696414183 11.866956176171755 7.381253081535474
Mg 13.277949877410826 7.904577575491888 9.517528102075893
Mg 12.368079454759007 15.30565662482014 15.736305001276971
Mg 9.92876186802055 14.592116164839922 8.838093218715317
Mg 10.442887529286253 14.704915288505706 12.822157012299641
Mg 10.988143035216313 12.200243306590178 10.756213936010703
Mg 13.940147975796073 9.244949809880167 17.287767910077566
Mg 9.696788057166454 16.540248293561504 15.468094562891155
Mg 7.937939194264787 15.144823944846943 11.020356284611793
Mg 12.809323737929695 6.346535492431119 12.224068580263324
Mg 11.20165752989263 11.482854369753921 13.700949630948285
Mg 13.393859150821234 7.985679544825592 14.672892725945792
Mg 12.376401264618863 9.590050675588532 11.804832522900641
Mg 10.33966524647169 9.52704636338969 9.101340083089676
Mg 8.065425934935286 12.207131401600693 9.730470288588895
Mg 8.243292573389372 12.552849674101838 12.756091100986058
Mg 7.549331444685478 15.106429284632792 14.10748962535386
Mg 9.80575637075668 13.360079597029817 15.613780341126544
Mg 10.422441431889892 7.16570249814633 10.864301493871412
Mg 11.20064429350949 9.702789294923127 16.237707915032228
Mg 9.12066387656637 9.860449800465057 11.81905406520476
Mg 8.588958454696973 10.428141492490557 14.877055445888319
Mg 10.489375860366145 8.017181212456517 13.818262303908638
