47
Energy = -46.09904106 eV
Mg 14.795020098618687 10.15309551338942 9.445365389333638
Mg 12.064076912328687 11.192821989053419 8.08373988675739
Mg 12.195894314209163 10.592812671880628 14.243703347840576
Mg 4.770087061430627 13.010432334116365 8.550049582733987
Mg 13.936222876005017 12.848389728087428 12.958836884331989
Mg 14.852132718818225 9.955888745813475 12.589215690604544
Mg 10.64905416396993 13.302236285619639 9.903772622903213
Mg 10.534351088608165 8.490376796521222 12.55498855980531
Mg 9.035468372790849 15.313322351531875 11.705618356589701
Mg 16.211163866725414 12.51487034877022 8.053048988515675
Mg 6.361935825947465 10.27576389253125 12.939061631442417
Mg 7.706469926883106 8.12738275086601 11.020555529685728
Mg 7.479470649258584 13.276509577684333 9.95066678082434
Mg 10.466571948822917 13.580850743899195 6.668819968429476
Mg 15.442471952244254 15.38969317459571 8.244230958099704
Mg 6.083494842126048 10.93542429033233 6.754231004220437
Mg 10.380830410050807 9.118003892130579 6.396907521371342
Mg 7.237951334526776 13.707855865923069 6.79299709898123
Mg 12.125600028934327 10.884354058165199 11.144421731941316
Mg 13.725793616132254 13.43350577793421 6.501387333244622
Mg 8.746718712177511 11.431018451097259 5.206273754395825
Mg 8.964849125566094 11.311350137959518 8.24849412875871
Mg 7.469831345804969 13.135987636168476 13.14987632867254
Mg 4.868302447440776 12.584321011722954 11.637894973302673
Mg 13.065819563921375 8.2450135518295 7.807398985678768
Mg 13.692618971590061 13.142656342386207 9.758239613659367
Mg 16.3461016132576 12.1834738770969 11.153109390377894
Mg 12.411545212211706 15.151387817970178 11.766196373150487
Mg 6.118830770400631 10.481118093359685 9.812743395362325
Mg 13.99177763916206 17.171136426674625 10.077735464144448
Mg 5.91114590107064 15.355162053144205 11.594684964860317
Mg 12.258129696866002 15.440434015127334 8.240602036046994
Mg 15.59729646697572 15.044244795009623 11.346567180019008
Mg 10.705525606781038 13.027292112354447 13.11760605644571
Mg 5.91567222766621 15.77568835913298 8.629658381739544
Mg 11.828205691698196 11.444435359582087 4.98093153538504
Mg 9.097049720715518 10.68780563596087 14.377757137430626
Mg 10.873789628698182 17.24942987746564 10.229509634423708
Mg 13.168377490240687 7.941984696306288 10.824118295020115
Mg 13.252929183334267 7.798727759896898 13.855576614203063
Mg 7.628883422012515 8.603655109305347 7.96827863217636
Mg 14.681207530926237 10.549852405408977 6.316954029259625
Mg 8.965664080119227 15.60428227567144 8.509242145872465
Mg 7.90121890736151 7.918959681153322 14.013497391769562
Mg 8.994697106308209 10.989623599931754 11.301984193676086
Mg 10.472226249634668 8.740162555590144 9.456190067538259
Mg 12.983143399350102 8.687615537697182 4.807755371782046
