46
Energy = -43.74962241 eV
Mg 16.61825650132875 8.587360314252743 11.475736665558909
Mg 15.05780237935682 8.611105373709703 14.253387029724662
Mg 14.420747739692459 8.603785375178793 9.204821058627502
Mg 13.691084710475986 7.382994106200393 11.867773432446896
Mg 18.223509475757467 11.236897238226078 10.93490132854107
Mg 16.72682554784869 10.909519487159766 13.491772960562605
Mg 12.63452792965823 6.6874293671608935 14.691855591334438
Mg 15.329459306614021 10.807928912894502 16.279679995174096
Mg 18.294586625613505 13.472100624572729 12.910000092108755
Mg 14.286413571197713 10.53948365474141 11.559170059292468
Mg 15.930051026796248 11.212598701918218 8.910538343631591
Mg 12.7790605585538 9.172242288637468 16.481844934863886
Mg 11.545057849646474 9.029717633678002 10.428144484862953
Mg 10.619296197767332 7.0323139136579655 12.467695536134697
Mg 16.610119662673135 13.289093588296417 15.365480420002966
Mg 12.822643700361988 11.20307602374183 8.803132450167821
Mg 14.026130973708819 12.40681684158261 13.840473695481197
Mg 15.87276462871535 13.208881659428235 11.216484397168696
Mg 10.017116475978819 8.10666575148151 15.312085053865276
Mg 15.733008423940369 15.398666096360904 13.205891095351378
Mg 12.69132336805213 12.249016327889471 16.755908713273477
Mg 12.176738471585367 9.535583086513332 13.515526666676097
Mg 14.559452943943196 13.855145495702338 8.539450923721693
Mg 13.38544371265857 14.80595832926947 11.237851531580032
Mg 11.728621247636543 12.171586538700096 11.743757262675576
Mg 14.080978815693165 14.905899492642067 15.861976093875553
Mg 9.321188673358924 9.800414420255477 12.524835082487293
Mg 11.482464669487586 13.899525660272413 14.234797799049067
Mg 10.2456208469768 11.177905088746444 15.157304881048242
Mg 12.50794373728842 14.782628521866075 18.49038197091338
Mg 14.829848968202938 17.587267187337595 11.246086278252786
Mg 11.54610638678221 13.819833368174999 9.01180969026275
Mg 9.713446107208668 11.313209929662209 9.670146694530846
Mg 13.372058576197837 16.631557192923605 8.640289452697242
Mg 9.994944747418714 13.5601886127044 17.02623557600022
Mg 13.021602591080214 16.7517506199237 13.708283652336167
Mg 10.425454172034911 15.076393952713882 11.644515012677495
Mg 8.875440135770393 12.687811110158327 12.613665914262436
Mg 11.268870189404844 16.275236616424152 16.17693444947332
Mg 8.593379140033367 14.905953675206895 14.849260516490649
Mg 11.865776344188344 17.717236276782156 11.165254683016808
Mg 8.478859827279429 14.0449725672599 9.558505857564489
Mg 10.30164268037534 16.473663769827187 8.723304421195145
Mg 10.017923406779877 17.35707881940185 13.677666649852423
Mg 7.385258270927988 15.313790814034604 12.177983939877867
Mg 8.779969188740411 17.657216969846907 10.965808439034763
