45
Energy = -44.46451081 eV
Mg 10.062538950336291 12.748193775208811 6.6490403525148105
Mg 12.840086266815893 12.995130983506499 8.013416746877128
Mg 11.590002455949822 10.270794830884164 7.414036180639995
Mg 10.672075952634428 15.423672659379879 7.538707348529021
Mg 14.565637956310233 10.585626990249967 8.817554927017186
Mg 9.008630692229415 11.057420787990065 8.909914014564965
Mg 8.077818098575227 14.103690245111371 8.598219554315211
Mg 15.414806151480654 13.39849685875297 9.692904901711273
Mg 10.67440911182627 13.430036744450407 10.113961947542414
Mg 13.078575638780734 7.93725010364567 8.47711869170712
Mg 7.693892751354204 9.27170099804427 10.930636226594649
Mg 10.21155980756469 8.215618070989036 9.519667601607953
Mg 12.867332082698347 15.572327858179928 9.625010161871545
Mg 6.608210761494502 12.132029213060632 10.517020562691522
Mg 16.921975309588596 10.874494104544091 10.77715567172609
Mg 9.947697317911363 16.497095493198987 10.24713996073493
Mg 11.840444132337405 10.556899284757776 10.556391876262177
Mg 7.984505260914634 14.655095233491002 11.68744163030658
Mg 9.276417318445006 11.594306517536152 12.051773167757908
Mg 14.992234281510257 15.821975401215257 11.626880225432004
Mg 15.528262352447507 8.062060679145668 10.24352762568304
Mg 12.587366544685658 7.420185650063621 11.345519279911398
Mg 12.215981957870715 16.657887682013563 12.385383551828454
Mg 14.383130520883077 10.068919545741945 12.347388351373754
Mg 9.34564920395004 17.10627491559456 13.121590922381552
Mg 17.349112561100625 8.388421329321192 12.604550787041108
Mg 13.246781308257415 13.009544014096889 11.763212965620525
Mg 10.097736086746849 8.532392412149706 12.628906483332651
Mg 14.978224902425886 6.790995313163333 12.99520672441136
Mg 16.1942406650044 13.349891344636179 12.679663883368832
Mg 6.654797565605385 12.66621778051331 13.546556331779776
Mg 8.166394575927006 14.98681150206204 14.842093605309158
Mg 11.806476485461031 11.077495976832669 13.66071759500153
Mg 17.328926606614317 10.955513441647078 13.89921851602993
Mg 12.556083832427964 7.912600454608428 14.398762791217278
Mg 7.679003996746333 9.82255864992027 14.003746915129714
Mg 13.782811340986711 14.84778881616165 14.260791011966141
Mg 10.739395919808233 14.003343846447155 13.13006926034669
Mg 11.034044626000439 16.02656225205889 15.343501428456573
Mg 15.434160280082219 8.937496395295101 15.097031198852832
Mg 14.689338432568475 11.984910177984089 14.96945156714081
Mg 11.982850506438506 13.093427694601436 15.986498733416024
Mg 10.145329845224563 9.27960153942344 15.659582731510861
Mg 12.943483862592776 10.085303909141146 16.495768640249125
Mg 9.183940983106673 12.174313784899644 15.209642609956486
