48
Energy = -47.16672717 eV
Mg 15.616298213442885 9.718167418084791 11.345078303492135
Mg 12.933603866721436 10.765759656379378 9.89368323420491
Mg 12.847425437161558 9.99208435643808 16.043097375768177
Mg 5.670786062396349 12.491751126232293 10.03461259501379
Mg 14.659750153782124 12.287480283238576 14.91751582977862
Mg 15.580072647748715 9.418755594037416 14.482368974433546
Mg 11.438357814101 12.825366729830721 11.68261811086781
Mg 11.255266040903662 7.953695692405711 14.247380106329043
Mg 9.803751721190611 14.791829017338896 13.54250081678759
Mg 17.132142004712776 12.0787383959954 10.062621171949292
Mg 7.047794012256821 9.757608999204797 14.4554148478276
Mg 8.490064719989952 7.668216126887687 12.594200846496724
Mg 8.320975895319814 12.82530410786708 11.6636883219552
Mg 11.422681723724674 13.2126461952266 8.485906739301674
Mg 16.347838589959036 14.931449692151496 10.38189011058056
Mg 7.09383434469733 10.496452717901079 8.212636141215087
Mg 11.300663442729052 8.690666971321603 8.050274678742445
Mg 8.214075141633623 13.33332155256998 8.485140534240573
Mg 12.913030258190503 10.400057870480447 12.963129800620314
Mg 14.707460326800385 13.058144209395333 8.459711403568004
Mg 9.806414924138243 11.199081257525318 6.784237939139622
Mg 9.809263452745526 10.85753268216476 9.87881547740512
Mg 8.165826659859395 12.575287545581755 14.87134422998386
Mg 5.650873799925681 12.12671784633532 13.12839478064964
Mg 13.969615482504645 7.836173672836613 9.574482233171477
Mg 14.53121096412152 12.680995888566514 11.690120912819802
Mg 17.108219193619416 11.712856648636002 13.1675149074306
Mg 13.156323775777144 14.60006387312728 13.702190916415546
Mg 6.993288244191245 10.015553225976188 11.320879234290357
Mg 14.82088874785521 16.675618831149844 12.168711738312496
Mg 6.715512714362417 14.88701167780621 13.43317488031698
Mg 13.183133137403626 15.021099037158613 10.16374439172389
Mg 16.323157678091377 14.556600646905439 13.51880163846545
Mg 11.37556828260566 12.450776732222966 14.88841011690089
Mg 6.737247878092664 15.241601479970495 10.408965317729248
Mg 12.916451235537325 11.092996887906539 6.804781888499257
Mg 9.739164084679556 10.09985542818505 16.04772541304276
Mg 11.675872274412425 16.739899121764708 12.151123848878365
Mg 13.946964826134705 7.477289875025541 12.598925150211267
Mg 13.942449853477084 7.2186918698067295 15.624705352549675
Mg 8.513659431103566 8.02942449863632 9.55342460856068
Mg 15.624638504259874 10.163207446385059 8.22358786092527
Mg 9.82598795565877 15.176369091259486 10.317834681075645
Mg 8.528805016323151 7.367007760145998 15.585424913136299
Mg 9.785462676473356 10.491771647302867 12.957539554809898
Mg 11.304584011794386 8.297916036277304 11.14572190858467
Mg 14.008151312009614 8.296594813229285 6.5737985952952975
Mg 8.594840398032606 8.434134443340175 6.574788570946758
