49
Energy = -48.78172007 eV
Mg 8.225400720294266 12.144641123880318 6.418233196784323
Mg 11.251449355392964 10.980306272854522 7.159690767643241
Mg 10.474444312706726 13.931728281224842 6.6771072088966745
Mg 8.656509344508398 9.669694359512075 8.188147177216097
Mg 13.167118765153736 13.354972155059759 7.75934652374962
Mg 13.535732788986234 10.485193528983528 9.19962886001666
Mg 6.567847809305692 11.853360866792245 8.719865243504374
Mg 11.35483601182965 8.2717494613131 8.82739303437803
Mg 8.132958875815206 14.610855320950181 8.592437705857675
Mg 15.626353833186325 12.816915324344986 9.44646278173163
Mg 9.712466522397293 12.31162013216608 9.575274419296555
Mg 11.146962494934272 15.320815276064522 9.258663666025784
Mg 8.627813099424731 7.51870049933252 10.241101901157476
Mg 14.199542987331032 15.509459922504426 9.854630716563397
Mg 12.462461681870444 12.878541362795623 10.690929180179875
Mg 7.714776839283422 10.291606022687105 11.112287172317162
Mg 15.782339551519799 10.480161423118883 11.461408466253102
Mg 17.057938658902728 15.245396655154934 10.920792620871225
Mg 11.051459633036645 6.713456112194257 11.56302642096997
Mg 13.60089754133705 8.252261486412621 11.238737194308703
Mg 7.121457362467199 13.23544387663685 11.361148299014397
Mg 17.982836800112207 12.480653377587767 11.40794654061472
Mg 10.826848310495304 10.007711398217266 11.235608241452116
Mg 9.095043486207002 15.544834839307665 11.495957373356251
Mg 17.567627732221528 14.218768618209555 13.790971777087456
Mg 12.119628575534449 8.096054157619134 13.934400398785248
Mg 14.795724082174512 13.61825098929665 12.326014410294157
Mg 7.580099574774722 14.490303227332705 13.976481278960874
Mg 15.263207565816526 16.567851841300513 12.908469889001989
Mg 10.242788680917858 15.739569053705132 14.493507574750165
Mg 10.143991137094329 12.827453788556392 12.639849537129283
Mg 12.175386173461998 15.59926002660928 12.150080474279937
Mg 9.006284769268012 8.48397064845462 13.237238552041303
Mg 13.035199081338423 10.872464827622153 12.851904888650903
Mg 13.063781512146686 16.758474845224143 14.922708247615239
Mg 12.475789619580414 13.37386347509182 14.46436626406051
Mg 17.894740625875393 10.836626269407535 13.919767342898949
Mg 15.263499938389627 8.846817308228552 13.980714113285563
Mg 15.22369841932227 11.923618672382355 14.601992930426325
Mg 7.704875330489076 11.364851277043835 13.954130946107162
Mg 15.211971767261392 14.840287909748444 15.602778887774576
Mg 9.492778121776709 13.22937238315451 15.886547075539834
Mg 10.618398291680702 10.601607364565277 14.806649789954337
Mg 12.232301154023913 14.82838735225023 17.085611769386972
Mg 13.413498230778464 9.885629325036806 16.130851705654422
Mg 17.53572527391755 12.808082785363569 16.51127995637544
Mg 16.49321921726794 10.048906565511642 16.628484818821274
Mg 11.659440110277163 11.920858622856008 17.43392064037679
Mg 14.578078502873081 12.475819861094296 17.52268229334329
