48
Energy = -47.43753624 eV
Mg 10.050633075107521 16.098567169278724 8.380977726280332
Mg 12.251818397086428 13.9735747855503 8.201949490740779
Mg 14.324624363166226 11.916220509058684 7.5369663643334945
Mg 11.449505245181303 11.040749209419115 8.309736561439706
Mg 15.3033617468448 14.805359136625254 7.921496949528973
Mg 9.217295039516076 13.17830701311104 8.893953924797346
Mg 12.95240047457811 16.921910056496962 8.713274215418123
Mg 16.246036871223268 12.42386631196647 9.777072976829972
Mg 17.266544198294813 15.234979138232294 10.491893189894652
Mg 14.131549815824945 9.421920406227153 9.229263168664835
Mg 15.87318075528983 17.474717447453575 9.207772631956992
Mg 8.790844454519782 10.360297146502747 9.666179230937228
Mg 11.154405658897065 14.12742065457664 11.101509303541533
Mg 8.166447163221507 15.604497553445979 10.515325866908961
Mg 13.887081242160356 17.882313518606992 11.428203250974349
Mg 11.317104484138385 8.55623794307877 9.977706825916467
Mg 13.31053623604959 11.942904691231819 10.699363133306498
Mg 8.36873761714875 12.861092747333473 11.984960982212309
Mg 10.760922406234995 10.995213006899052 11.738504194651627
Mg 15.668877687333799 10.306578232748903 11.884544297094731
Mg 14.135143011467655 14.863095578056669 10.735764553358178
Mg 10.827124888655927 17.32909741999214 11.013951930944657
Mg 13.56591554661025 7.909659186180113 11.845051935295205
Mg 17.171353704109094 13.094800292421015 12.619903127016189
Mg 10.660236225252419 8.30087559372785 13.125966246307852
Mg 9.33732369605821 15.678231021460247 13.23872173165175
Mg 13.10108682508978 10.394969813722886 13.66326680624645
Mg 14.181859369690843 13.249339158648729 13.287645591167976
Mg 12.411555612632693 15.943372262573725 13.294594937568343
Mg 11.20861367459499 13.007734812666417 13.938072925798474
Mg 9.008661087999 10.733463841677171 14.291805623400329
Mg 15.689438441768122 15.946262284008217 13.203375405366675
Mg 15.576452241084407 8.17267790670288 14.089485360078587
Mg 16.114238628461802 11.066959891444304 14.785351146059153
Mg 8.192086350719803 13.567696352458743 14.955172296741186
Mg 12.879351523407431 7.212628545961288 14.745853373326065
Mg 11.200972719158342 9.531029591664106 15.983164999548544
Mg 16.406356687796546 13.964770313275823 15.517555671429612
Mg 10.670482384815195 15.252163751956926 15.954449793716893
Mg 13.37236426606554 12.405121300909663 16.041768816069347
Mg 13.764505662062724 15.522524504404377 15.86704377754336
Mg 14.213612215746856 9.342917867822994 16.523306568008405
Mg 10.192244560066463 12.286175113281157 16.853169567677874
Mg 15.75389185880526 11.719334988727702 17.77509258040914
Mg 12.431768879669548 10.940932030837125 18.48282209897645
Mg 12.211609319434853 14.187183735693976 18.287899907835516
Mg 15.282926910418944 14.645185654222365 18.24147652447021
Mg 14.094456268212705 12.752609999329849 20.12515191023054
