46
Energy = -45.40290587 eV
Mg 10.973024385069316 11.920046889689278 6.385110329691213
Mg 13.718197179348776 13.107505020382163 6.613842593841274
Mg 13.250492570384106 10.160299507635644 7.204362130438694
Mg 10.229522557184632 9.512472244292807 8.001825424285864
Mg 15.701361567164177 9.523949323433612 8.791196526080588
Mg 11.346899867831182 14.593986784253982 7.789062699919764
Mg 9.224553536956632 12.53077548597857 8.678316856442557
Mg 14.161777484772717 15.37564650114023 8.59148312302601
Mg 8.892257020015863 15.522997116895533 9.119248952295324
Mg 10.282696189250213 8.106807850861745 10.591125853803907
Mg 14.710333625047369 12.302780616773717 9.260973659621182
Mg 12.054920325925158 10.928133453096644 10.17786455482296
Mg 13.001346485501717 7.990243150721536 9.22331845207537
Mg 7.989328518930975 10.180509803535847 9.986890353119284
Mg 7.298399960392479 13.675245896648454 10.798100438650867
Mg 14.744256535620687 9.304682949099188 11.550461642170673
Mg 14.299756529093674 16.93675431123419 11.138799349638877
Mg 9.526104875565641 15.511638292652776 12.032042614844592
Mg 12.269447982001907 14.010415977200285 10.994016603639302
Mg 16.017013394430318 14.447984413483137 10.829487532776989
Mg 12.890569696656577 7.084650632079071 12.14116753120886
Mg 11.495103798519926 16.849575582727457 9.97954516729949
Mg 16.92487115237751 11.37984507355136 11.062172235523198
Mg 9.725312954821971 12.133014196441701 11.86709833445323
Mg 6.665143598226321 11.422243356615638 12.575746975291848
Mg 17.063025015031833 13.36616973069956 13.387258507701238
Mg 8.265869381005288 8.9407291500877 12.69105449655678
Mg 14.136041375407837 12.121621685002875 12.615718738927105
Mg 16.430486879687933 10.548556901118081 14.044760563804559
Mg 14.678006209444604 15.211274165825325 13.528254108526722
Mg 12.095615716526355 16.665667072350434 13.138840943366546
Mg 10.21286813772752 6.676323981984484 13.227919568417946
Mg 15.000170953696392 7.953647577566772 14.163297690902986
Mg 11.635899195339366 13.203351999276046 14.051304619187201
Mg 7.944769246375054 13.867866338527172 13.95613496517519
Mg 11.6159415081688 10.004627156356156 13.193409006545322
Mg 9.912732078093766 15.909513167093554 14.990475221419759
Mg 8.645562873534312 11.153897250597687 14.83823570966157
Mg 15.057620234712747 13.129814569167088 15.58783697640172
Mg 9.236756675324486 8.330232652824286 15.4777859154898
Mg 13.885046847968834 10.388407402185223 15.688059787836542
Mg 12.774607392027699 15.36784291973295 15.891886282463776
Mg 12.230068789075167 7.780295742838661 15.297118794130574
Mg 9.802387948368567 13.366012157062267 16.581037799422383
Mg 12.718631760255668 12.759829713422626 17.364482772986214
Mg 10.98353429516877 10.460448539886654 16.62020190014484
