44
Energy = -42.87253947 eV
Mg 11.526754203635509 7.3511272222194 14.100352773398665
Mg 9.016087603463816 9.133382838715033 14.637604377433558
Mg 10.475527608669692 9.156861036071811 12.021565912787889
Mg 13.858994371430391 8.00897678243336 12.194322701382518
Mg 7.611101201082181 10.395516577948301 12.290700792062747
Mg 14.0850845723463 7.978124185201446 15.290615793841992
Mg 8.968176929468903 11.13164714221076 16.928277077666973
Mg 11.54245164831218 9.488863789531797 16.292663988635535
Mg 9.58547674800062 11.618158488481019 10.464876831464993
Mg 12.709730833828392 10.277254502865576 10.328900557489662
Mg 7.00317587124622 11.72721630503319 14.801789794867195
Mg 16.023560703446265 9.65843363428436 13.859173900906551
Mg 15.772251186037519 9.979473673125613 10.74870050443621
Mg 14.295871249593391 10.948008832328508 16.178473469535696
Mg 11.632887146038994 12.459433187884503 16.865995728113848
Mg 12.836037460191516 10.543210775410502 13.538539701887675
Mg 10.236880672638355 11.920754897336028 13.81264159496555
Mg 11.436888489100655 12.41607927726767 8.376511439722075
Mg 7.931638377397896 13.462734477606555 12.408076168261125
Mg 14.347379924455366 12.531968419277375 9.39454198083258
Mg 8.846966298947224 13.923550952608245 15.685736556803834
Mg 18.106836428600314 11.38688698878806 12.424012568455412
Mg 12.995472487285918 13.579640975524187 14.355269399574993
Mg 15.006294800099072 12.295028782776582 12.494811397300055
Mg 10.391825537222925 15.075337806664583 13.296052131989205
Mg 14.379610533644712 13.85806919413254 17.11780841664846
Mg 12.129309200319277 13.105341971287205 11.547699572675727
Mg 16.540428146771877 12.514661216744074 15.108076821069826
Mg 12.636601398158671 15.030667573991519 8.69807682379932
Mg 9.793534034553192 14.598870539526324 10.085168914660867
Mg 15.513085228221534 15.37368083937866 14.693580318605036
Mg 11.345946783191962 15.445543948044834 16.402403635127335
Mg 14.546729390957642 15.028142578330327 11.650133905586499
Mg 15.73998153604817 14.889393953413757 8.192755139411544
Mg 13.887518266621502 16.80121431924633 17.0317036490405
Mg 17.225018925035478 13.068825010420504 10.098789856720309
Mg 12.832542640720995 16.73778251112401 14.05953480960034
Mg 17.679132856112844 14.330016321927673 12.819893239826074
Mg 11.94104127437253 16.600414796608376 11.155674703827824
Mg 17.419633375308564 17.34654292114112 13.354371968481109
Mg 14.447949540253171 17.392015242078262 9.241778838849847
Mg 15.2243888075848 18.623720405790824 14.994148768211426
Mg 14.75806709495373 18.154138586179606 12.056167997754187
Mg 17.051243994724768 16.30045358182215 10.516824115389143
