47
Energy = -46.21307671 eV
Mg 12.704186248788497 11.575627803069592 6.9464902192137545
Mg 10.990983659071793 14.296202662649657 7.308144368913804
Mg 13.82957124750251 14.676187806148386 8.256522097074928
Mg 9.577472213449616 11.68158226867295 7.345354364428047
Mg 10.763958409965865 9.212954042988422 8.319892138963716
Mg 9.168144824861022 16.654983749162703 8.60082792737458
Mg 15.247165616363656 12.00436740227546 8.99195189331601
Mg 12.045950493422753 17.167614867561515 8.014892963406998
Mg 13.582551231295305 9.534348515897971 9.19371469096036
Mg 8.551491872674076 13.758384626414445 9.293670018069676
Mg 8.8179860484942 15.854407328953709 11.641922976845004
Mg 8.572861937781578 10.718987781675219 10.03199608985346
Mg 12.189218951424419 12.386975608175765 9.689798025331749
Mg 11.397860857639921 15.176871456620747 10.22440634079154
Mg 15.043537199858042 14.418582641880027 11.007976939937555
Mg 11.340994374071412 9.880736955697522 11.416797636700894
Mg 17.08302717634095 12.242604602413978 11.416510238357908
Mg 16.053197119012413 9.47589251211229 10.908138078657602
Mg 10.705237025726017 18.264814930286718 10.524479221177508
Mg 13.614473354991162 17.152330348552802 10.800493901905712
Mg 10.117062125561706 12.796161994490301 11.687963436366081
Mg 13.53446797078371 7.743088333381638 11.743747412360394
Mg 13.939343720486228 11.553812036312058 11.959314111372308
Mg 11.463203148030935 16.973390498853746 13.06734837501888
Mg 7.3689194915415355 12.876206344171024 12.363725536956355
Mg 16.05127893823725 7.820795960594824 13.391182463309724
Mg 12.556805284916717 14.15281751584043 12.735607909409687
Mg 8.730690407673652 10.062951209599406 13.06277889375493
Mg 16.347768417416844 10.754312845920412 13.976396304992118
Mg 11.237553543537624 11.63668002308398 14.025374904295099
Mg 16.48278508756459 13.793553723697848 13.896232546083088
Mg 14.635085402357417 16.23912028935774 13.622526435777885
Mg 9.830890947937315 14.539979496943772 14.25018071135425
Mg 13.386386694885376 9.661126720952973 14.163050977654297
Mg 13.839001761053561 12.683772870431616 14.893897552653826
Mg 13.679560188576643 6.4868190454265475 14.577105786449055
Mg 10.96581740106528 7.918255179343999 13.811517217060759
Mg 12.439796997597226 15.410632270836556 15.703061778754998
Mg 8.277487021163292 12.148303724451493 15.181721456078577
Mg 15.427906623351976 15.139115325228104 16.377731325211514
Mg 10.825517337483586 12.939073471869976 16.771564155172886
Mg 15.925975303759957 11.962058530493493 16.831576632294503
Mg 10.096249611384643 9.856909576647386 16.175452476625384
Mg 12.263078329015876 7.849947556320669 16.661569970621525
Mg 13.523364185389392 13.615171190433424 18.002876912065958
Mg 15.227907881088017 8.852082752265908 16.268667904852443
Mg 12.902079395192253 10.755256681629996 17.219699761960637
