49
Energy = -48.51862128 eV
Mg 13.57506248051556 10.250454133053742 17.385377159679148
Mg 13.594636924421543 14.861114345731256 15.154827747517643
Mg 16.54493948400051 14.632406303400467 14.409314427580853
Mg 15.0898415971209 12.40309542094955 15.878601366677962
Mg 12.088536971212262 12.985801782320163 17.04398464504613
Mg 16.305429442672718 9.668222999745886 15.268464780748177
Mg 14.973032288701775 7.603617998091195 16.96687711266854
Mg 17.31431801284898 11.930859230626355 13.35825723440692
Mg 12.437912597648317 17.51361879005916 14.296577514466213
Mg 10.592529329889938 15.242248303159792 15.404393166096678
Mg 10.55267975674244 10.431776739523707 16.82340270826278
Mg 14.767164465322507 16.376354093138914 12.728223136071488
Mg 16.74186621950162 14.524418441000183 11.408462696693158
Mg 13.378943321105735 10.150222802713 14.34955508246884
Mg 11.530910486515278 12.533236489408441 14.08266564434632
Mg 14.354225107407082 12.79327737224035 12.821534667247143
Mg 15.558075622789898 9.68733454047984 12.234892267068698
Mg 14.666931225249309 7.2889839616923915 14.043546971530713
Mg 8.780503150853194 12.544840593869745 15.505782256358776
Mg 9.752646684621354 17.402854537693393 13.236559791068641
Mg 12.169743535589275 17.723034092794553 11.234988508256803
Mg 12.136352253869532 7.866892263905243 15.85953612998713
Mg 12.024361490454355 14.91338777586703 12.32877037756492
Mg 8.66635116089889 14.599139880239845 13.227805329816695
Mg 14.684676006881062 16.2474462878762 9.764234865690502
Mg 16.41170003714357 11.76097473048231 10.263507596600254
Mg 13.688907277154064 13.238497807396675 9.960381323023707
Mg 11.788568984743298 15.684503798572036 8.927459771123877
Mg 14.369136775499896 7.148695048348254 11.015665024428577
Mg 11.8956918527481 7.501501105183477 12.69485572533291
Mg 9.348071333472578 15.975238005559556 10.639277686219405
Mg 10.759105322728747 13.102127661652922 10.346336776104927
Mg 6.370524190913896 12.630209701989079 13.451609799198666
Mg 12.246119970909605 10.651282109616293 11.559690188626027
Mg 16.547749531248364 14.110896116861227 8.407114849248751
Mg 7.378621619565814 9.992096696785602 14.221528306696898
Mg 14.415916457559351 9.657917036447028 9.349483996043581
Mg 9.197370727188865 11.723165909233675 12.370574722592897
Mg 7.2902567473106545 13.525600734519625 10.625094353536532
Mg 11.811318077781754 7.982963759527833 9.695502300273194
Mg 10.291983740899248 9.529529874943405 14.066089386705174
Mg 14.11734366589592 14.941097627483646 7.0695993451911745
Mg 11.648355879272 13.231484834912518 7.069330677439271
Mg 8.977345051369001 14.117823020964625 8.165802121754083
Mg 14.501025151366633 11.952730557560207 7.382428934836494
Mg 6.581976574600238 10.54653920221951 11.280363635954664
Mg 11.721790615095355 10.682114494746894 8.4673579914407
Mg 8.768247423573138 11.10652655638545 9.133216018812575
Mg 9.364342407536789 8.919760902691083 11.199444207441092
