49
Energy = -49.09462433 eV
Mg 8.42196558532081 11.823336812748927 15.72252497452811
Mg 10.316350746004094 9.559265625031056 15.044304382957165
Mg 10.89685072324911 11.57363548978221 17.39507449653993
Mg 8.379714945405782 13.861568178659844 13.442629658239516
Mg 8.335381354522365 10.835977756352278 12.875446990566257
Mg 10.407372383271449 8.631606678257272 12.113198011948214
Mg 8.533764340696594 10.098945605979504 10.006528461166031
Mg 9.132345488324638 12.93628696972034 10.659245108179125
Mg 12.731935041633774 9.135473527538988 16.85296140683642
Mg 10.3024011038251 14.182198096981637 16.082695231383415
Mg 9.320364214399218 15.897901681491554 11.254795233168101
Mg 13.473332780907262 12.024665841431041 15.597153028107972
Mg 13.545054112427001 11.484522422748778 18.824261432965578
Mg 13.130720987632722 9.999626327531784 13.454207291486245
Mg 9.76254719099997 16.336373525654363 14.205303129578805
Mg 12.772094317230154 14.261205155615926 17.75510325077593
Mg 11.037402627713506 12.346287556100066 13.618092531215947
Mg 15.08350758228078 8.226597073121704 15.11943405839638
Mg 11.783108969136633 11.164153370866531 10.889337188482548
Mg 10.741061315584396 8.451757284387629 9.05553091122094
Mg 13.330002053432754 8.374128189354892 10.863198941418155
Mg 12.28524508029546 7.291153243108687 14.19850106130179
Mg 10.403451679377811 11.515517336632016 8.054905174745116
Mg 12.116542910906114 16.97193332629238 16.078635324662855
Mg 14.981077517132832 15.893953414823267 16.456206042475692
Mg 12.002995425526043 14.342421461756938 11.37746079207566
Mg 13.047629789095103 9.866777141638286 8.087768960822558
Mg 15.951081746016886 9.217769851559945 12.357105460128897
Mg 15.652745830208376 9.958671496425632 17.543565523058177
Mg 12.89515365847974 14.715511826708504 14.278400491042232
Mg 10.713693773218134 14.621818845565103 8.610789318448278
Mg 15.801358739324325 13.02391205868556 17.362420950040285
Mg 14.519656751633315 17.92154205239875 14.144718085218734
Mg 14.202285896393734 12.53293381620695 12.362654569713177
Mg 13.215725416444274 12.80512922783912 8.68071755999549
Mg 16.361510338837018 10.958308424188381 14.780840012693341
Mg 15.16076873995161 10.743433839016165 10.002508138855742
Mg 11.376373206623718 17.453309801894026 9.714628466385792
Mg 11.945731137211034 17.421341757264294 12.659730366170098
Mg 14.775126447722217 15.600414803355957 12.104893701082208
Mg 16.05921099830272 13.88334027094431 14.398703882005492
Mg 17.245790707101452 11.991423376959519 12.03379085291644
Mg 13.707781460548066 15.725265152961866 9.0651859806905
Mg 15.948040287661051 13.691068963469545 9.828191342429886
Mg 17.787536544710562 15.062515893998103 11.958620206725458
Mg 14.188847186457181 18.30550301674844 10.789400054733015
Mg 17.24281930673985 16.609241363846944 14.554087997528129
Mg 16.502596702481615 16.710294215037237 9.609027327425508
Mg 16.942848980788593 18.12919691988888 12.095147121931193
