46
Energy = -44.36511582 eV
Mg 15.687692813610028 9.440024297814881 8.664035144366133
Mg 13.976867376296411 11.656057554412744 7.423332871567567
Mg 15.691278523832468 12.260188883629255 9.860671310290998
Mg 15.771432224450031 9.6882911678921 11.606280734706768
Mg 13.409397415221543 8.232245684912126 7.446448974220785
Mg 13.988511922724461 7.414495857112076 10.362229608370079
Mg 14.491660439602702 7.594125822133094 13.430244882177917
Mg 16.181729367286135 10.061280770479431 14.586162784528728
Mg 15.970572141724224 12.513785161597381 12.878427678347041
Mg 14.889512180186838 8.183852588875567 16.369032439695978
Mg 15.638525016866636 15.150567619998693 11.570149449589858
Mg 12.944303778920107 10.3418103359069 10.121328006445454
Mg 13.993735079470705 14.541517266661561 8.625863924486168
Mg 11.316491542001037 10.228220540658922 7.146409685703486
Mg 10.967771764113907 8.022204546268572 9.275990594714905
Mg 13.304681074145442 10.700112024749364 13.26600708863026
Mg 14.726703925466692 14.579166683105706 17.433660915842243
Mg 11.670578119225253 8.104027085857798 12.272378901122982
Mg 15.666790481561923 15.766407200719398 14.784287819882046
Mg 13.148652448290694 13.186862440397448 11.383673482800532
Mg 15.239129808176976 18.02801442197875 12.885861116725508
Mg 12.190115735046563 8.75445360936971 15.371724710479011
Mg 16.41020287374537 12.873626411765711 15.835124553586894
Mg 13.860690902666574 11.18977629942812 16.554116883429714
Mg 13.478960285117166 13.54185746790187 14.537240977951456
Mg 13.987228485603906 17.184145705811268 10.20693000727161
Mg 8.725225404281893 8.581775848371969 11.270055652570857
Mg 11.381267184245383 12.804921761533409 8.829747480698316
Mg 10.545100658451382 11.219260201787682 11.868350589399
Mg 11.97885987780261 13.595952544561753 17.476256210172377
Mg 12.972718274013905 16.07584882805422 12.909194322013125
Mg 11.016967507890975 11.69090532238978 15.263989269084858
Mg 9.191203924019941 10.676080040554782 9.125590758257673
Mg 9.545941103719722 9.276691111679387 14.166183770380089
Mg 11.427624537760355 15.683954282159213 9.999825027276955
Mg 10.758194062404462 14.069189732158595 12.995733922965128
Mg 6.747308622827504 9.529274277192709 13.31209025215502
Mg 12.563654781498027 16.228923251010784 15.903182638203278
Mg 9.776615420992014 14.657316851231897 15.778310588505107
Mg 11.640189960766412 18.4576351377024 11.670767537648837
Mg 7.2809748035488315 11.536749534603953 11.251856728246937
Mg 8.987842922348465 13.861038087607891 10.508345395756274
Mg 8.354378313406576 12.229548639908089 13.92313058118679
Mg 10.219801281176911 17.153311183499873 14.035489148837023
Mg 9.04413253796939 17.067343595258766 11.220065157479114
Mg 7.957268801135449 15.183932154804465 13.220457494641227
