40
Energy = -38.14899086 eV
Mg 15.408190269603361 13.13989505034226 11.565214816616457
Mg 16.44596203411157 10.178282337398734 11.504673764500934
Mg 14.909680370056027 11.310660981371694 9.236747900410316
Mg 15.711672872734068 14.624172902758966 14.2665105676511
Mg 14.080922418745509 8.861760378194516 7.49977618207007
Mg 15.864202565597564 11.602816738293106 14.188625597222977
Mg 15.315763268077575 8.65172359383944 13.798918652617811
Mg 12.364056480750161 12.970685504250888 10.539759760225776
Mg 12.93518717770386 11.836427359940355 6.9854069676398085
Mg 13.381725100589927 10.58303824449681 12.181064533567266
Mg 13.61911609016349 15.59355778941346 12.137843310939882
Mg 14.15054573729891 8.09887915971733 10.699460335516713
Mg 13.790702949047613 13.62791250898202 16.654422172052858
Mg 13.42402418006813 10.489144071392735 15.512199187176154
Mg 13.092554845136439 13.075491815968917 13.805939060717717
Mg 12.16172518018843 10.147850497541764 9.409951217611212
Mg 13.57362836463555 16.34185179787627 15.250272095040248
Mg 11.256501883490971 9.225497702867484 6.4914197774922195
Mg 14.226125302372306 14.325622976424288 8.746150411248186
Mg 11.876728179171769 7.158119491622593 8.71397579539538
Mg 12.498671129474301 7.905862251560854 13.981793969010692
Mg 9.93537589495204 11.633392467714579 7.7953936131015
Mg 9.308150864212987 8.768836945537352 8.874987143388664
Mg 10.901361885692262 8.25888920992196 11.499824089566872
Mg 11.379870166557032 14.355397339529443 7.737647504401418
Mg 10.956819706722884 10.587527588341475 13.788093055744461
Mg 10.034761321051738 11.119091715871505 11.064729156438979
Mg 10.487311062441494 13.483047850297053 12.774086894335756
Mg 11.148448651699333 15.918440944625333 10.51833380106193
Mg 11.034633857666769 16.370059271047978 13.739207387433993
Mg 11.13121210328152 15.308676267293174 16.588018665809273
Mg 9.40977214064775 8.033811213092566 14.371825232863536
Mg 10.948793856738625 12.401605875515095 16.13507464126629
Mg 7.8387375117551805 9.47252191028597 12.276553642279149
Mg 9.133321583292785 13.757594614984452 9.810869589011128
Mg 7.46355470143385 11.157850298618698 9.635348782313258
Mg 8.759477850552296 14.262457869024724 15.049154456970877
Mg 8.290398255347961 11.053468171528133 14.954344923105884
Mg 8.550518467424675 15.636730984246725 12.12723088469684
Mg 7.619896802182155 12.609178772244409 12.399360379417208
