42
Energy = -40.1272137 eV
Mg 17.208347849148034 11.070973251318494 10.193035561362226
Mg 15.796455583751666 13.497865282776429 9.03000609124331
Mg 13.628422225912962 15.531003324346823 8.426410925968034
Mg 16.463923248458958 8.958070811848692 12.259166442776875
Mg 15.639649166498417 16.543142325226 10.321066917156264
Mg 17.63144295151867 14.207268175152068 11.262699308562507
Mg 15.16749568392444 10.602644902943794 8.029781355835416
Mg 12.936591314655569 12.587175978169785 8.517944711798691
Mg 10.75623910680189 14.888439180974755 8.916340953378494
Mg 10.24913697624033 11.545745466346343 9.096972045688545
Mg 12.573417600586632 9.456955446576934 9.155163928798183
Mg 17.53835862350522 17.096088047401295 12.452990886086218
Mg 15.261585496540116 8.18960139026623 9.723645136458824
Mg 16.505676621700452 11.925477413863087 13.003761339455231
Mg 12.495893172082639 16.453840983109036 11.076157767387484
Mg 14.563360800009809 14.137955485878456 11.909181381531619
Mg 14.917310139566334 9.811952242698526 14.711140894359046
Mg 11.689628691794727 13.24663944934713 11.358951703957581
Mg 14.639053709801994 16.848636044947114 13.35389539973947
Mg 14.218500925648664 11.209429404749004 11.101618311598951
Mg 16.812965464996733 14.755234805972089 14.148275422463785
Mg 11.33538949043831 10.29806641302192 11.813983578418112
Mg 16.24508115049655 12.370925929291388 15.92601430777126
Mg 14.276647453218503 14.644454230838122 15.753002713800283
Mg 13.204615055208933 12.257734261471862 13.87457604940701
Mg 11.987597486407727 15.195072046749281 13.816350180387042
Mg 13.51883801751383 8.36545839611912 12.318031280441916
Mg 9.64104079262094 15.4707838031476 11.862739161538876
Mg 13.686560263978917 11.566212480103554 16.99548889404818
Mg 10.087171188559262 12.270677418519169 13.881619477898692
Mg 8.31001837464722 11.111100038075366 11.436652762971288
Mg 8.262940982391372 13.678048412389721 9.833897376707124
Mg 9.029084146010737 14.983059739748203 14.925367532358376
Mg 11.502989117686996 13.595474692312543 16.377791430815986
Mg 11.836390844700999 9.636030774470592 14.925447969522443
Mg 10.970044426736251 10.888293560592714 17.722110519479475
Mg 9.109542770901289 8.96510372399014 13.4106623174521
Mg 7.085940643128047 11.081376435244419 14.28399072055234
Mg 7.235546945123329 13.70967867604997 12.678712256270474
Mg 8.573806534439374 12.500767235984052 16.778342910990805
Mg 6.27600156167302 13.768246315031913 15.457473558372287
Mg 8.83922930620638 9.529327004325193 16.241166359963785
