44
Energy = -42.71483775 eV
Mg 10.695308662811707 12.063472696184789 6.128717835571477
Mg 12.945316030766167 10.199116278580549 6.955184471677673
Mg 9.965731444990253 9.420755981544891 7.395386164898225
Mg 12.853445483959899 13.157151948320411 7.840771815104495
Mg 8.168255330540536 12.086151308812822 7.723388544567005
Mg 9.959383358070076 14.6086163249102 7.490564682850384
Mg 12.23315207640413 7.285411232284343 7.8670156476387305
Mg 15.054675918772036 11.391228369950339 8.725687684008044
Mg 12.15833354967444 10.039869751185224 9.963698348703247
Mg 14.724808355363582 8.420305371407421 8.798224809679109
Mg 12.038306918506585 15.458876198404619 9.47995228079294
Mg 7.121241697264625 12.46010257976855 10.474114222666783
Mg 9.918956225070447 7.267899810159726 9.633230406907309
Mg 15.049220844599388 14.44406648934528 9.692456836002536
Mg 8.218267295182596 9.778668644034257 9.872530091543155
Mg 10.291280989177006 12.444629621675725 9.986902252491033
Mg 8.666846341074704 15.095112815044516 10.168054718589731
Mg 13.32762425856451 12.543713344178784 11.221174686572057
Mg 12.790468157505815 7.191218218466851 11.020372943106086
Mg 14.949593385364 9.510666806964775 11.557898921018486
Mg 16.633026975658943 12.049445848387055 11.060998782862798
Mg 13.639796856973001 15.978347521992186 12.0292585078462
Mg 8.987339559153892 16.53731234792108 13.321811599621006
Mg 10.979016142603468 14.612037162551815 12.171554768275303
Mg 11.93952943233957 7.2301159705957865 13.970637750865407
Mg 15.867375175946789 14.221285192889722 12.848961027004371
Mg 7.902193545308334 13.734017289071106 12.997251838521379
Mg 12.6181054809179 10.243756477657579 13.438563480716347
Mg 7.571070407805739 10.52187468316821 12.805471692964545
Mg 10.141708110977488 8.900061593247854 12.059586535404497
Mg 10.296604341198952 11.86144190625515 13.032617610134038
Mg 13.01586717327294 13.289670208151197 14.051934610571223
Mg 14.630961844614772 16.108210818676135 14.890898980446767
Mg 15.695719317663182 11.314924414778368 13.858434692195743
Mg 11.77474077368838 16.622425984560085 14.538905006701995
Mg 14.696952825481624 8.529302441078935 14.713313337396173
Mg 9.991569090415974 14.272568987997314 15.279345605760952
Mg 15.661621111743868 13.550116410301424 15.911918335491006
Mg 8.199428063623055 11.847240832871812 15.454110176575085
Mg 12.249874284230025 8.78225869813896 16.497247783198816
Mg 12.783457933695523 14.386118708017461 16.830121855234975
Mg 9.703654270333269 9.316203396187701 14.99279590013282
Mg 14.162641662932899 11.058439447837792 16.50388873149634
Mg 11.194559231940529 11.63281980262331 16.21207396237614
