42
Energy = -39.67714053 eV
Mg 12.412880482208212 13.597412618425121 6.927737335791312
Mg 10.517581996450032 11.43922646535624 7.444141356697853
Mg 15.189777023090956 11.99297122193636 7.334902126632186
Mg 9.489957800565959 14.177401065574642 8.016168564532002
Mg 13.037963383394972 9.957017502962788 7.117906170354906
Mg 10.404916162651089 8.502658123028706 8.019721856064963
Mg 13.276660617212764 7.284026524206341 8.450145956391712
Mg 14.783219061560601 14.583382302611772 8.663321084377602
Mg 8.03599545276194 10.850079763881148 8.833505064606632
Mg 11.908309301549505 15.085565802854992 9.682083299027758
Mg 7.236129776435321 13.498049267746254 10.033453078805858
Mg 10.134974124227458 12.360435003882227 10.47628849882247
Mg 15.135457234771126 9.582151625978419 9.308021827923529
Mg 13.077580337248929 12.186028722242126 9.568627423632092
Mg 16.219046830601457 12.36463221049499 10.195311450816408
Mg 11.141478878078027 6.4994414617312595 10.32009904225173
Mg 14.03427776484303 7.685701448902143 11.477338952461311
Mg 9.06796885505462 8.891544654577594 10.880396230348083
Mg 9.21631074423665 15.626998777580308 10.829901423507115
Mg 11.96388194578982 9.649312787493844 10.451412421355004
Mg 14.076039138138583 14.391813743926415 11.737653951384406
Mg 7.492381641234261 11.194713144905842 12.014810358194868
Mg 8.93164619456533 6.308813963122973 12.400766058448534
Mg 16.04534081380316 10.063736916939858 12.230712178857399
Mg 11.13265485321781 13.756855066390875 12.9855151157917
Mg 11.91515225885801 16.62229055011999 12.439424067702399
Mg 13.395541442828554 11.50580498810118 12.576204132658502
Mg 7.828396168985484 13.961354823142823 13.020620589846583
Mg 10.474611900080502 10.83845412581725 13.07604769150577
Mg 16.471390790978674 13.006823841409132 13.051444691863516
Mg 11.352153187798232 7.913183810087477 13.08768216670402
Mg 8.279703346055781 8.819288257265393 14.006086754945148
Mg 9.21592560691752 16.572939694151213 13.743653967896455
Mg 13.80351756954969 9.030858968028408 14.289711783453033
Mg 8.172492204788878 11.621995375305374 15.134790555707289
Mg 13.775203894692135 13.542468917224726 14.850991020787923
Mg 11.51594826019228 15.684327500111602 15.475071950026768
Mg 15.768820115233396 11.13444256717576 15.096983260290122
Mg 10.704240380659371 9.64619404328556 15.822071545962048
Mg 8.697283756361065 14.538600013125608 15.844238747154776
Mg 10.974511695336869 12.68080141301938 16.09710228570717
Mg 13.270546986216164 10.928070905099773 16.56580393993526
