41
Energy = -39.2862605 eV
Mg 10.410707493190287 9.373431621957243 13.100463530857372
Mg 11.266864826040399 9.40821398092506 15.944360506865069
Mg 12.423514114922668 8.732286277551482 10.84124967555031
Mg 8.723570168888436 11.75227419508616 12.70339143746652
Mg 10.852407502390568 11.193837221116343 10.562656283863191
Mg 14.285389676741428 9.462481623732394 16.4899010102045
Mg 9.449311914010515 11.842452436580972 15.81063852302134
Mg 13.448482328546206 9.365922046223865 13.552517016235932
Mg 15.295121071218967 9.377988612620586 10.73911339731002
Mg 12.265702772951476 11.929250545292334 17.175209171796908
Mg 13.186992751126532 10.568888449324122 8.591942327398419
Mg 10.718515356245678 12.602681763588198 7.7982620307496795
Mg 8.59407239013257 13.251588687056433 9.855420211738199
Mg 11.840174334977505 12.018942723945125 13.954255920274994
Mg 6.672424034185945 13.870036591314388 12.093052901246553
Mg 15.158540713207403 11.82037283902663 18.126137374775258
Mg 14.95976851746766 11.962280979013478 14.69099570764492
Mg 8.874392097679303 14.396498564722222 14.15404052377209
Mg 16.52830425309289 9.350343333009214 13.82708605665024
Mg 13.704129280632294 11.923376561772924 11.625198017808183
Mg 17.17300824787277 10.284519833211933 16.667048523819957
Mg 11.146358869926015 13.961636286894965 11.735157454747341
Mg 11.334698226659619 14.497536826785193 15.790559460067339
Mg 8.669516518825583 15.99916825372198 11.382137420945714
Mg 15.807081322001748 11.846209648390605 8.945328223265227
Mg 18.393219862551415 11.642319032331013 14.388041577887927
Mg 16.89101702623039 11.699291767390614 11.807164931451394
Mg 13.214092824409002 13.624650768681523 9.079009990963865
Mg 13.66546011895728 14.492483996649566 13.464833484606993
Mg 14.199068026066671 14.320869042166482 16.693973079690416
Mg 10.633420104415414 15.450229501126026 8.917879310488193
Mg 11.009465314879675 16.510256109807397 13.461222654534787
Mg 17.19820248009955 13.403144586479625 16.56326465112254
Mg 16.92288089217226 14.200951498427456 13.583640008991763
Mg 15.620672921541237 14.295670606504554 10.829837402059601
Mg 13.201224345630528 16.151366593501532 10.808886339515578
Mg 13.37623452232383 16.97310021330535 15.309607294336356
Mg 10.763033352799718 17.95215266275728 10.684712188456345
Mg 16.2442385409297 16.24104584208703 15.64216840349169
Mg 15.611568465321566 16.861531128989903 12.751721218861352
Mg 13.118892213042331 18.51339171408654 12.698346383239945
