48
Energy = -47.54277688 eV
Mg 18.160437446166476 11.38125529474733 16.9515692426446
Mg 18.430561131174716 11.709709236588314 13.663725466480107
Mg 18.212643533138955 13.962611769161478 15.669768559056479
Mg 16.926021511517735 14.30589333841403 12.967007011179838
Mg 17.35428395853191 9.268199535506902 15.156040451382045
Mg 15.927199820951357 15.8599919777487 15.464479991039422
Mg 15.169374100236897 16.785984393522764 12.551498860563015
Mg 17.34429882748025 12.218511305129601 10.650189961660342
Mg 13.413727219231143 17.48794147688594 14.933673367216684
Mg 15.536967851235584 12.024745904080774 14.797571673168623
Mg 16.452660927528772 9.756147095502763 12.315223997648657
Mg 16.018793443143437 15.041628228129596 10.157248862085275
Mg 15.864797695176096 13.391304031729305 17.56464243609917
Mg 12.513696542867635 18.05994521918292 11.82701784789487
Mg 14.624278683148415 12.717433385059342 8.819113041476939
Mg 13.488139293504156 14.363615990189455 14.100562509107021
Mg 14.479482702507758 17.646330539079447 9.675506371642138
Mg 13.465707034032727 15.352712800088616 17.18179585303689
Mg 14.47217974974503 8.85053920407626 14.427281358328088
Mg 15.516617237295872 10.034206208823049 9.448569155354523
Mg 14.590803421915396 12.440880305798911 11.953221157562963
Mg 10.896452607618338 16.401829687331855 13.706077185604242
Mg 10.922330042300153 17.003380450812706 16.63515836909403
Mg 14.153915210843696 15.458159913863756 7.760076698072297
Mg 9.722049845918438 17.0681419595443 11.083179984436617
Mg 12.81547485487721 14.938976814618416 11.033404241843705
Mg 15.340179209910248 10.24080430560812 17.262194733426963
Mg 8.377835240296815 15.761108083755774 15.36116780654283
Mg 10.864131195205161 14.058437989887324 15.993061832341786
Mg 13.45524713718759 9.278064806212782 11.51080064953465
Mg 11.864689770547136 12.029095957253324 10.864659296076969
Mg 11.84190548315437 13.489428712048335 7.940056363593664
Mg 13.04570565790402 12.2782390821869 17.151828162944284
Mg 12.62017659146168 10.310715655045833 8.577656724990181
Mg 10.612117661384563 13.516122115418655 12.985844411466413
Mg 12.482815777603571 11.315962275422716 14.065351914134956
Mg 11.644631385366363 16.65829881463133 8.789641824501395
Mg 9.70547691333185 14.300795630027286 9.924923665048421
Mg 12.457244692272312 9.297786138570787 16.624467295635032
Mg 7.9660734449182184 14.975922113718626 12.466623752475947
Mg 11.604944529015373 8.267823569142754 13.647784067939185
Mg 8.083582778307377 12.836695548676152 14.626253685789838
Mg 9.70083596180582 11.415186944516922 8.689605975096118
Mg 10.367578150009978 9.429925156680179 10.907254888647742
Mg 9.516807387447924 10.42004668378454 13.628202984496687
Mg 10.109241818500864 11.271130064946558 16.53056797158293
Mg 8.337459768502473 11.942282351611707 11.384426145665573
Mg 9.66897490981399 8.390086145457472 15.920389742117116
