42
Energy = -39.7308475 eV
Mg 15.305825411927083 7.047934206128179 11.993436322799283
Mg 14.411146276897584 9.09192451596992 10.061907571468666
Mg 13.584161518760578 10.864829807417099 7.64794096346496
Mg 12.562085162464355 8.384494607888659 12.36750927100116
Mg 14.365623938037194 13.742865579734255 7.5540360668159545
Mg 16.582509123970762 9.922818499344709 12.059730661277872
Mg 11.781265050139057 10.657445035168214 10.103402403329852
Mg 15.582258451047307 11.85183377155628 9.744557268725087
Mg 14.941437364969419 8.669022647119242 14.353605597235187
Mg 9.906492557188997 13.092176184263849 10.742462027468246
Mg 11.431285674476566 12.923509613460762 7.973976968690166
Mg 10.320436381588411 10.609596776855938 12.730401638561958
Mg 13.84676033515682 11.35384310377569 12.650787993462881
Mg 12.444386084898913 15.787742659115981 8.682767486587034
Mg 13.028532620985828 13.438983063572671 10.593292959441442
Mg 12.179998182707752 9.990179985970478 15.044772562492094
Mg 16.374395141560555 11.475558506743843 14.779959225467774
Mg 16.676595211430904 13.116770010380478 12.272827592105228
Mg 15.754160751929444 14.881452864401147 9.959107566986724
Mg 8.027731899043843 12.596360283491693 13.197617067708647
Mg 14.664897653970696 10.141913148720489 16.908316994483968
Mg 11.879287977265928 11.347131629353694 17.829142064509906
Mg 13.549931639639711 12.822119153705922 15.488233713450516
Mg 11.375757299873888 13.3877099024659 13.423651913681566
Mg 14.390234873503475 11.168491900322945 19.647893286315355
Mg 16.762486695225963 16.305494183839567 12.430455933602031
Mg 14.028132018663952 17.065339086401597 10.966095031797357
Mg 14.1302703041318 14.719959163338723 13.041544641446091
Mg 15.866888699207545 12.94231266280397 17.617834574435378
Mg 16.52279416754055 14.5734958453465 15.08094386484064
Mg 11.327356777930822 15.897243542635481 11.635699510440158
Mg 9.764788743383608 11.862255479684723 15.603867770218626
Mg 8.368776014901426 15.320711649534703 12.196979227118664
Mg 11.170326452823122 14.208790765237357 17.06427093031387
Mg 13.205693565976956 13.746459496460664 19.211538363009232
Mg 12.034932039082834 16.070947464879026 14.899365879164886
Mg 15.500656355541217 19.11968805836947 12.633372025393411
Mg 14.211298327018213 15.454077011636405 17.028273063682974
Mg 14.96601904076223 17.263509213500225 14.808176453371809
Mg 12.528037386520126 18.579845681739968 13.222091721095387
Mg 9.011870976760695 14.879406472692018 15.05926023563949
Mg 9.659418642153492 17.655925806974732 13.696995397624494
