40
Energy = -38.17728986 eV
Mg 17.114871150142683 10.500992596398257 9.626352740132301
Mg 17.423773634747512 9.268977745923754 12.42637457689072
Mg 14.258220894476258 10.989411560634613 8.384726460374939
Mg 13.51199251482145 13.856893691874795 7.444377679890998
Mg 15.951710142929722 13.391473866097437 9.319292193751311
Mg 17.122300023504195 12.187009490332649 12.055014843031977
Mg 14.799677257365689 9.019824364979263 10.797457832515322
Mg 11.928652158526178 9.819733955928761 10.164117834554544
Mg 16.322517525257155 9.775018084815828 15.261103610779637
Mg 11.3532876868679 12.353056486823368 8.78775050651573
Mg 13.465060073489381 15.39011886184945 9.98061864090385
Mg 15.255719123044761 7.562162208415966 13.571387540621913
Mg 13.587298477462785 12.406207827234324 10.993019802506925
Mg 12.453648060825271 7.965946999698389 12.53106540400856
Mg 15.509442111363256 14.634705073448151 12.14550338594122
Mg 9.610527592695648 8.702255561265765 11.755099299986563
Mg 9.276789925690208 11.612084669356543 10.916436881732215
Mg 10.750726805818623 15.19234097715127 8.44930579148729
Mg 16.121094850425656 13.027007317691163 14.839687087435681
Mg 14.483360891024413 10.84478006520152 13.244400161194957
Mg 11.523445407272328 11.04916182137883 12.997262006422508
Mg 8.303224926215426 10.46012138040966 13.74874843540645
Mg 10.86659146327935 17.04149074023759 10.766093351985093
Mg 6.941218352940147 12.8457096537637 12.315930877882371
Mg 13.092474973395824 13.616082678806727 13.914119716969019
Mg 15.508640717937308 15.974534597773602 14.807850001379043
Mg 11.13238094138068 14.005321115504527 11.621833184716268
Mg 8.392831402136371 14.960680113885752 10.568040845579837
Mg 10.174618269651011 8.256574505108135 14.616904747796264
Mg 13.193339111828884 16.522414922512997 12.818450918387647
Mg 13.09897465462245 8.880949864917206 15.320577808109949
Mg 13.73889776521725 11.641125597544244 16.22269450058021
Mg 8.546493008811696 17.77601877783997 12.29478545646709
Mg 14.525877693019245 14.387086840522235 17.088884257404747
Mg 9.557788431779247 13.137135620738729 14.16342541507215
Mg 11.487428001613228 13.874698032853058 16.46464194208817
Mg 12.807640466850621 16.525795608335503 15.886275926667533
Mg 7.439087912682049 15.402678077950364 13.570840848726082
Mg 10.442683107694759 16.013032095725226 14.044751154144702
Mg 10.736001130451434 10.923211707055072 15.951072751987324
