41
Energy = -37.23095835 eV
Mg 11.415532007307197 15.673625678319876 9.02839473595286
Mg 16.32964479652555 13.641235111832106 9.062607567832774
Mg 17.18288680121784 16.36743516688789 10.158754322485315
Mg 19.26393640586502 14.26800964570262 9.931013335729556
Mg 13.477683765766622 13.19928009114358 8.683742540722962
Mg 14.344750880488258 16.038681609329284 9.491144029071283
Mg 10.4008361409282 12.843217151328913 8.451708978375777
Mg 9.698467040301058 16.307315591859513 11.407371590407129
Mg 15.137413022511254 10.998164239773063 10.33603316500874
Mg 12.302149786378973 10.687329323409935 9.787394444005407
Mg 14.627631820061344 13.843610425058968 11.710480861784971
Mg 17.98984424525678 11.861504073303946 10.907048980605394
Mg 15.574826485473674 16.754742396321515 12.54484184414177
Mg 9.46202163662748 10.851108862511843 10.54738936644276
Mg 17.68335868172262 14.42111125369794 12.557877146962918
Mg 11.424098465204155 13.469815891747045 11.31844229077565
Mg 12.629955262940708 16.3134627771365 11.948222655148642
Mg 8.3717283976372 13.777224395842548 10.657020190274864
Mg 14.579867065511637 8.74202856725164 12.804956606884026
Mg 10.788448125459547 16.870105226327425 14.2420745134528
Mg 17.229742140087584 9.235185497566194 11.805647705891804
Mg 13.749986093351344 16.865295399809142 14.807950808104163
Mg 13.1752640788021 11.420832791998102 12.75769470537567
Mg 9.39321865078568 14.276245573642742 13.63184290387059
Mg 12.470572551638487 14.067256283765651 14.201676250089733
Mg 16.271606031252663 11.69428866257381 13.37283314653006
Mg 11.504422038351084 8.90105466434971 12.039945994861638
Mg 15.756681515070069 14.50722522221996 14.726460277534036
Mg 10.445911349367071 11.223235195827675 13.893249007651589
Mg 7.648656350652057 11.987237181112382 12.915897758001876
Mg 8.42003734478186 9.161414200096996 12.659826903373617
Mg 12.76350564138548 6.8518996075073835 13.978324722736245
Mg 12.156245581543125 17.251930633172744 17.271396599388893
Mg 14.457137039697406 11.980409667596824 15.611559255340095
Mg 10.502994008894932 14.909284020772368 16.494845754169713
Mg 13.680647028144929 14.6068810687572 17.067247224636546
Mg 12.723216304610984 9.59428580144666 15.30087504856408
Mg 11.839004568835568 12.152885822971937 16.954183043940887
Mg 8.793623314749603 12.573370442962037 16.045956305405106
Mg 10.136857953650452 7.925024206420178 14.683745734003738
Mg 9.977258734683376 9.958003946121881 16.781217097569478
