42
Energy = -40.00401962 eV
Mg 16.902359589836053 9.478840320242389 7.913183332581095
Mg 14.00681724178922 10.182484493486514 8.296606661587397
Mg 11.130945522984208 10.76551197464127 8.513320036155413
Mg 8.086129311436169 11.2474532599792 8.52637674572296
Mg 13.13848270623001 13.066782537256278 8.771237318093519
Mg 16.172750129347815 12.416573096735736 8.406085285214473
Mg 10.029354752261682 13.42854989197789 9.398429756643633
Mg 18.031281392057704 10.514519913447671 10.434823542199657
Mg 15.463366695172574 8.39402844221041 10.360639567965821
Mg 7.045548146661823 13.673320542590192 10.06814048066317
Mg 12.435370364678144 9.12630282636845 10.733699374051268
Mg 9.499757051484268 10.30031756223212 11.032921050781873
Mg 6.521096520940188 10.78567772482228 11.013604640830163
Mg 15.128050566495101 11.319471847016917 11.086958906851963
Mg 11.89880076292169 15.18410499100014 10.995798465050346
Mg 14.780779491311376 14.383665961385235 10.975568256767465
Mg 12.219957878975404 12.117264883261385 11.535569647525834
Mg 9.376731296353004 13.108223903835166 12.515209213904164
Mg 8.931416496678414 15.851118381660532 10.924469336269789
Mg 17.652978736013377 13.522050016259092 10.789684460935536
Mg 16.940023032574718 9.068105103280654 12.878589563567546
Mg 13.974386260300367 9.4353038918774 13.345848064713037
Mg 6.06229633882485 13.069307763182243 12.83464758536781
Mg 13.711063730021204 16.075873807182013 13.290843253262835
Mg 16.67286245349846 14.892892204267703 13.370751538728703
Mg 11.04587496265415 10.111732267693112 13.614735976260215
Mg 10.532321980609993 16.49919543949856 13.393748592290622
Mg 7.659822923919724 15.538645499934617 13.647178629649826
Mg 17.752853435743056 11.888912559908297 13.24615053268692
Mg 7.921019663588813 10.667870357117469 13.74851266665476
Mg 14.649041682438174 12.62495190565944 13.75298173052669
Mg 11.86181145880012 13.718577411792722 14.118592392593431
Mg 7.3560607944429135 13.169921293700567 15.470179080662193
Mg 16.052106319425967 10.392593089369802 15.454142856226357
Mg 12.9126269320397 10.902885447571029 15.824271573608588
Mg 9.966298492222615 11.844794510588732 15.843619099985608
Mg 9.646768258473791 14.988093937868209 15.97524723596736
Mg 12.180848179796484 16.49876841751255 15.94269090315796
Mg 14.797314505511325 14.995556139511846 15.91353095008273
Mg 17.200158749256882 13.221818629072468 15.874399944870326
Mg 12.211179452790418 13.694223195895615 17.170793414651182
Mg 14.93863233008904 12.331061147755653 17.49356492533898
