42
Energy = -40.61973673 eV
Mg 16.980677165252626 9.036569195601185 10.55744071648576
Mg 17.29790421583416 10.343854617947997 13.841262480489227
Mg 17.961136286634105 11.799840374098215 11.184697093312359
Mg 15.703199039738472 7.902641302512872 13.157253434175031
Mg 14.319722107627964 7.460403539504475 10.626393855587805
Mg 14.443327270764566 9.834586489910006 14.999948200579738
Mg 14.656121905803696 9.438056200974364 8.51661951903511
Mg 15.665133173130052 12.117478678013965 9.135949512116483
Mg 17.73879676112322 13.297265975636927 13.761477602777415
Mg 16.231416635164752 12.134758763653522 16.167242424312935
Mg 14.772347553124757 10.725516493016483 11.891713792614889
Mg 10.5546900923296 9.09462409974243 15.195375922647694
Mg 12.609715529987323 8.097985300294843 13.093684259902764
Mg 14.514603786192268 13.050819345120464 13.798724627921796
Mg 14.46283360871173 14.751749053877733 16.524703814224136
Mg 15.950127981293631 14.135307607607038 11.308084246058124
Mg 13.133191815293102 12.135030039520485 16.498960344575476
Mg 12.200753068795358 9.798533863742897 10.437251580756497
Mg 11.826055052849712 14.33623990480187 14.05875134355105
Mg 12.749608357591931 11.875939377962188 8.165617055670863
Mg 13.974609200971695 14.71033780409109 8.943071230540303
Mg 9.777966070774188 9.416361225159923 12.275834784667644
Mg 15.739427268725407 15.81385502647222 14.028523293873391
Mg 10.29322092645008 11.952937465375467 15.970956544864949
Mg 12.822439691650422 12.915236786467824 11.121537885661096
Mg 12.122512144025533 11.15530627702515 13.583541653846197
Mg 11.381745012785789 14.711851780728677 16.98611614762936
Mg 9.708870276490645 12.656028382929478 12.86985288870498
Mg 10.072615890209358 11.843582019335878 9.869222546881709
Mg 7.984663024125169 10.763105143481777 14.479309637741215
Mg 7.456817969963067 11.148964058644502 11.446806533658457
Mg 13.102767422055457 17.004551710519774 14.993116028995155
Mg 10.997872392104586 14.312780843682358 8.313206377133167
Mg 13.599253333319055 15.869126438976625 11.915613172111316
Mg 10.67283192633866 14.956133543240696 11.200939617891095
Mg 8.599756977049674 14.28504962601155 15.446341561385173
Mg 10.10102105601133 16.95239066344212 15.36335842361501
Mg 7.937954734755096 14.039625896702303 10.4954780080123
Mg 6.652470592232385 13.442206732885365 13.214916589828958
Mg 11.161135618134194 17.554503914742554 12.649853704341027
Mg 12.072492831336467 16.961276840926818 9.495347308090526
Mg 8.404574736723832 15.963465828872065 12.920250289728875
