48
Energy = -47.3951587 eV
Mg 16.283604765015934 13.449162921831991 6.714698295374604
Mg 13.467099727165651 12.811786090337792 6.451077500403117
Mg 15.371359961943853 10.520669752132932 7.536127996294632
Mg 12.141241224152358 10.828790241878314 8.19261566138595
Mg 14.24535487579327 15.399144725452665 7.9926848673993485
Mg 17.787551850825306 12.058980546663841 8.757556281098498
Mg 12.044232713571837 16.74136963270108 9.48311258474545
Mg 11.58698593461459 13.795729145810768 8.783389993956071
Mg 16.69489932066096 14.766960332129033 9.697268638603914
Mg 14.570132682352956 12.503032849558267 9.464919558930706
Mg 10.45764689550991 9.671261512279857 10.407888701851634
Mg 9.115651692689505 12.408154014197342 10.566237041504632
Mg 13.631266238931234 9.524039553370292 10.407014747109233
Mg 16.548607764803943 10.147890912768009 10.714290527428394
Mg 10.480865588619894 14.91180930885766 11.547086140654619
Mg 14.922897469609017 17.257205854036076 10.621615450486551
Mg 16.2241034536313 15.215762650926473 12.76476814330327
Mg 12.27852740552253 17.244082872308958 12.53963445202739
Mg 17.87492434936071 12.833978932347192 11.709320505979697
Mg 13.582758997081843 14.702392333556885 11.118713549035148
Mg 12.130274213591148 12.074090690241475 11.30006127716362
Mg 8.97329545753367 10.510388933820652 12.927647354509206
Mg 11.920278781996947 9.546207950073166 13.089231345290914
Mg 14.959715276931712 12.23273812486218 12.442593010766869
Mg 14.99209691663773 17.72043198272276 13.644431910512504
Mg 14.930714670088204 9.165262906162676 13.245465005239147
Mg 17.516290154719528 10.533183249117023 13.687606411885792
Mg 10.33017609850419 15.76152465683078 14.438860915402996
Mg 8.161123881202798 13.670248072610443 13.37452266132888
Mg 10.875770178243371 12.68686883079782 13.887238137858663
Mg 10.649089536608695 10.082361812941818 15.814624173003473
Mg 16.49529391554378 13.083318799152769 14.943156314365137
Mg 8.138822423210286 11.658809273813205 15.615538344393764
Mg 13.368672070889152 14.575632360754101 14.053835375093131
Mg 13.295908288891349 8.607069545410402 15.723982496840973
Mg 15.399863198510403 15.748526299652498 16.02308989793174
Mg 13.462371779575522 11.634732323348139 14.91940287540708
Mg 15.827522129364642 10.338822080384157 16.18240676650155
Mg 10.44542043959666 16.702396535726777 17.350835140310473
Mg 12.781159449940185 17.300056300007988 15.640152815580956
Mg 8.655513545242478 14.387113702681468 16.602745489271104
Mg 9.91560554819353 11.902275803366333 18.21023692646013
Mg 12.91982830227412 10.665815828209869 17.848543558990976
Mg 11.784146125016177 13.749950953278791 16.568118284089213
Mg 14.752851180726633 13.135834622834617 17.467314348456057
Mg 13.217826229071987 15.77345700998355 18.311908076206954
Mg 10.09010873973369 14.668084645929742 19.385766123366558
Mg 12.467342579725726 13.059386545559382 19.597458349619096
