49
Energy = -48.70276489 eV
Mg 18.409612432096363 15.892115379036705 15.38415632136002
Mg 17.835439863356772 13.46477822668895 16.879292507656476
Mg 18.53246955664028 13.092406486087674 13.884017427958382
Mg 17.342696431826706 15.841626570141548 12.358400334036949
Mg 16.151699031609187 17.548586758351473 14.75501528111529
Mg 17.661279217029172 10.683010804339778 15.65259730285473
Mg 17.586981196276366 10.287491999831257 12.550229130078886
Mg 15.12615863996456 12.352501843233899 16.83666604709595
Mg 15.428664318213837 15.528188390532685 17.071723387001477
Mg 16.27267217377143 8.290119585159983 14.497060425065774
Mg 16.858974420555143 13.00864489593009 11.395759197992854
Mg 15.762723277785664 14.245836058701729 14.386966336905358
Mg 15.34247848943368 9.314493952998971 17.075286408502688
Mg 14.473472932824977 16.941096710670806 12.373594673684828
Mg 15.478743180820857 15.502487645521127 9.93320134605338
Mg 12.80178618263691 13.919173285150512 18.044086039208146
Mg 13.42573844277881 18.592163732316777 14.995189150194042
Mg 14.931139976152844 10.622551109142343 10.708984118201911
Mg 15.041025723989799 11.301044742540505 13.872477328359956
Mg 12.645657583875245 10.58677767719726 17.53415816210675
Mg 12.716779585764579 16.943596971263666 17.587621863870673
Mg 14.201732419493888 8.23753783902099 12.402774588164425
Mg 12.472421343290756 12.590138951029294 15.11935673050479
Mg 15.364684507836744 12.788543093775182 8.794302664513207
Mg 13.017657995836956 15.514805878247463 14.740876783650016
Mg 13.119595636446741 14.295504456366114 7.66632994407681
Mg 13.110936810999206 9.071621701151885 15.000647835678683
Mg 12.679050935931967 8.550764226992305 9.915465225284757
Mg 10.633847800280689 12.388934573530776 7.2568098497169595
Mg 12.348626061363401 11.053259870469983 12.443027658778188
Mg 10.62664331759007 17.973685506864978 15.697335548808631
Mg 10.98387802757264 14.03755096766782 12.750526520809824
Mg 12.451230831513062 15.995371747269962 10.303397918235726
Mg 10.269539038378786 12.26473073114614 17.487792233890666
Mg 11.438895699935905 17.527235463532158 12.780129402587404
Mg 13.105549987070104 10.910938242404617 8.09234738758837
Mg 10.356139726368387 15.114883143331395 16.637873408965138
Mg 13.968330352579125 13.744343965172991 12.136662520761654
Mg 10.895599393933766 8.498464562334558 12.406330717494779
Mg 10.318082444689544 15.204250902372152 8.171614040148949
Mg 8.994827833608932 16.059671760127333 14.097300479421948
Mg 10.360970510453091 10.333534919391404 9.677992031941155
Mg 10.416162574252246 10.290744601509191 15.03535755991115
Mg 9.162832957753094 11.264761217647212 12.35989509844552
Mg 9.417312379770014 16.012831063147964 10.947654452742299
Mg 9.017735487147656 12.984700332029837 14.930921620114015
Mg 11.972231916150065 12.91639131885434 10.116430556993157
Mg 7.68332496262286 13.960654799024706 12.382505870543701
Mg 8.924985198286063 13.086025329229521 9.836376039006534
