42
Energy = -40.52755024 eV
Mg 17.585413211006042 13.474644953067259 11.404478163315208
Mg 14.511691843515583 11.223981031785435 8.581583334867318
Mg 17.225401103751054 11.572738192586241 13.901381858357823
Mg 16.486197421742236 16.20897842808653 11.741416501311729
Mg 15.62699816542678 11.093380811641033 11.295701152881716
Mg 14.995883330697337 14.179526567455882 9.808405972514805
Mg 17.85119069712678 14.662315693350731 14.101214179193958
Mg 15.648946414856047 8.806447071681973 13.330113008240115
Mg 14.713677241488401 10.912493323502382 15.511203879617034
Mg 13.823036024704196 8.84538401423656 10.430277475926088
Mg 12.685384990782639 12.687914664195553 11.004699281034759
Mg 12.673038305088996 13.255442621865146 7.710113168019716
Mg 15.749576846534298 13.787374014826884 16.128412098119274
Mg 13.254959016681367 15.487714934716973 12.502335932058601
Mg 14.753339630919552 18.609066286379306 12.494555239346125
Mg 14.390635992307505 17.259716991781 9.874575044911825
Mg 14.888508624873458 13.264451052895861 13.240104565856466
Mg 12.033538715099684 15.511378343095021 9.46108208173403
Mg 13.197117006056017 6.979457534016919 12.72021258975478
Mg 13.582677898939146 8.070830642780884 15.413717291521555
Mg 15.52594985069423 16.542686354123806 14.64851605646609
Mg 11.550698837616407 10.52697369578434 9.159984977945507
Mg 11.872040804339425 17.92647091169098 11.605497050789236
Mg 12.762036106880633 17.929973928744673 14.55168908669356
Mg 10.06304069772395 13.099124743204001 9.174269315870465
Mg 12.964327615032175 10.33235516566864 13.0084216753842
Mg 10.89654020671389 8.347019854554457 11.145115164287525
Mg 10.77234357073163 8.190974133248348 14.257115585636368
Mg 10.248991974822088 11.372116838319508 12.305028524533983
Mg 13.087685976734237 15.294796368259398 15.98903806962098
Mg 13.151427718222523 12.6934398759797 17.355229299908974
Mg 10.322244611231987 14.654053764504953 11.795823212172097
Mg 12.036688008606513 13.03479107118632 14.13839952206425
Mg 10.511259274751588 15.805210043978578 14.558616946829842
Mg 8.542241761278026 10.327113665610907 10.104566598702863
Mg 8.281484492730414 8.5725232834011 12.653428629680253
Mg 7.748889807532969 13.236780465082738 11.015032219666484
Mg 11.710411402767935 10.485200208047209 15.970972819715591
Mg 10.249940504134088 13.146303763248318 16.523173761457585
Mg 8.537099557966714 13.474591328445491 14.030516591616111
Mg 6.897555635269984 11.102447606417671 12.807579719749407
Mg 8.85590688500271 10.572540879108606 15.064505055521673
