44
Energy = -42.19385069 eV
Mg 9.541200539820188 9.921499454246566 7.551498730307164
Mg 9.9707031517189 12.741623848430388 8.577848807510168
Mg 7.389437117854995 11.164429826849547 9.452388336599205
Mg 12.954215266465736 14.130266814535071 8.39290270568036
Mg 12.442231929020725 10.925649409382466 8.238290826346821
Mg 10.365229080830359 15.697199666376122 8.73101741727288
Mg 14.934725754493806 12.098341902981609 9.458772562837625
Mg 11.531223958119819 8.067473129251507 8.924291526307716
Mg 12.961555106481248 16.800375315044835 9.858754958609543
Mg 8.297603646397436 8.093238551098143 9.509707100397538
Mg 14.990234653539684 9.102259078716378 9.298199162472843
Mg 10.14682749091313 10.329025725000971 10.50681631427247
Mg 6.200668511417171 12.36579636099005 11.96278245209466
Mg 7.938250903838007 14.235041298386518 10.212977238442607
Mg 12.019692500517603 12.729381738307083 10.967187537918514
Mg 14.276060860801811 14.573786116587128 11.311682437068852
Mg 17.29757592825847 11.269706640435631 11.127069665401999
Mg 12.920563927911244 9.949234871236385 11.248587269536348
Mg 17.018959443980723 14.234854673458102 10.155031874188602
Mg 10.670523641207236 15.341046002004804 11.681148091060482
Mg 16.100269084493817 16.743896553679235 11.87832004025786
Mg 13.449107651846107 7.039173438492791 11.065642365267339
Mg 7.520565890040233 9.546427973704207 12.112547135524133
Mg 17.24769398296159 11.00677112880082 14.103896805775484
Mg 10.349454650570664 7.579281539525362 11.761060548647738
Mg 15.605735399742866 8.990892466185059 12.462427144598943
Mg 9.324152960519992 12.39590093614408 12.276969168059011
Mg 14.602719215281803 11.971717976466984 12.730787978124518
Mg 13.13228378696028 17.06625819677546 12.884751861871154
Mg 15.270651543325044 15.842546841632084 14.622145386098762
Mg 17.099703943694987 13.904776774862132 13.120923409396942
Mg 7.878558897533481 14.687655426164662 13.394341172708137
Mg 11.716620363092305 11.2054798997127 13.726580758228994
Mg 10.502040327681765 16.297637455545956 14.48405766352993
Mg 7.510507245454917 11.499820914574126 14.569840169865873
Mg 9.562125913876534 9.154520626415287 14.309084949431083
Mg 12.63484229937136 8.190800348551559 13.749540840634982
Mg 14.569266818517853 10.173173466730962 15.291518876929464
Mg 12.748932575318824 14.126660160638101 14.004666801682493
Mg 9.979053138928442 13.405916634617746 15.14385715594214
Mg 15.49682146900389 13.041004915556776 15.650886917840461
Mg 11.884388593551337 9.3010417906661 16.43176201414243
Mg 9.576617177542609 11.003476825234427 16.763219544885008
Mg 12.593105822685608 12.277639451588534 16.516918441815186
