44
Energy = -42.55424917 eV
Mg 11.65327412044177 12.71771452053101 7.99061511459982
Mg 12.665690383841921 16.701839703045 11.62087189755845
Mg 8.001705691143101 10.564022261381535 12.36365188698871
Mg 8.900601409554556 11.531041785214933 15.211079741394338
Mg 13.118333353943894 10.2610170003668 8.926762004824429
Mg 16.51818944690258 9.065978231336407 15.489738955117616
Mg 16.20524624269529 10.397145759294556 9.641085169877615
Mg 9.335230216924959 8.289216817288114 10.79389457168215
Mg 11.011449958502064 13.057607157301437 16.697490533495174
Mg 8.560860868672485 12.543842093462354 7.696762425823359
Mg 13.750204455025484 12.488547839481445 15.506920331965404
Mg 14.78822754705958 14.284238570640651 13.111845457962625
Mg 10.092620075672947 17.151616820049032 9.85008837866452
Mg 7.436374335096956 15.435972379441694 8.51805516168145
Mg 11.783353276477097 7.439099980106311 9.279578663614398
Mg 12.624240026138457 15.618046016310764 8.741628752599802
Mg 12.140784437885468 7.27587931446239 15.20834078217076
Mg 14.642820461400738 6.9620023550781305 13.512720076558471
Mg 11.994949995865044 14.734070520900806 14.209999757268134
Mg 15.164828399402596 15.516319426750506 10.388488816390163
Mg 11.458403477675445 10.076824157377539 16.287578181717645
Mg 9.865378288117466 14.271410322995127 10.003117388206974
Mg 14.599706197429612 12.97692247322273 8.882499869938632
Mg 14.168767849833891 8.8176758381749 17.10217785793921
Mg 14.526565800879947 7.925401700449036 10.610059973983923
Mg 11.856267863360237 6.4565620799652494 12.287912717187659
Mg 10.232886917067459 9.729766211995823 7.9869983382186645
Mg 7.4363122370132775 15.761703751792691 11.469508898628515
Mg 16.30100075570569 11.728533225283428 13.944087772209649
Mg 11.50060689679032 11.7122962446262 13.499759652395154
Mg 9.06196258767216 14.782760817593994 15.312812253167705
Mg 9.960122271303769 16.509319089581442 12.829371657525073
Mg 14.21258641881982 11.406091306397109 11.71202041382556
Mg 10.044685295624548 15.29939107405965 7.199802467162263
Mg 9.982972624448989 8.887910607355236 13.84502585683796
Mg 9.156331168421362 13.386152157933127 12.730247145715945
Mg 7.570209840723753 10.203029455241852 9.310790343001655
Mg 12.07279340037992 9.346929586336953 11.730541609230869
Mg 13.786023756165847 9.750766143783187 14.18155399686438
Mg 16.718311178659203 13.051649139777746 11.053760403294902
Mg 10.360763960956282 11.398613524420925 10.563840908880463
Mg 16.539390778186643 9.20259541575517 12.400422519778362
Mg 7.067344799545657 12.951475260115075 10.40032947247092
Mg 12.43629561743528 13.635676548184989 11.200836506443421
