46
Energy = -45.86402324 eV
Mg 12.246872775487917 7.877061727344676 9.425328609158509
Mg 11.222633393141841 7.906966175661232 12.208185583850657
Mg 14.175612753563325 7.745576649449529 11.827900237129347
Mg 9.272323919922703 8.64072276358152 9.817322235839393
Mg 14.31122773024489 9.846491133513501 8.251822244464007
Mg 13.266875542330697 8.391557397251878 14.645226430978003
Mg 11.255666452056323 10.32136833719406 8.012551299000402
Mg 10.343037031079081 7.85105073460114 15.038888029335142
Mg 16.089256630396974 9.679213814734892 10.709353317828338
Mg 8.464847225468299 8.950184106268509 12.904065586447723
Mg 16.24702770402496 8.997189810584798 13.719236514970065
Mg 14.381074288186111 11.159195897241656 13.418140917464505
Mg 8.509160392822512 11.873582235277278 8.611834991792346
Mg 10.002170021219468 11.134366460619297 11.176516296332181
Mg 12.979109285582792 10.50377833435033 10.900519001104103
Mg 7.020127756564208 10.814437415642377 11.042089172850613
Mg 8.562158728349571 10.080865524307924 15.750972852489264
Mg 15.757619880698618 12.340813622958926 9.38172466113684
Mg 13.641345511825765 12.63315201316905 7.221141222074884
Mg 11.387989219215708 10.017826913032573 16.932646333899736
Mg 14.385751437155498 10.62158662560784 16.510346730182633
Mg 11.23393191677173 10.796946109829808 13.873792705777982
Mg 16.898426930868133 11.730728366027053 15.12314392059863
Mg 12.310809185036065 12.849483100035021 17.533377455384436
Mg 10.58114797920845 12.962733602432898 6.74871777909774
Mg 17.14210492560298 12.047225375536934 12.123113314879063
Mg 13.903224574984232 13.656591602808557 11.73704487034871
Mg 10.706644202191564 13.778571467665557 12.473103973649229
Mg 14.633920642556845 15.261362466301419 9.031899372669272
Mg 12.108092932713076 15.397470716562596 7.504170515932555
Mg 7.912293822075128 12.107741788120254 13.671540295402975
Mg 15.104829289419424 13.665907447195334 16.58073784339191
Mg 12.777617624094937 13.476740545703828 14.616890009173014
Mg 16.823873506584345 14.80276812620861 10.951211450120205
Mg 11.820274242846049 13.09956263643949 9.630705235815748
Mg 16.183377073826165 14.481798777862386 13.871882880526831
Mg 9.710049739438682 12.818859166151526 15.996764322245417
Mg 7.732231133977867 13.77626651443108 11.19916264601554
Mg 9.434188717763863 14.923458742657532 8.966705775918983
Mg 11.095664574568906 15.462468488551643 16.07528172729352
Mg 14.543386002487386 16.610551644452812 12.10823368832324
Mg 12.008154130253795 16.282234247051438 10.386993357865713
Mg 8.652022795131147 15.078158879436169 14.219867352739033
Mg 14.007810288802588 16.21226688524991 15.120992685063204
Mg 11.652541891391103 16.630359387654792 13.351902039120523
Mg 9.227196935601613 16.40923465974999 11.564446607553643
