40
Energy = -36.41952729 eV
Mg 19.182100322346805 13.505117257229351 12.208202388293591
Mg 17.415442301328873 13.092258143351074 14.509268011646798
Mg 17.49302919440238 10.935381167916645 12.385376458692988
Mg 17.171070153142463 15.698884404924403 12.216148090149693
Mg 16.49148150340485 15.972946880774009 15.060597754176282
Mg 16.801691332830746 13.249981463408362 10.379445458327982
Mg 15.245988464828544 10.843261526340426 14.433091916809833
Mg 15.565700702116175 8.314399353272986 12.631127801647544
Mg 14.852912631558643 13.512582194546463 12.738084816455542
Mg 14.774175500961048 13.639515028495273 15.928477482487587
Mg 14.832993528450121 10.861074514535906 10.925143458416024
Mg 12.955324106327785 8.755557197019531 14.676338048706734
Mg 14.63351840602428 15.631768961060972 10.433788183482063
Mg 13.634344856724224 16.51445824131359 16.13327807379301
Mg 14.209245332071786 13.076100321045898 8.843818559027268
Mg 14.495676954372545 17.04512245646616 13.183954236764913
Mg 13.4401715237021 6.198437445191481 12.96902946725167
Mg 12.709037918778929 11.50268888059477 16.035812646607393
Mg 12.47156758882936 11.28894904906092 12.964792403558286
Mg 12.740384992527034 8.514876809925788 11.344394777767349
Mg 10.219652245756343 11.285041333280585 17.697113656643246
Mg 10.616249115450596 7.460208736852193 13.395185160811153
Mg 12.12485006671501 13.565739389176422 11.05118135479693
Mg 12.25636180071243 14.351301393225466 14.133006824917434
Mg 12.083199891476152 14.05462622664903 17.414833270461436
Mg 12.076566627557872 15.550686061016307 8.740442796204952
Mg 12.13139696268338 10.75675726324058 9.487269065036926
Mg 11.944357664711065 16.624729908131066 11.659858880945777
Mg 11.506389856742743 12.875255448627637 7.529735524417373
Mg 11.766128442039427 18.057381187473215 14.313905222186971
Mg 7.785212986460872 8.78655704091891 13.76691533136295
Mg 10.084337654006806 10.358075728596774 14.817939879516956
Mg 9.5464297401618 12.719386362432578 12.81442727918762
Mg 10.59629299632069 16.386774440708038 16.430507561535823
Mg 9.965106703198897 9.857089454369113 11.647366473513143
Mg 9.6332691430586 13.490168745557808 15.681272301167558
Mg 9.416628653550537 15.15791817594081 10.756454849626824
Mg 9.45428869202687 12.253252097926598 9.744248253057517
Mg 9.639280799841057 15.846193028123526 13.638403869390485
Mg 9.218424579576487 14.703830425647164 7.868786169757671
