40
Energy = -37.00673868 eV
Mg 17.86983635980932 12.729591241333416 12.35227085343618
Mg 16.09794656067754 15.217592265355565 12.533202600806634
Mg 15.952308781810478 12.851840840457939 10.12445080839173
Mg 15.69745871570624 10.581715109600323 12.587157999703361
Mg 15.85278364685202 13.087445276561887 14.561323819308946
Mg 15.08048252861838 16.061446122369144 15.38357740924077
Mg 13.18742208341178 13.166776273737046 8.54687628803935
Mg 14.337162157858396 15.370746753824555 10.193153628439687
Mg 13.949820477018633 10.502313662951664 10.04733441015218
Mg 13.634299994197049 12.861916947998594 12.171740571958688
Mg 12.431213123300795 10.532895638854242 7.29207891521552
Mg 13.099238764481665 15.85751561681631 13.023415398097413
Mg 15.391108068601064 7.997549927559421 10.9231590944515
Mg 13.70017587078007 7.985172344250461 8.407539508551903
Mg 13.965500926102141 10.852546062890292 15.156856824728296
Mg 9.520506301772723 15.494443638695168 8.299406036614158
Mg 12.989044303631946 13.764247091688533 15.441484705332956
Mg 11.407730471954306 14.70033559945215 10.600162016642237
Mg 10.21028601341653 12.714622627797143 7.621278904017071
Mg 12.227768499801115 16.730046879272614 15.979259919944917
Mg 9.554338538100994 9.96881833478059 6.541051750301977
Mg 14.001874768675014 8.106990749001486 13.668786933633639
Mg 10.746887579337157 8.47539777453052 8.836572768969184
Mg 11.121296638498956 11.550574007441499 10.364106551116375
Mg 12.455880661140352 7.4095669606199275 11.107581457936833
Mg 11.897531509468275 10.309963387525405 12.970634524182618
Mg 11.02957158054016 11.548712046819297 15.954597882295328
Mg 10.187767794535217 16.602818277642577 13.729840698565482
Mg 10.810192085020432 13.25611433810072 13.218149045553213
Mg 8.809160069033906 16.36120998035003 11.124649525017588
Mg 8.538153504728694 13.415937559992885 10.314865232006277
Mg 9.578325767265595 8.636610191829696 11.630314300274192
Mg 8.435154013555492 10.469926842505613 9.380520751436856
Mg 12.019384699898092 8.70984976163896 15.983724801941532
Mg 11.060626065499038 7.0519789549500675 13.812838468160438
Mg 9.951342863380061 14.55797678585218 15.929333399561102
Mg 9.292766040452438 9.379945619274112 14.696872616937545
Mg 8.052115135388863 14.474147941613555 13.368379975744098
Mg 8.511340537384248 11.305693914413391 12.468875864805547
Mg 8.166520158232776 12.198158237390315 15.38297534485442
