46
Energy = -44.53843162 eV
Mg 6.628951798766447 13.01864970060996 15.322198436091195
Mg 16.206626870027673 11.606544109870251 9.596149268212208
Mg 10.422375335032282 8.521366708124994 10.05047619484641
Mg 7.053720910359809 10.065950813419892 13.966496798298104
Mg 10.853175527286794 14.602145762736232 8.781271751193943
Mg 9.325352409780571 12.298489104992395 13.941001258537694
Mg 12.919856399146582 16.163721526463437 10.351533864979261
Mg 13.048541994630488 9.713493176745166 14.667876274890526
Mg 13.168293726284478 7.076830408009603 9.980858845468067
Mg 10.022520041039837 9.336104033648521 14.635139303055459
Mg 9.887813437550744 16.515249421926566 11.085652446011899
Mg 6.356104550274784 12.529667966083421 12.377722342123054
Mg 16.005620159973873 13.269300008010898 14.750748331127275
Mg 11.065976443187562 13.88832898895554 11.945716962683893
Mg 14.541205553341122 7.179871616263098 7.3546739022346586
Mg 14.565359420733715 11.5326695113727 12.451323960450226
Mg 9.412578187737415 17.39173483224941 14.032392618043279
Mg 13.454689225176129 10.111424728534132 9.965833500903836
Mg 14.585995804259358 14.783794255510829 12.477861804328612
Mg 12.750275462150265 12.1000702061101 7.29397281067791
Mg 14.332449027370076 11.635313594895585 16.58648397260288
Mg 10.454665905166452 14.823572955979992 15.233163418765974
Mg 12.79084189938559 13.061728261132892 14.293588192817811
Mg 15.573047511688042 13.095233617961817 7.06710014439691
Mg 12.122211630942834 8.997642430980997 7.552738423106186
Mg 11.481421179180893 10.846131904980098 12.212691601102923
Mg 8.412264989160809 13.616967940403557 10.367357869686266
Mg 15.155594765006603 10.08453931090601 7.137110910476159
Mg 8.704689213877845 7.85640899676085 12.42587299755432
Mg 7.620926947131761 15.910323011757242 16.004677910890795
Mg 16.124002368373997 10.13411107896517 14.74417782792158
Mg 11.135130067497744 11.70550202734557 16.45617037990274
Mg 11.761710080677727 7.696945834287442 12.660370864660088
Mg 15.809936072541563 14.772380994470321 9.628393258046508
Mg 13.304624473103678 13.066295143027537 10.152400614971361
Mg 8.245785459275279 10.73105694449133 16.627222055934872
Mg 10.545026075173126 11.569042905918431 9.262203627632179
Mg 13.526095527118361 15.131358311665982 7.570996291868627
Mg 14.737253680417446 8.380729225771221 12.445628566611981
Mg 17.227602528295694 13.158354237110542 11.968214903445272
Mg 8.449886645118431 10.623498634457347 11.272621030715644
Mg 7.932777227860017 15.020028600445427 13.057258684648083
Mg 12.17277463740125 16.438477419311944 13.304607646754343
Mg 16.017303791867423 8.442483714393903 9.644564139156804
Mg 8.78306751509674 13.510040188920794 17.37263093620194
Mg 17.356885342959256 10.039433652450104 11.975860874397787
