40
Energy = -37.11426259 eV
Mg 17.35551216161741 12.396129579182748 15.20095749503374
Mg 15.578000544914334 10.072159442087393 16.50972400577328
Mg 18.401020690829732 14.574689404654912 13.345634194504848
Mg 14.528899822144803 12.874843122568214 16.12836262196185
Mg 15.973696912843408 15.495452728484771 14.893425887475294
Mg 15.797169884027912 10.36426786934167 13.571949267771737
Mg 18.463981776822127 11.657981851504763 12.548437159139771
Mg 12.733568068417954 10.39786902482155 17.160889186010603
Mg 13.510050195749574 8.507278489371252 14.759003041770407
Mg 12.651863807467693 11.419805355006606 14.147562956811228
Mg 14.97312781792146 13.313643167865472 12.923010454784825
Mg 11.512814210372412 13.117466038642945 16.543281130522473
Mg 18.95388257302214 16.549648076419828 11.085216423384978
Mg 13.712315484362787 9.515464554655326 11.666606242686855
Mg 13.012140262470751 15.284379996201716 14.985753528848738
Mg 17.384954208719495 17.714708636541125 13.343284269787286
Mg 9.793898823245927 10.877829421079902 17.748048981487152
Mg 16.128717399462207 11.21362038779463 10.690786731284815
Mg 17.78224425941927 13.735627556378176 10.479058053223538
Mg 10.48091462181534 9.367905375266302 15.248088097148662
Mg 15.904011064005061 15.941228650305781 11.457206207372872
Mg 11.294812041104302 8.151103457525327 12.632063967102827
Mg 14.280369246142829 17.686944871614187 13.472720997101812
Mg 13.772526513223715 10.902353475536339 8.749918572513936
Mg 9.955775947197242 15.585901971247711 15.858668799865379
Mg 12.476186198078548 12.338674367229025 11.283071180024894
Mg 8.863370917689371 12.072268495607938 15.194028881655727
Mg 10.838382965931476 13.842781265094267 13.459850736498687
Mg 14.745329330289362 13.754825830021298 9.667107893788243
Mg 9.94030947813121 10.891367431564422 12.583446015332752
Mg 12.942795557099997 15.492239379344293 11.645418230872266
Mg 11.179822977937206 17.243463808906387 13.487148650630381
Mg 11.176620718591339 9.750650279877307 9.983752101794645
Mg 11.196391365201585 11.639609997842387 7.6347776894106785
Mg 7.100885985228411 14.424395929768899 15.288979748558656
Mg 8.346410257282557 16.37439195119831 13.465506094327505
Mg 11.832240438286911 14.326589368499077 8.941701302322237
Mg 7.8973695599955445 13.460361057331424 12.501360690044836
Mg 9.922629121270857 15.4843954191977 11.077097855469159
Mg 9.603757423630075 12.58045443173685 10.070039000453333
