45
Energy = -44.350608 eV
Mg 14.44096806995265 14.885857386056056 15.98756112307382
Mg 16.000912882957827 12.761120565620406 14.412105516525266
Mg 14.747586095992135 12.137256440784276 17.19037603295429
Mg 17.38736014586188 13.452385252242765 11.728697951648071
Mg 12.217908538761755 13.815487189590591 17.956440739118918
Mg 15.251898220735429 9.76003186798571 15.43511786249262
Mg 16.125570071690678 15.825650285335458 13.037034715472947
Mg 13.625245664804552 17.209047915844565 14.118976420382776
Mg 16.722026910758505 10.60553486538302 12.316071134781247
Mg 11.496155743102074 15.477251012408408 15.3784237983734
Mg 13.564048631459912 14.193972137606393 13.093123665381706
Mg 12.322501429330607 12.383243381892273 15.351399682353122
Mg 12.730150769875673 9.815743943396228 17.17642028677468
Mg 15.004909572503196 8.096331532730744 12.871499498990604
Mg 10.268470547996827 11.442787819271281 17.65261170337677
Mg 17.006748700850792 11.518844552706055 9.318972711797809
Mg 16.064481681585022 15.527092722847641 9.975340480419495
Mg 12.646424687990395 8.065481731177192 14.68481560392436
Mg 9.33593485550125 14.152796278572964 16.857172656684273
Mg 13.778570896512731 11.00308483708324 13.060621611323032
Mg 13.774885341111556 17.109199117146755 11.160126706733948
Mg 11.021123809472659 16.53342601982011 12.607288828518122
Mg 15.463709120317958 13.661663497795537 7.6824671916286835
Mg 9.875449138280802 8.957173687720603 15.96382988115938
Mg 8.434733780997044 14.831427868503164 13.990676853537515
Mg 14.59729848049567 12.743029627455472 10.575048300765243
Mg 9.991546539727079 7.45876504587489 13.279329094202362
Mg 14.653676335744303 9.624900573497026 10.248911348806365
Mg 13.46309061878444 15.900400338346033 8.227312282907137
Mg 10.806957730449042 10.430781755232713 13.518365123296274
Mg 12.247152727906741 8.404764345881645 11.547304363230655
Mg 12.069628867182052 14.4700060320083 10.479259824414608
Mg 11.09271679209248 17.256302755401244 9.679664762500922
Mg 8.527082919466197 11.896415690018044 15.11462317454768
Mg 14.616847146105384 10.803301171166654 7.537938358009798
Mg 11.854080774961414 11.534023002476529 10.927529774388125
Mg 10.738089907881749 13.39380466335224 13.01251910558957
Mg 12.436481248786 12.80416568522211 7.8083188475356415
Mg 7.865905107561424 9.495109222956374 13.458387110543095
Mg 11.866328756812749 9.843018217477216 8.560221483241934
Mg 9.038607062549024 14.91991858194207 10.793094070268639
Mg 9.465244027563815 9.545671856168719 10.788086904486972
Mg 10.368764843071594 14.968976162611995 7.957889364492066
Mg 8.18385559266925 12.137929761877068 11.983114900854048
Mg 9.580871452429934 12.274358499900886 9.113014067763265
