45
Energy = -43.06316924 eV
Mg 10.301808260610832 12.124184146270784 18.65008815001478
Mg 9.701028640168778 15.64280478696056 11.958046272455602
Mg 8.134595300431785 13.820246993220412 17.565599062994806
Mg 13.299707440962244 9.62758656610104 7.731930974470298
Mg 11.120913733937666 14.377715381561297 16.70157104172875
Mg 9.639124881625753 12.049587395005997 15.38628175594958
Mg 7.1659350187005115 10.335928787788744 14.181779966210284
Mg 13.996569270075438 14.40214089104302 15.881582787934217
Mg 13.367176319318208 17.092681530996984 8.615769809818753
Mg 14.494061588416487 13.196995784650486 13.17175374624684
Mg 9.680916686998808 10.572348861944537 12.531863128168505
Mg 12.885022301054544 14.385010393057128 10.860214902102259
Mg 14.960090139385574 12.139209888703661 7.265668318879867
Mg 12.378633274363015 10.859916563670552 14.811479723417786
Mg 14.79891485820317 9.89069710338716 13.053803149023627
Mg 14.889187624295122 11.885916821571712 10.406828611110452
Mg 12.18193962554701 12.259327453264943 8.70838987557265
Mg 8.700386539099673 15.063009628294827 14.835801384084236
Mg 11.951236374525948 8.491929212501518 12.688045590020092
Mg 9.817735028399133 8.882702452825052 15.01026904289966
Mg 12.438154030967425 11.422992982453867 11.767378519172524
Mg 14.884795808087807 16.74386322523107 11.249504374795713
Mg 10.70906297193869 15.530357752917478 9.029750918059296
Mg 9.97210269423795 12.905637685485187 10.545155577921488
Mg 15.964651515789164 15.88434092709814 13.954749939159464
Mg 17.5301016555148 12.115987114676704 9.191593465501498
Mg 13.034086153841889 12.10742157549182 17.670140738289465
Mg 11.117670172072577 9.586331360683166 9.85978978717475
Mg 17.061891049920973 9.65154995679513 11.031095075398108
Mg 7.974501842082793 10.484717610573343 17.156524862642993
Mg 16.787729971741044 14.279549129566124 11.3942465716965
Mg 11.263635600679502 9.633626912424697 17.476461556955314
Mg 15.351197783789724 14.709635242358754 8.889463201479023
Mg 7.89071224471305 13.04953059297543 12.812576849814182
Mg 18.754596802016756 14.478514673826714 13.619908441375191
Mg 17.265673871016773 11.782794424167504 13.179015931504575
Mg 14.118268131285573 8.69016994631534 10.416552376349989
Mg 11.864335178230693 17.526991588968954 11.072958157091247
Mg 12.877654026422517 16.102034134510895 13.54392066385195
Mg 15.268648752226495 11.387850992173561 15.630212107266189
Mg 11.338681084527305 13.568711052090562 13.527981940430081
Mg 12.93915914573699 14.630967524971757 7.109783627751914
Mg 17.028692973968965 13.70454145777723 15.80307066760151
Mg 6.444066179086869 12.898538585465497 15.417451038224977
Mg 16.2259881869769 9.594443641173063 8.204987050382835
