40
Energy = -38.20065462 eV
Mg 8.100583242399143 13.369013199856122 13.959794980204286
Mg 12.68613652568826 13.997458844349518 15.804363640193268
Mg 10.345976097737966 12.017953094947947 15.672663835511834
Mg 8.628710663583023 10.3140073049502 13.881189195429906
Mg 9.859313430148658 15.02634567554355 15.805859077863312
Mg 8.225470464123802 11.955648850462376 11.330492264746875
Mg 13.096217975993927 11.201398693155182 17.02188630662356
Mg 15.528012821514217 12.918822458739701 15.371358601954196
Mg 11.190901201499635 9.219658059034314 15.022142397287752
Mg 8.478540975958188 16.34268112697885 13.60463109284106
Mg 14.0419790497292 14.535177532168891 13.200344768798226
Mg 11.039778890598223 13.243091528518029 12.866772966608718
Mg 13.241182321154254 11.422949995285645 13.930046339010968
Mg 7.916474122176143 8.968232275038835 11.26273093307122
Mg 11.011855824032684 10.390730231220035 11.945429643462068
Mg 11.496738393316532 16.221473023004524 13.55732212203505
Mg 16.01006797162049 10.48011992242997 16.883015640385874
Mg 14.140701616661921 8.550097584559376 15.686517645235512
Mg 12.27735254059706 6.484822899302136 14.431300570853564
Mg 9.255275075311248 14.86944172542876 11.073566959508225
Mg 12.072818993644951 12.897480587449792 6.19666025341031
Mg 16.323061494324428 12.827614758004147 9.26070461470915
Mg 14.033905948189382 11.356567101612102 8.051012228043016
Mg 11.102546379905416 10.26094796729811 7.394652410251439
Mg 13.753799322861022 14.311165983411025 8.296385305090393
Mg 9.230851235279546 12.455886900974242 6.429745448398022
Mg 15.60492594194019 10.242022244432082 10.809290498445474
Mg 16.409657619347282 12.800714918910764 12.325577253735467
Mg 12.86057389330608 9.299013031786725 9.809072115530816
Mg 10.510077681522805 14.860932173039235 7.984129724871618
Mg 15.383153039239684 15.196238447229188 10.668728206669437
Mg 10.868118125113085 12.350971964687941 9.627422926611887
Mg 13.491220158911643 12.38574737069402 11.015157100572702
Mg 8.232596676193271 10.533233134124862 8.546344114916918
Mg 10.088432657981448 8.257442532983086 9.49095647431793
Mg 12.265086880931886 15.25935054089306 10.708330268466579
Mg 16.10632020878493 10.169629991140743 13.8833523720089
Mg 13.601946181185573 8.623635795207255 12.617988997978497
Mg 10.332351411432201 7.492760570195719 12.47244514034109
Mg 7.778603893688894 13.510836908580412 8.721932511631984
