46
Energy = -45.14885455 eV
Mg 14.78778013583814 13.220884995656462 17.023118427089095
Mg 15.884167808094478 17.453633921035827 13.890594206317983
Mg 16.212719938380687 12.120150307932855 14.624462641824959
Mg 13.920616346953457 15.822529694502032 15.662776515709066
Mg 14.863574813892576 14.431418383975851 12.986144116670811
Mg 12.92520599529509 18.211052180662453 13.690715547543235
Mg 12.602494486051755 11.308570666651383 17.978445525357888
Mg 16.86245523718571 14.946834606469 15.283282182058937
Mg 11.083056902958386 16.80975401207765 15.81500271449525
Mg 11.77311241021253 14.140028434851315 17.219814970577392
Mg 15.570900406904078 9.824294738977077 12.801589259957371
Mg 10.345607430989284 11.446928289678972 15.88340874110352
Mg 13.78912304002196 12.075220613678843 11.673668677168118
Mg 9.787302435723626 14.21353704486783 14.846906441672532
Mg 17.131108870841818 12.400447190244353 11.85384625566668
Mg 14.161718312219081 10.230803954384273 15.563164740030725
Mg 14.642602946498416 16.958721992290304 11.2251330788113
Mg 9.652255316342067 17.019805110484853 13.096447207295789
Mg 11.675750826169844 8.78723148005235 16.328631362752795
Mg 11.717387196308344 17.68085881931564 10.926204103679428
Mg 12.811296958790868 12.81296223588277 14.586345337630489
Mg 12.09291328831258 15.363288753659186 13.067943026989042
Mg 17.424676420237507 15.545233054461288 12.106581958566148
Mg 10.961223584337766 8.643464011539816 6.416935214432745
Mg 11.604838487753684 11.419173221528112 6.48990797687955
Mg 10.945236875555903 8.007053219346318 9.273044624186355
Mg 9.205244935711656 10.470384375008214 8.253138230312224
Mg 13.522604745104658 9.443549949194008 7.919129331946043
Mg 10.543954241254633 13.35296398609883 8.49650186817825
Mg 10.999703346734949 7.321258951375828 12.11639030395299
Mg 13.726350453993001 12.536613151025467 8.291238309397038
Mg 8.28339481241102 12.484563050709816 10.380827353541717
Mg 9.066708603708838 9.599867513365641 11.290058869024833
Mg 13.61976683526307 8.526286215024758 10.873030113153606
Mg 9.306012207105166 8.828988851871664 14.305183893416535
Mg 11.667779787025252 10.845699652565466 9.975138240954458
Mg 8.440979275011887 11.66753552492649 13.48720138118674
Mg 15.738981535799025 10.699844219604156 9.717200283548388
Mg 13.494945524983395 7.677677979073012 13.894140050008907
Mg 12.753545882617034 14.726692328677727 10.169009576897182
Mg 7.888664272614806 14.54484166964929 12.623967138055425
Mg 10.976523482291729 6.319703465005969 14.899116541280364
Mg 9.690544787666926 15.449951804474987 10.458935284270098
Mg 11.848902468127072 10.190595775803658 13.174230589717734
Mg 10.817209531755125 12.922128222347482 12.052658836643902
Mg 15.767649300139446 14.085564881178339 9.897381451232729
