40
Energy = -37.76482816 eV
Mg 15.09655043505312 10.597658801510685 9.48905607333355
Mg 12.193324722120078 11.709481712919967 10.023496516645265
Mg 14.902473540333025 13.505434501399696 10.110980836649608
Mg 17.177166153461485 14.670501952276357 11.867102840548506
Mg 10.014272331736066 10.984787842145947 7.575827581277853
Mg 12.183804142457689 14.943710157154069 10.075824432112421
Mg 12.618163755143584 9.501225076875846 7.773964050463423
Mg 14.791617575502782 16.58554811386149 10.383536592382743
Mg 9.655147930643318 13.303868851432675 9.506996401450685
Mg 7.673398312026643 10.808381636630784 9.378558395131684
Mg 17.3259951809203 17.57733456555451 11.833652051912823
Mg 9.441103975427314 15.441188951799234 11.663679808434079
Mg 13.253776538790616 8.482970575157252 10.552288393105988
Mg 7.203494825351073 13.342887736602528 11.189854369932004
Mg 12.013162244951644 16.953355604863432 12.328788233205431
Mg 14.180832713874342 14.749885931042657 12.80159088789008
Mg 14.687824712943895 18.085889946383624 12.973404519146412
Mg 10.201920094373557 9.054009808459405 9.817305777912253
Mg 16.522695857234535 16.21379368396446 14.519604454545505
Mg 11.431327689862893 13.24708379452047 12.580078864147458
Mg 16.996897507768317 11.724370970158274 11.75259442399651
Mg 13.467462227375195 16.563771418476364 15.225442093557785
Mg 8.444962790579217 13.616969812863553 13.950020580825514
Mg 14.07392615782111 11.544195322094183 12.58428273106234
Mg 11.633285383349921 9.775826878673689 12.713951522363653
Mg 9.154827174700992 11.234541799798698 11.992045826601299
Mg 16.328652815095563 13.122951611571935 14.483578512607934
Mg 16.200766530898548 8.855516439164157 11.65948804770422
Mg 10.708343661453556 15.522594743807641 14.67408850431263
Mg 13.05806666859762 13.214756074409449 15.171158455532
Mg 10.400655944581414 11.382430532210538 14.932269797407594
Mg 14.091536810911867 8.134005732283677 13.473226702287135
Mg 16.108722901128793 10.120350531574232 14.506720247326616
Mg 15.224365744606562 14.710954713893862 16.905006223944486
Mg 9.63730657537012 13.608856152747137 16.783358714769616
Mg 13.104862096665407 10.059353581964167 15.47824045188664
Mg 15.127480875473672 11.630504673426888 17.046454064581958
Mg 12.205037479953656 14.991955723365418 17.556781880298384
Mg 11.944705758359188 11.769297810856889 17.73009031666288
Mg 13.969406440729404 13.259145656171606 19.285570975815425
