42
Energy = -39.45335028 eV
Mg 8.963894448049286 17.33218791504577 12.307418978345066
Mg 10.596584750548118 15.291439373024218 16.86496898606203
Mg 8.343177330818477 15.835762969073516 14.86462645005753
Mg 11.772323575658248 12.476137152408404 16.87755813172783
Mg 13.913992252699876 11.185168593341018 18.659811323748684
Mg 9.395644172872428 13.034591407372803 15.033542564753503
Mg 7.698992395616685 13.939128974562001 12.61894565690803
Mg 10.36857480255698 10.079452636098951 15.146126266082547
Mg 10.67653049658336 17.566832920057678 14.930590885343538
Mg 10.64690244527702 17.31988521670171 9.833457734472999
Mg 13.702641197032662 17.679508867559235 15.148889451371703
Mg 14.745520691100118 13.57703329674821 17.126911379454338
Mg 8.277123907386095 10.96780744934178 13.058506532303308
Mg 12.84847957218781 14.74885143557367 14.924418317158196
Mg 10.73824332539945 14.798046113766564 12.651869484548214
Mg 8.675057548909733 15.176164760322488 10.087846720405954
Mg 13.324627754466361 10.156912644343487 15.807203877302497
Mg 11.979102060154734 12.087739277739313 13.480402902454987
Mg 9.643379795523057 12.352820313915077 10.82912998772747
Mg 10.747903567676069 9.577921618680875 12.03076148296458
Mg 15.891678133431343 15.547009186860263 15.160441882777212
Mg 15.0001539665719 12.288142959056932 14.289022275316514
Mg 12.215714217742352 17.568991838622942 12.433499044552226
Mg 11.556831007801646 14.386137034550208 9.575133239209258
Mg 12.250327441885323 7.913207495345407 14.092698364003326
Mg 15.525651132801539 8.503064214424038 14.690137102349977
Mg 15.285716179750054 17.010940550474167 12.648463967104336
Mg 13.898520077044992 14.254843258683387 12.08265064581824
Mg 16.21952461564694 10.66489735933127 16.87441810561311
Mg 12.642804388844084 11.688124925320748 10.427876132568331
Mg 17.60157191674773 13.255357927129529 15.962345901348664
Mg 13.649326135912068 16.622317494382553 9.97161793264321
Mg 13.828030245489641 9.757668956800899 12.4779490938542
Mg 17.686869822785408 10.676271040525513 14.22694833903867
Mg 16.48487720380295 15.741621331741882 10.254829520131121
Mg 14.583731002370616 13.694170135060691 9.076482692687463
Mg 17.0877081985657 14.069791409785127 12.734131347773143
Mg 15.655784632144826 11.724283082401223 11.18731395091999
Mg 19.73239939287491 12.97198953289817 13.84208377531209
Mg 16.731282431697508 8.983158986029114 11.898310537896464
Mg 17.672938305835178 13.162626794170597 9.486182557439898
Mg 18.752604872139695 11.315532193677662 11.467923226484867
