44
Energy = -42.57612027 eV
Mg 9.598502828605081 10.761815847037871 7.23214339889291
Mg 8.147203421975984 8.153293362504442 8.381989723365193
Mg 11.117162529813909 8.16688789497639 8.176152952810197
Mg 12.406647411705604 10.901321008431465 8.43620560387263
Mg 7.008290538445764 10.823665284550216 8.769560166494358
Mg 11.067628813139697 13.40340389804055 7.1573877151391265
Mg 13.440268007536748 13.790749431942311 9.091759123024326
Mg 8.28041993451841 13.526357274359741 8.194299961250305
Mg 15.161421528022867 11.278948838510857 9.52148957020171
Mg 9.95753572951801 10.330887177248425 10.300011723315704
Mg 12.57083469671105 8.234183895602898 10.877813661808327
Mg 13.64171279753555 16.37045288231818 10.673553845716315
Mg 11.007871605932369 15.889117661041771 9.000549823798961
Mg 7.376221604255868 9.143580602128157 11.312033753455015
Mg 16.095467101437034 14.25315632305038 10.388313895144831
Mg 9.726574072148516 7.03401576716388 10.584925766841938
Mg 8.204611820991817 15.434423906760708 10.470463201418298
Mg 12.789767253676288 11.129225563688202 11.47785999425497
Mg 7.604247778890082 12.448624567639737 11.153664603993525
Mg 12.865250230556486 14.014334386037154 12.33791485378313
Mg 17.7442123535818 11.434471362450452 10.842257210186533
Mg 10.613532678333797 13.225607695698102 10.341694089672517
Mg 18.16557937368453 13.706938926909956 12.701179482329103
Mg 15.318500595233486 12.351610700155595 12.705946142365201
Mg 10.011612179906347 8.781595277873508 13.002416943911276
Mg 17.954620000181492 10.848555654033293 13.731694193972228
Mg 15.746296417721373 15.409838995974997 13.299152176580197
Mg 10.68765923191709 16.167010358207566 11.999087459066837
Mg 15.399021894845074 9.425902705533678 12.141641418196292
Mg 10.412095267495936 11.945862116354958 13.085149720197023
Mg 13.170581835284041 16.760521342361844 13.7968239878158
Mg 7.70365350971755 10.912407973553252 13.806396845042594
Mg 8.494101788890607 14.322342204064855 13.25549061154429
Mg 13.02717357687788 11.983815991707834 14.611592640438426
Mg 16.572738423415316 13.117646395013217 15.339533534770517
Mg 13.978380960069915 14.694883916579881 15.879657713795606
Mg 12.885206172356186 8.934285399650896 13.967016451142081
Mg 11.103466377958542 14.638845128689187 14.856900118754059
Mg 15.521214013375792 10.127892554101319 15.286665138386732
Mg 10.419788541838729 10.148952247112348 15.651855414064363
Mg 9.05047235586402 12.762860453682128 15.856398663887296
Mg 11.685337712231517 12.654929486600542 17.253773380504825
Mg 14.681783585997294 12.187864329983235 17.499510644011387
Mg 13.045685823058585 9.827267585928233 17.010427056037084
