55
Energy = -56.12691244 eV
Mg 14.307273818602154 8.361437267490322 8.282900209467904
Mg 15.891484328191824 13.355427631582717 14.103675664670034
Mg 10.444550166702067 10.919984176532296 14.278968856003283
Mg 7.099969620223036 13.256070295214455 14.526705636917947
Mg 9.942187353091589 9.697120646494513 17.092092057698938
Mg 14.58068315153346 11.403146929765686 7.3749705516455935
Mg 16.233335122759136 10.380824350119429 12.98836768299784
Mg 12.183862898883818 11.740583267900114 16.946329451469044
Mg 11.49277382949966 14.735704936016708 16.33423703064481
Mg 10.179619065066015 9.116351510873704 8.59968147563709
Mg 14.167670510107515 16.2117921689657 9.109290008430339
Mg 10.771681370177394 16.92905766796852 14.280880811430668
Mg 11.77624882475967 15.156138917508171 6.85218768380097
Mg 9.554628890862775 6.2425628352717455 12.069159522510091
Mg 7.789656094364186 8.361826206038703 10.378322809656815
Mg 14.768951928680456 10.863185052852547 15.538360728542072
Mg 7.864751447953273 13.835158314232343 11.46241350229247
Mg 10.388526053775562 9.134558740645 11.761842984123446
Mg 12.923092284940925 13.376152756588272 9.063738592412331
Mg 11.762726059841704 6.942415814181035 7.206259560738404
Mg 16.048970981489056 13.717305040945734 9.088735631392417
Mg 7.22840955881893 7.958175832111484 13.29818325025292
Mg 14.381496535490916 13.8136803960132 16.664006611332248
Mg 13.641808528643312 15.830950509863117 14.320494446204071
Mg 9.668847493490535 16.472625282062193 11.51623975563413
Mg 7.566186820933401 10.199698041461021 15.357485017016616
Mg 12.729415687890182 10.302019689715504 9.810070580194944
Mg 12.125256005829545 7.098533120482839 10.253628802032841
Mg 9.937073949143693 14.320050509470365 9.319557266799622
Mg 8.428637119044213 11.488313473414776 9.521047510169309
Mg 10.775868724281219 11.9146295520142 7.650260578336379
Mg 13.05764659237983 10.035321933337087 12.925092136149274
Mg 9.223464868528625 12.598533676972217 16.655419165138326
Mg 9.511235024720232 6.121325795179124 9.117177088499297
Mg 7.581636121653448 16.236841363384432 13.614543072818648
Mg 9.836909202159251 7.8746181381791285 14.664786336160022
Mg 12.777784614890441 12.845562921797951 14.055055525500219
Mg 14.840590055856065 8.016348907056502 11.373147040310949
Mg 17.390333721607465 12.863165678733646 11.541091500184754
Mg 12.546444379776274 8.768383274983021 15.805794218455134
Mg 14.252880259276582 12.391343613170864 11.527977934986534
Mg 15.042650177427143 7.896980833376952 14.400848729578088
Mg 12.214469367678731 14.761203806963847 11.604939671439327
Mg 11.396822839600778 17.045342424990892 9.146593164076462
Mg 12.785995475746233 17.581620051828217 11.840276611703421
Mg 8.57612824305567 15.48495810487261 16.181005044163108
Mg 10.013503074100356 13.958587993854279 13.67444260056671
Mg 12.430388572544187 6.845406924047233 13.300942183666223
Mg 16.038991749607096 10.507466228484557 9.903158351057517
Mg 12.695401435122339 12.604993476125928 5.364982768918081
Mg 7.881922221913697 10.941170626565517 12.407836136344809
Mg 14.650632143731462 14.433844858202875 6.56544057811975
Mg 12.403643596115405 9.666030724099507 6.189768712713497
Mg 10.921311546478337 12.089430609644946 11.387795018887704
Mg 15.316539671456711 15.339006280849489 11.74476132060412
