55
Energy = -55.90091056 eV
Mg 7.500028542039339 10.812470337344807 9.617072461485725
Mg 17.15397778641661 13.57464733993663 10.887225532839341
Mg 14.461289137691473 9.297843230595708 14.015562360363417
Mg 9.893539749674874 6.308576578797222 10.5297338288569
Mg 14.598093326368758 12.756852263878118 13.724021836104734
Mg 9.33055791653012 9.943657318775857 16.260346172398595
Mg 12.184596368564675 11.84097231689504 8.970446509684358
Mg 11.18876916372837 14.117983697731876 16.24530200827303
Mg 14.674553366916854 8.578461773721395 10.943056508688006
Mg 9.988451353173417 11.994107722618319 11.133656498943628
Mg 9.550273912522336 10.64237628321343 7.523388663199537
Mg 10.169176751845281 9.79066994726436 13.103258245032302
Mg 6.748431637108207 11.799919330465517 15.518337084462296
Mg 7.187601973679391 11.442927104386195 12.504912692816388
Mg 7.228702904886791 9.026360268286899 14.378884460252882
Mg 12.696154282375145 17.508909710284442 9.23786193083713
Mg 10.501134322576233 16.063434266485665 7.7214732647757485
Mg 16.148243609180398 13.868342688122716 8.105073271602178
Mg 10.229349799072931 17.124264325986132 11.038810787804312
Mg 12.214266419685238 7.559598520764973 12.398517265754093
Mg 14.097325237909722 13.633740555635676 10.844956670156352
Mg 11.809789183012223 8.395384316221442 15.384727275880424
Mg 9.407779320017355 7.000507660356128 13.6680361885759
Mg 11.84632357979362 13.70788419519296 12.978463392951904
Mg 16.424838354794836 10.839925621766207 12.319905462024607
Mg 15.366630671020523 11.258144067397055 9.480242279722727
Mg 8.163579213423626 14.813536826391983 15.326308605799591
Mg 12.198088402074037 11.365896322793935 14.885449349651084
Mg 12.863057155883688 10.955862017020769 11.870957304281221
Mg 14.009779733457858 9.903497932308404 17.043919478625813
Mg 8.799397235671545 12.717234687904995 17.455832244995317
Mg 9.47280213332864 12.418007426040312 14.229500729030502
Mg 17.929213708639402 13.186590241840198 13.72726336580043
Mg 15.926132321038986 15.46598247297032 12.963974513578167
Mg 15.44894734094087 16.19618188751852 9.978581998907144
Mg 13.972441348869426 12.974276591993071 17.008889528779108
Mg 13.587601783446672 15.412337222971399 14.990863501834259
Mg 13.122730342475991 16.474872306697375 12.100054599269193
Mg 10.991962191150115 13.253375829282795 6.529084003006105
Mg 10.866634655053245 9.285938277509207 10.098786295220675
Mg 10.584912416981634 16.25139008305625 14.01605840210692
Mg 10.954219747015623 7.727932698864411 7.323877869803328
Mg 7.844240887297285 8.457240371392405 11.488488398229432
Mg 16.367127913287266 11.270512130951197 15.677573980423267
Mg 13.554723549981725 9.162349862125414 8.143180243016646
Mg 13.39922305248735 14.9040612793605 7.787916847684706
Mg 11.477199755639955 11.354334936931327 17.84279522430194
Mg 11.949920329874407 10.372351709113342 5.942987154663501
Mg 11.333429328447442 14.548615196073978 10.172468944758725
Mg 16.331709197538757 14.372278861136188 15.862743592321287
Mg 14.196029202971546 12.158469479931698 6.670896669484029
Mg 8.751465834398845 14.579795653811907 12.098831339354307
Mg 8.300059717092612 8.070885852613438 8.594201085188214
Mg 12.698864058923226 6.5308888605141515 9.475739160093502
Mg 8.874201104446437 13.496913871178826 8.729075248727828
