50
Energy = -48.82091829 eV
Mg 14.505060777969044 13.046582691761799 6.857860368870901
Mg 16.43792141333473 15.178421397845456 7.134616795250018
Mg 13.644353621744918 16.024536872057077 8.214792080833979
Mg 13.961778564509762 10.764365692653435 8.875310068168538
Mg 12.242092871601361 13.515530530698314 8.854764057497327
Mg 17.05046756040463 12.273118662630893 8.407656100626868
Mg 10.623808116440355 11.119256420730654 8.87429227273746
Mg 18.402939383290295 14.935156565337197 9.257884211564884
Mg 10.821106403917685 16.38467101422083 9.734439312966998
Mg 15.255445758613826 13.925497264939546 9.996094111609288
Mg 16.058926762746324 16.98399220893387 9.692501261410614
Mg 9.504835450836952 13.622518778653982 10.205471081691206
Mg 13.309452562716874 17.908420242886812 10.612718388308982
Mg 16.08230904726325 10.949547676489216 11.102579675129718
Mg 12.810958913072 11.66967716271428 11.52624390575188
Mg 17.99326247823377 13.156471681194224 11.636812195059612
Mg 11.55626575919931 8.760011149671755 10.244085346227493
Mg 9.794146018643278 10.88166789528707 11.814791829698741
Mg 11.674712541768669 17.163728822652825 13.105608845762399
Mg 12.91340681445004 14.947657691695149 11.394619424561759
Mg 9.03156290529996 15.946082527928127 12.136089723862995
Mg 17.807291551533904 16.122909352109144 11.917763651660486
Mg 14.217861269511939 8.597078635224273 11.239357490851338
Mg 8.088821485538821 13.095847982400445 13.649106949451562
Mg 14.985283648345279 13.226836845738307 12.881036618486617
Mg 10.832849184095213 13.608911174225755 12.915466582974373
Mg 14.981860518978538 16.524914156488563 12.908659153956549
Mg 17.10430563095388 14.745404812638304 14.464994774500854
Mg 13.026005335151718 14.762648542219424 14.55097247985643
Mg 17.371443309577174 11.658801284845689 14.257403177554343
Mg 9.238249749548313 10.403276130124404 14.63050525031289
Mg 14.741118537534922 10.144890926147928 13.73828324902479
Mg 11.836480038014672 9.078235148083289 13.394063266313976
Mg 14.927938077102425 12.514201494349324 15.81492968380411
Mg 12.211078788759988 11.747171605665576 14.70718869733699
Mg 12.280777792308909 16.997442331115508 16.365739798562693
Mg 9.854705421207287 15.66619216796944 15.082741922182466
Mg 9.602635694660064 12.960320237467005 16.29390286068136
Mg 15.123880887389642 15.577409015417686 16.66795630275527
Mg 17.40890309494505 13.411854051513387 17.188013012911107
Mg 15.98335067689238 10.924075604928358 18.2037396735221
Mg 13.749116396957223 9.68091902552925 16.564522206009606
Mg 10.910297732826233 10.30933467509878 17.143645325495918
Mg 12.537970484354847 13.471745890211865 17.271583495258028
Mg 15.05324022005282 13.654527789124733 19.14114713977188
Mg 10.452598371007543 15.333970134315969 18.272770129748384
Mg 10.234430974500029 12.326071411826337 19.289267948075214
Mg 13.098698880116451 11.150120403561058 19.199947985610855
Mg 13.351613655211588 16.221398359410326 19.018113571403276
Mg 12.290755813346744 13.904954807745908 20.52632349081399
