54
Energy = -51.93635459 eV
Mg 11.797443236804991 8.192729761031721 13.156176869905655
Mg 11.1144610206452 8.83012485210554 16.021651029836185
Mg 14.3713727083201 9.456139407064432 12.252246762086127
Mg 9.75085774525491 8.97543245239574 11.027574136841483
Mg 13.68519182888174 9.893940384469408 15.073143392584905
Mg 9.218416706286392 9.786583881949133 13.866568294371401
Mg 12.59603096193473 10.45914509768292 17.94890746254869
Mg 16.67516114810739 10.043731927930004 14.53437277677119
Mg 12.220175504727091 10.144191201202275 10.016817672602235
Mg 15.49684216036927 10.861152270693047 17.296511083939354
Mg 15.191806579050388 10.033786395573765 9.42252241717954
Mg 11.828083985155109 11.362955318313782 12.900112035374828
Mg 13.98100433268335 12.689136136812667 19.59722490924992
Mg 17.81334928901444 12.551883928631861 16.30187330245743
Mg 9.628659801235605 11.369307387724685 16.741638074972983
Mg 17.069005807994692 12.687838344992592 19.234304299133974
Mg 16.853588920841062 11.044798860175758 11.703973698767026
Mg 14.045626280197794 12.560802071969944 11.189797104972246
Mg 11.230801373711289 13.150237053505926 10.165540979832782
Mg 18.633963122539683 12.710429714757945 13.574113077374234
Mg 8.825115377042822 11.760065105028348 11.401911203297134
Mg 12.444781691015935 12.555097410731896 15.723066804772444
Mg 7.090102827534365 11.447577473344285 15.053050917623418
Mg 11.188332545198662 13.20382880226046 18.438684175092753
Mg 19.187989879871417 12.564944202481731 10.626549123396252
Mg 13.424104845263408 12.062510628461762 8.084324616526844
Mg 15.102756720093081 12.541372183189386 14.095402402870258
Mg 9.668954970367816 12.981891827378517 14.152795160853017
Mg 18.58476646661002 15.122856257695764 9.251944863338116
Mg 6.837807372279576 13.538689010221873 12.977027979521939
Mg 15.255837688574138 13.841714639888838 16.97034107697349
Mg 16.681014476826203 14.154262664108682 11.71954261290968
Mg 16.27430685097385 12.950158800204235 9.003265043476006
Mg 13.642403089149257 15.110813983579535 14.70767470690535
Mg 13.482040068098526 14.804756023458095 8.972750589201116
Mg 15.7474263943682 15.336478001234171 19.539700723846124
Mg 11.327642997145537 15.182637155152202 12.796899991576794
Mg 13.02796441290732 15.513161283706047 18.179608469053267
Mg 8.738563661374767 14.789384256787077 11.016115023978912
Mg 19.74168840002062 15.239685422737717 12.06062092355652
Mg 14.117897284383087 15.718333948428072 11.788750167210026
Mg 10.782560183536841 15.19941018177307 15.970621202020796
Mg 11.015809921731528 16.270942036047746 9.987907964968695
Mg 8.525909817829088 15.772675120472185 13.963069096344562
Mg 16.803376496176085 15.170417411444278 14.570730258487245
Mg 17.29481666051923 17.052896362542075 12.088905351644584
Mg 15.537479386728222 16.83926579893791 16.893000880077555
Mg 15.96088033388314 16.422184735393877 9.416677386272129
Mg 14.95799943066232 17.74447273385401 14.01568383980309
Mg 12.677155549854188 17.672100485596925 16.092984326342254
Mg 12.42108367111844 18.22697329959143 12.138678080516812
Mg 13.3655706379791 17.84352811340073 9.179726321371376
Mg 10.468668976647416 17.894748033634503 14.234631414735436
Mg 15.213672737995934 19.111840146506474 11.26374373564062
