53
Energy = -52.85457673 eV
Mg 17.059740232716713 8.27507674861785 14.400123446251708
Mg 14.905342095774136 9.290360840566263 16.18959488461742
Mg 14.252665336520348 7.683887495716243 13.525415004834985
Mg 17.376089628995093 11.06089557576314 15.621112363697586
Mg 15.846045474702185 11.769193158017 18.30651013746425
Mg 15.876502751232803 14.825251910896782 18.64995012162801
Mg 16.313832810149265 8.516161005722937 11.37697891902056
Mg 18.414900930743364 10.260876538858257 12.799057650788056
Mg 16.890038318388964 14.221250461501064 15.959406220992648
Mg 14.910055607199004 10.765772507431286 13.16673668555662
Mg 15.79785918733167 17.04778373211084 16.421493666578613
Mg 12.032533504640524 8.985116645584688 15.060188655007478
Mg 12.645666489329491 10.847522703806307 17.600838734535454
Mg 17.226221182588663 13.058713470566058 13.25170289963432
Mg 13.301170515938352 13.494590730774915 18.842599083358007
Mg 16.393148466086814 16.08414923336041 13.47962334997475
Mg 13.354416569419024 16.579560794346197 18.55750470696385
Mg 13.69637128435645 7.382839703196146 10.613161397904287
Mg 14.617621170831066 12.283380949245359 15.737016229217835
Mg 14.242428505555306 10.031948826007223 9.110166094867168
Mg 16.633597412410538 11.450098671175153 10.673162288499245
Mg 13.614786141304501 14.959068927236476 16.049482765084626
Mg 16.247459687059628 14.520185420394931 10.760960306563556
Mg 9.898716104802599 10.715858111293176 16.383948816516668
Mg 10.966551662126138 13.540161675777034 16.908244577250134
Mg 16.03145166247484 12.765554608324223 8.144869451112648
Mg 12.081964513471284 11.939233471717891 14.268800206442972
Mg 11.382800867322736 8.511841578217355 9.178060783289512
Mg 13.413099441110475 18.80204051786952 16.563292484711425
Mg 12.224737457479401 9.919163136907121 11.837148823322533
Mg 13.469917788139218 17.075050298659104 13.852775227806001
Mg 8.901138488787115 12.881427159709526 14.608234089885666
Mg 14.691753154084541 17.132644570528868 11.021717735912231
Mg 14.226682056724217 15.17534950450747 8.591717745503017
Mg 11.157994077853061 16.84854657948339 16.26980781729974
Mg 13.578749229298188 12.597534336172219 10.585916114132852
Mg 14.174709119632672 13.9399158143355 13.185196892326505
Mg 10.665188671053855 12.725044409203974 11.744977420742849
Mg 11.178041431112009 14.820422392982522 14.040995951002214
Mg 13.340112889509289 12.47284374311078 7.255703327426663
Mg 7.491224005590554 11.920493871326986 12.078658272445592
Mg 11.41697509679587 19.331059674184825 14.433529395282063
Mg 11.181956234821016 11.439835273584489 8.898952270280056
Mg 9.55820327483064 10.079224508529641 13.454468427323551
Mg 11.778915821120403 18.49527886094387 11.512213260562413
Mg 12.14991621493091 17.368385582746143 8.817606041622092
Mg 11.247832064903958 14.396044830124003 8.538829604324475
Mg 9.638010733719112 17.284254481914413 13.238233247194
Mg 8.269934602852008 14.771522553246674 12.323112801363514
Mg 8.584156359611988 13.285029323778694 9.589967953950444
Mg 9.067535859466505 10.066342943006637 10.4246238542627
Mg 12.250274496158596 15.355035400066411 11.30399006853826
Mg 9.609273554817891 16.373099402480012 10.200607432563107
