53
Energy = -52.74671507 eV
Mg 13.405706506175525 10.244765185062287 6.822405554471705
Mg 11.553027459333226 12.564330827020449 7.433987753068075
Mg 12.657080511818542 15.43721577824413 7.501654321830612
Mg 10.771475492848488 9.516660760749103 8.040858043678307
Mg 14.565003763396815 12.959644078697552 7.329941595928873
Mg 13.16293862283502 8.076361296387757 8.863886611516293
Mg 10.317671357126295 14.739275472955724 9.314494371482688
Mg 15.557674269002337 10.461698064818052 9.073451343551755
Mg 15.199955194461408 16.140154376223887 9.134664892231058
Mg 12.721678877536695 11.046944661043446 10.010380008182084
Mg 9.686347906852738 11.713413141713547 9.69281781506042
Mg 16.718984895167576 13.350495059059535 9.437682224224194
Mg 13.433797592625533 13.883839717093347 9.9543038580414
Mg 12.35790127017535 16.808707670472007 10.316176456537676
Mg 11.10904049972348 8.74653869430405 11.22934936424116
Mg 14.447412534360872 8.605664717140945 11.399387149261752
Mg 17.08980881040344 10.067568274199035 11.688547510912981
Mg 9.907625366957083 16.186408994112675 12.042429797138073
Mg 8.248668305210188 13.727557229133946 11.29273443239632
Mg 17.084081435216877 15.634781811170164 11.445864743666366
Mg 15.057897107721654 12.25899966175668 11.952473230561342
Mg 14.915662858716152 18.013525541858407 11.662074006485236
Mg 11.45284383047867 13.361204007878117 12.109601782862326
Mg 18.19416946381879 12.91675317906981 12.003915085839978
Mg 9.281461870047622 11.12564383358614 12.625889357757083
Mg 14.030373784939158 15.194782796379107 12.617881790349733
Mg 12.71140864327136 10.652231739506107 13.055449832384022
Mg 12.15461462620975 17.96141586264331 13.144772070417815
Mg 16.889136895977984 17.348120970106738 13.920344459573837
Mg 8.798601028752469 14.125529321437238 14.106931786852279
Mg 15.319830961597205 9.278269023556156 14.178644660085993
Mg 11.316901577678056 12.354218971846313 15.047852815353526
Mg 14.37358609056304 12.77024359978341 14.857074218762646
Mg 12.73159638774197 7.647769701713988 13.696911720141326
Mg 10.338903659207334 9.201450187373693 14.680130581680375
Mg 17.056840003602254 14.394684107937962 14.394817803822527
Mg 14.653313793532869 15.966478545008671 15.463829005107621
Mg 8.44341633521746 11.494629294006929 15.515602979089412
Mg 14.462004414977299 18.87947766087424 14.652524429576884
Mg 11.482662965905066 15.403443411207885 14.565342243251738
Mg 17.335495683895743 11.443825107754526 14.404226050586285
Mg 12.976286309495274 9.616094148776831 16.15979420491012
Mg 12.235387671864801 17.6504598435783 16.419871122535703
Mg 9.730806205670376 14.067180285585117 17.08878056007887
Mg 12.718657318665738 14.257219657942244 17.052187464501955
Mg 10.622789668988382 10.963859021589139 17.631660311372187
Mg 15.708434577075066 13.865473037023548 17.50890274703144
Mg 14.373390502432658 16.681294768414084 18.354405206067362
Mg 11.418292090082446 16.14659974102144 19.040580586836604
Mg 15.722491755022503 10.733585624002117 16.811918149008985
Mg 13.446830602634266 11.666979882185238 18.453239182563745
Mg 11.104033027196692 13.230581494081758 19.664618894436366
Mg 13.85395276613256 14.323905311253117 20.040688963030636
