5
Energy = -0.84949814 eV
Mg 8.179919054738795 8.896058025984932 10.973590700393096
Mg 11.244159587684921 9.140577169578515 6.802216257011452
Mg 9.292885261858949 7.776915015738998 8.52950728759489
Mg 10.160015588828744 10.607472216341408 9.40532333220046
Mg 8.869770075864393 11.474302605426965 12.207417738198906
