5
Energy = -1.94956104 eV
Mg 10.087419049996136 10.192470736101187 11.0214993962336
Mg 9.38251498778525 7.372147277335989 9.524010445309596
Mg 9.889069650239467 9.731732818349908 7.7681267971505035
Mg 7.666866654553029 7.526478928208929 6.733667782989209
Mg 7.339125532390455 9.541466398775077 9.317316800542095
