50
Energy = -49.53854379 eV
Mg 15.176728962218494 14.474146267940258 8.249072583073925
Mg 12.286667613106832 13.836978709055431 9.225695176580228
Mg 14.344259635495288 11.565111537260389 8.74784129994782
Mg 17.720705395872585 12.979243644309246 8.876998137673453
Mg 14.017642358058099 15.726963394712035 10.861807889915287
Mg 10.940277084264201 16.071638278562475 10.93047459651055
Mg 17.185444032318724 15.842877651872687 10.149945653964885
Mg 16.815823340438026 10.32540999794646 10.135982252141176
Mg 9.996580077349051 13.13967657659977 11.323840498843042
Mg 11.629377912925442 10.86957147803127 9.932643329877846
Mg 19.859982623544102 14.56872786045844 10.42124575125321
Mg 14.162091803930574 10.04930192880606 11.476389587271798
Mg 15.644875798909563 13.169070390167455 11.010265366423395
Mg 12.934819429901415 12.842946515740472 12.12682762534283
Mg 19.271853029802084 16.670986120863432 12.651784756013768
Mg 16.107516340788564 17.43142770970524 12.478710080297144
Mg 18.77188509834951 11.950721500970332 11.636584132606234
Mg 8.936969613375423 10.305938130054919 11.293158859528035
Mg 12.918126251700809 17.77368611459381 12.706011526924673
Mg 8.485590280527147 15.285196723408063 12.728398246984389
Mg 7.391351046444489 12.401039728091062 12.848616483977509
Mg 20.68830531616218 13.734312173032608 13.146770406779876
Mg 11.485123453731074 10.169839513777859 12.954254217747659
Mg 15.910989438190192 11.67712311495961 13.540667720926832
Mg 17.463882590971032 14.388624900511909 13.044369816683128
Mg 18.772663635304653 12.052139030905971 14.785279293127438
Mg 14.13194989743478 9.436893574511927 14.57201939340429
Mg 6.714065133514591 11.529883918872033 15.684399235274114
Mg 14.571510237725668 14.957746616340001 13.85595812039152
Mg 6.830395348572309 14.37126599509891 15.072392604372977
Mg 11.55742973803999 15.02679622675897 13.73159181796916
Mg 8.622415783176603 9.704965244832955 14.247657008021513
Mg 10.003903867824764 17.781225857805047 13.34290071084412
Mg 14.740418727344293 18.42313892868206 14.994411908012664
Mg 10.054902867064502 12.521573187355326 14.641973585833256
Mg 13.196843366176026 12.359890322015705 15.136457632613425
Mg 17.138095690653245 16.78757382742072 15.262834537465931
Mg 19.48503437489047 15.051979376115577 15.391918526412162
Mg 11.97093183034381 17.517491560293013 15.650073165467136
Mg 16.229362843627722 10.943200238997868 16.444505344749885
Mg 13.699539085392614 9.984280477089571 17.549100786327465
Mg 14.448879257810452 15.950920551684876 16.767812861792624
Mg 11.298732414685572 9.516793716228264 15.853664135640859
Mg 8.747253614288798 13.444025394731172 17.293576311909366
Mg 9.229584669944735 16.03686335458749 15.70172148670415
Mg 8.81688422535165 10.326976080928388 17.258728052304388
Mg 11.714911215349147 14.623064981917857 16.856751687507753
Mg 16.618069550040836 13.903729105237726 16.08970982633936
Mg 11.31815047931337 11.83851377105653 17.806126780014246
Mg 14.30011551934727 13.017420600693155 17.86899109180333
