50
Energy = -47.64976103 eV
Mg 18.58765063987127 13.946040828187925 16.216241687678156
Mg 18.427118850620573 12.40273399261857 13.759604946795024
Mg 17.266190993321835 10.452606488652618 11.816801030226438
Mg 17.093956735029423 13.381567565654334 11.243567720039856
Mg 17.013582318853658 10.114035863155921 15.014703149518127
Mg 16.5029771970042 14.75144888709361 14.122011322996123
Mg 15.835178351373147 8.54573913317071 9.993322566024077
Mg 16.85281418647892 15.064310483016047 18.321514733070508
Mg 16.76209313609638 16.277773262539437 11.164830867537646
Mg 17.686724482228797 16.93688059260739 15.924590812240782
Mg 15.28625460103003 11.474548536783194 9.575880716499606
Mg 15.427438508476156 8.406643002896384 13.198175996628507
Mg 15.781551394468156 12.499789608596082 16.438732771834506
Mg 15.039614195421597 12.019642434958534 13.278769048099079
Mg 16.174505841085946 19.262180450205456 10.963957160926489
Mg 15.71517753725794 17.720991229196027 13.724978376866
Mg 14.72253900433771 14.407787556513027 9.57988162250585
Mg 14.80660966437585 16.624445745486714 16.591003022898903
Mg 13.456614628464632 9.946426405890765 11.345599284512977
Mg 13.787187264435005 6.754723011184192 11.289689727738178
Mg 14.12443619271024 9.973882855328924 15.518614826482315
Mg 14.121913328998811 15.351368099318957 12.366349503113167
Mg 14.025290938482312 14.214871305403566 18.372805618952878
Mg 14.379432717223555 17.338317657913443 9.328841454521013
Mg 13.558231874760443 14.161172206192074 15.153432497804522
Mg 13.34226219310786 18.468691778511044 11.950039184820232
Mg 12.796041832727724 12.51344230091993 8.081331422506999
Mg 12.618663724021209 11.929285711916812 17.116835910385703
Mg 12.520987670644665 15.486745313592667 7.741937905852776
Mg 12.443170664978352 8.267321636274357 13.721193263204402
Mg 12.737575231507522 12.88991582199622 11.246302816850145
Mg 11.107158535325757 8.070648337717415 10.934091392416086
Mg 11.103622571535373 13.948127640007407 19.102079111426104
Mg 11.818682816302317 16.19996192971965 10.509748670603988
Mg 12.71872556888272 17.242489942357196 14.577993378064207
Mg 11.035252997470792 9.579716479991607 15.991255116739573
Mg 11.91630388547597 16.350378183192106 17.37524835697652
Mg 11.260755508911116 14.840955092126746 13.227460058807468
Mg 12.016482639423122 11.64909846471014 13.919070190067368
Mg 10.291262328251841 13.862461691357773 9.274796405353722
Mg 9.61654937202948 11.573516345380131 17.82820313734426
Mg 10.894713277952173 10.865378132835524 9.90266311624509
Mg 10.568202536327469 13.911309268011935 16.045894012823158
Mg 8.832135673323064 11.647555970758603 14.953517356171847
Mg 9.670330940467194 12.515546827809846 12.064546675161216
Mg 9.765089974874723 9.618669275584374 13.0682629709761
Mg 10.410910209535329 17.96348098481265 12.6045577142471
Mg 9.753205980797034 16.844378923708028 15.273290537605707
Mg 8.867009696996057 15.591975694007916 11.296185141920018
Mg 8.233641232206285 14.483255820407544 14.049301236384576
