50
Energy = -49.5757465 eV
Mg 18.397460824356845 9.938337214717999 10.333046527187308
Mg 16.849536943819967 12.438292462991168 9.431064290282013
Mg 15.651925187979879 9.442374269073316 9.105837467994478
Mg 18.59406474534022 12.386957927987682 11.922320260503998
Mg 16.713397555177984 8.048420159985522 11.689411270928478
Mg 15.036092160966076 14.921571711249051 9.188310081405282
Mg 12.604029467238432 9.284298942920977 8.814403976652391
Mg 13.860840131241696 12.065813971156802 9.004310755812497
Mg 16.846892282719487 14.78220377535263 11.572208629725004
Mg 15.42369783369148 10.996646640112917 11.800445504351382
Mg 17.792172581393714 10.095576234422472 13.684699675957505
Mg 13.777785603505992 8.186635271214275 11.411459367827314
Mg 13.497966984210352 17.4538827383507 8.698510616221622
Mg 10.838997036216025 12.018405014969833 8.937357874328365
Mg 15.211489146305043 17.336697409439648 11.252304620096465
Mg 15.064159364410534 8.756714677292514 14.18097765079905
Mg 9.613361992649178 9.297365061458029 8.708722890770096
Mg 11.967433351921764 14.8014471947154 9.133743063472611
Mg 16.42678578615081 12.98510280185717 13.979770434202194
Mg 13.858811348525846 13.62269660253088 11.81029497522775
Mg 10.745928017222099 8.201904971132818 11.23918158493663
Mg 10.73180504477485 17.80210813283986 9.542452914818583
Mg 13.13909371607036 19.51166421033193 10.795915524853985
Mg 12.284305037572535 10.947203715915457 11.546959041900884
Mg 14.920231420126653 15.796319483446288 13.903216244441987
Mg 16.09369316075427 10.865775104625744 16.161633511308924
Mg 9.216129042587493 16.40809060123459 11.765233984358145
Mg 12.373218929111317 16.28016250739421 11.81210080772079
Mg 14.692058820009926 13.908005590613948 16.283090000112566
Mg 10.547475968070433 13.650767184404984 11.617038724673835
Mg 13.377691921530868 18.516267066294986 13.705705440186973
Mg 13.655423438719268 11.584784316261882 14.301430971427017
Mg 10.703137504431195 19.027739670073963 12.276091051404261
Mg 12.009512297941887 8.768123036064315 13.994422550405494
Mg 9.106848294078201 10.916008146089867 11.225504356147448
Mg 8.885750972375913 8.949662295769482 13.575671186949894
Mg 12.124526412417705 14.337541152220346 14.322189497543551
Mg 13.322149360263586 9.522089726890417 16.654857565650154
Mg 10.663575279297177 17.050202864306268 14.502152648930368
Mg 10.532578299531325 11.654327685684759 13.999603295428034
Mg 12.805133220892687 14.673386757330524 18.530140356228916
Mg 13.12629702929029 16.684118986403256 16.29127532797657
Mg 14.21748094451396 11.780120715508486 18.371978877596057
Mg 8.887578598688657 14.518115677315475 14.172356642308284
Mg 11.775566928511536 12.347643193994548 16.79268839219765
Mg 10.276422850997315 9.657532469007334 16.45697077687079
Mg 7.486653742243946 11.843492618174968 13.668413172939102
Mg 7.342690149356371 9.874036539237512 15.939935333069277
Mg 10.379664097360573 15.1416027803235 16.878624966151374
Mg 8.742527583470963 12.511096293009391 16.497601294124024
