5
Energy = -1.9478341 eV
Mg 7.4578544931128095 7.552614009164337 7.397558005571062
Mg 8.798146641127117 10.439465632766638 6.4930677176117495
Mg 10.179429352102282 8.209954782940216 8.473850439224504
Mg 7.769303945176375 9.656402755755764 9.51004637272282
Mg 8.188030005030047 6.5343272559217995 10.518241901418495
