52
Energy = -51.38036559 eV
Mg 15.025276643284192 15.697241759483374 9.26786207391419
Mg 12.586974845857391 14.397756358989545 7.510693860923128
Mg 12.464491598934334 17.169696097818267 8.69819348648353
Mg 12.2557884143052 11.448229051401311 8.189225247054177
Mg 9.400607859462246 10.462396536898348 8.467477159851205
Mg 14.653565901727818 9.415033653340416 9.18454525926683
Mg 14.963377640156974 12.740726975048892 8.63651206513045
Mg 11.66321478402426 8.92964509343779 9.705956254249644
Mg 9.757371578081955 13.696415097306465 8.628044727498485
Mg 17.45696091302209 14.219052172893965 10.500872343256145
Mg 14.723709663222394 18.781727662248965 9.736024691831194
Mg 9.991936182195138 16.494529851823913 10.136813809172295
Mg 8.886073185390417 9.255538069919885 11.272962349511788
Mg 16.91551499793943 11.23538866309073 10.161263177803066
Mg 13.851135750273457 16.441068818582966 12.064665252488483
Mg 13.612007781594942 7.84672639732432 11.73694623379788
Mg 12.315736980193948 14.379931039124706 10.540227743244973
Mg 11.967513722006968 18.65498599450197 11.382633449815104
Mg 7.648759531665011 11.965471237883548 10.266932608906329
Mg 16.7513378798474 17.173965461537005 11.429947713421914
Mg 10.711341894224406 11.881708405322748 10.880835718694303
Mg 13.637514369800686 11.24953291277502 11.162484414898245
Mg 16.037131576209738 9.428330672283288 12.302898307503815
Mg 11.524053339584158 9.832463141389502 12.828535792825095
Mg 8.932275681128026 14.286067996357406 11.775660532827901
Mg 14.949456004675302 13.725791713645425 12.017100990313843
Mg 8.656907588609476 11.647217273157239 13.190583864111225
Mg 14.72811621490486 19.54570368122885 12.52097991038553
Mg 10.79649483747837 16.274112389138814 13.121135869061376
Mg 17.380370465721874 12.115832814586238 13.000091019050528
Mg 12.939065003783558 17.957533596249526 14.492792847172959
Mg 15.989807619387703 17.61671335298771 14.367662408241955
Mg 11.657184285380842 7.2731085147930905 14.311095714718109
Mg 11.950784921575437 13.37832959179465 13.429310795629783
Mg 17.362746783258714 15.081812457939462 13.60352805076871
Mg 9.06381223183578 8.984813346183206 14.593032359863807
Mg 14.29079896561747 11.522119764860676 14.158462487162565
Mg 14.484819255484691 8.376021648272934 14.691377490233268
Mg 14.434736315731692 15.063497174895454 14.792731445501927
Mg 11.486155876960801 11.059962945569332 15.512193767307306
Mg 8.20359520234886 11.549371890910376 16.12504705987169
Mg 9.252182338970071 14.137263049817278 14.856394722428345
Mg 16.981649369077 10.042822352267212 15.126255217769373
Mg 11.683426201091867 15.499717960853069 15.966554868860728
Mg 16.494805987187515 13.016409688077733 15.8711840898378
Mg 9.924384550065922 7.0040382391142755 16.70491622885738
Mg 13.50188674706244 13.205796477705409 16.87670128864874
Mg 10.465414283979454 13.147632606067692 17.4909581652752
Mg 12.532683084405114 8.447768508252475 17.077245692304636
Mg 9.784376890885627 9.791233905368493 17.858910619181426
Mg 14.95474212894365 10.479328950841087 17.19755585411294
Mg 12.39659245977517 11.05308531296889 18.658651227290694
