5
Energy = -1.82280707 eV
Mg 11.791181509053622 10.120995232437103 13.074067577442692
Mg 10.026713827405212 9.571918206366067 10.563414748313638
Mg 9.405797972902095 11.948385384499018 12.451388432578517
Mg 11.103035768886972 10.593534286662168 7.541559119412722
Mg 11.842351750902775 11.934247719186322 10.538650951403225
