50
Energy = -49.46834387 eV
Mg 15.926213575725829 13.714977885254736 17.175482714294677
Mg 13.067960484530575 12.89984250010579 17.83801333608742
Mg 10.013112566459492 12.308826678932965 17.501401216334088
Mg 14.106510696794402 15.815828832640612 16.150117030751947
Mg 15.228934901480843 10.82121213104712 16.642873195299178
Mg 7.427690081287197 12.086336220450239 15.798198297144612
Mg 11.331211182817984 14.9871461096405 16.549563446121013
Mg 17.966643828908936 12.211460116953871 15.578170953603713
Mg 16.163147765111894 14.718671697835537 14.283912518177187
Mg 8.436389182816036 14.862956941633124 16.14912826835227
Mg 14.597593235676628 17.318175436481248 13.487731394037421
Mg 12.26973889469071 10.439096868585153 16.22058531409952
Mg 11.902292075868708 17.488050112015618 15.132868543960448
Mg 17.407493105288957 9.101853826851672 15.510974405437477
Mg 9.3777627050563 9.86387757786954 15.558813976295982
Mg 13.725269736582792 12.85376680773876 14.808903552865742
Mg 11.592367075277634 7.983523180853882 14.601279988634689
Mg 14.328183413049729 8.863951926892735 14.212672317101154
Mg 10.505698038118567 12.759290299096858 14.539118783855145
Mg 18.141068777555716 13.193269351326121 12.606991252396428
Mg 12.590397917096084 14.960982297985279 12.980440869172359
Mg 19.13732905815172 10.404445683868564 13.419529634377012
Mg 7.506427470971722 13.922608335578907 13.403709190112384
Mg 15.951601095537894 11.203450999247963 13.609869339186703
Mg 9.726282096603066 16.106541678052793 13.550706914970274
Mg 12.32586253102314 11.155541093264741 12.610506302605883
Mg 17.05785791972617 8.364907051661786 12.658083033940473
Mg 9.326133673001097 8.35479679000432 12.853671005653942
Mg 8.023379916501733 11.037208624119499 12.914059361273104
Mg 10.052610794645604 13.344010802865801 11.710186692367412
Mg 11.812942382288853 18.28874196378571 12.38708291194552
Mg 14.932354484408137 13.087655163490199 11.721127848234495
Mg 8.02383627562585 15.330364664284113 10.843317787374422
Mg 16.40232793549303 15.860252494282548 11.423895297427755
Mg 12.09892216277244 8.13870835642401 11.569493158299363
Mg 10.801005155001556 16.290230710260477 10.513799978888692
Mg 9.8611499238417 10.134879043766151 10.615355894757222
Mg 14.679966395103497 9.619586059725565 11.15256486783165
Mg 12.451011597284941 13.33733243186087 10.139708713718537
Mg 17.38465963293322 13.49330257713519 9.713728387134292
Mg 17.411217951020056 10.777470255737343 10.833357076225413
Mg 7.794768676138276 12.339326670900896 10.001232385987732
Mg 9.751771152236753 14.331223226438016 8.444150947981615
Mg 13.754895615961003 17.02082806374053 10.451976959382794
Mg 12.480811630846308 10.182586073066462 9.168438176915442
Mg 15.086878996382094 11.679725935033362 8.858412551646973
Mg 9.994820537310675 11.449493899986722 7.989432960934869
Mg 14.914167141788537 14.77036859190424 8.755701614371173
Mg 12.279737379090307 15.833927893130005 7.970699846524886
Mg 12.64238937320904 12.8202289469218 7.253621157793931
