5
Energy = -1.94979277 eV
Mg 13.31851262485698 9.46297228234117 11.746689878912457
Mg 8.936184027144307 12.792233622145165 10.66370232171161
Mg 12.187187828314423 12.282121481520349 10.448800554137604
Mg 10.800316737008265 11.246639864881802 12.886764693212571
Mg 10.413351496411337 9.88364623681559 10.257243859238852
