54
Energy = -54.65079601 eV
Mg 12.834958834225823 11.793660389943541 6.323139441863087
Mg 10.120854845299956 12.733785186174744 6.81054838979741
Mg 10.78094502064337 10.220481567122913 8.44352880490888
Mg 12.523144309529536 14.613178318324321 7.419570002987685
Mg 15.193242182493243 12.938228871451168 7.73967662224913
Mg 14.064069739322287 10.198679044186862 8.677090266910241
Mg 8.219976550444496 11.876297916283391 8.991554881696528
Mg 17.01049172883479 10.985275402080807 9.077360694486778
Mg 12.352682298202337 12.54863929898726 9.617241242497137
Mg 10.002004973008539 14.493704460498206 9.226532998210523
Mg 9.027114744819219 9.590724655873442 11.008716096933815
Mg 17.66185832824628 13.870844176055924 9.65343576824902
Mg 14.698764458595232 15.360129587163621 9.484733815890653
Mg 12.1723008450484 9.168447599044622 10.925402871111988
Mg 12.006897345914389 16.727960207559452 9.91298193078827
Mg 15.131937644673094 12.666382269389477 10.874098575844696
Mg 15.334105833201372 9.694722126707008 11.444096719083442
Mg 7.343604768761744 14.281167220029268 10.592982567033596
Mg 17.236881313244954 16.602767470245208 10.968449276215807
Mg 9.909363050497934 12.401206422665116 11.56526279385664
Mg 17.873028000784476 11.372722239534689 11.940232640770072
Mg 6.819008902889602 11.616304497777977 11.704107894907743
Mg 12.152439512796843 14.439137747034039 11.945246439875781
Mg 12.836075151071768 11.625294443852045 12.571929221456939
Mg 9.482200262084804 16.05864201711936 11.8217856890681
Mg 10.69783978957761 9.685541626835223 13.614217419599479
Mg 14.514776001673548 17.92733193004093 11.28922415904534
Mg 15.32524280709227 12.307077355490032 13.93274331879446
Mg 7.900617864618481 13.921978854531082 13.556088071968821
Mg 17.956819299948055 14.25908723602819 12.734087429275917
Mg 12.169446911064492 17.273918521395615 12.994842848241435
Mg 8.038793811606388 11.037885275678148 14.297212300344585
Mg 13.701562076409136 8.924751716656353 13.788379777506028
Mg 10.750803932460125 12.736417220066178 14.443578873621844
Mg 10.137799874377402 15.772734445047718 14.762724203220088
Mg 18.33617826822087 12.14479996676859 14.813872263037378
Mg 14.931268373220274 17.44296345830238 14.404660363633363
Mg 12.238118612887003 17.626017051587283 15.971258515273156
Mg 15.046245387806218 15.129025003360248 12.57899447955006
Mg 16.63258537476264 9.617893063769117 14.340855753338326
Mg 13.205875583112192 14.510074981584255 14.844740849802074
Mg 11.782204304811593 8.014231941219698 15.94722526999112
Mg 8.950911423933698 13.290284350027605 16.712313416640125
Mg 13.004030056908745 11.240871832561023 15.755994732259309
Mg 9.930381246413624 10.355518776197943 16.547914264690615
Mg 11.518902262906431 15.079325860579416 17.43322533595605
Mg 16.414628915960147 14.602083630840603 15.579757216771576
Mg 14.579241125890613 16.458255826296547 17.20786243686926
Mg 16.324394857292685 11.470809322708474 16.86610935314658
Mg 14.632679067092077 8.83020964333841 16.824718358501684
Mg 11.470152270988585 12.210879596172646 18.29862232232433
Mg 14.236566502912314 13.516866032227675 17.545347121331503
Mg 11.952416282471509 9.204288504184673 18.583067501759775
Mg 14.235599888027986 10.934526660481222 18.994689215891675
