54
Energy = -0.31139075 eV
Mg 14.31154296862076 11.321618554702221 15.649467991324308
Mg 16.798690087218148 10.137306654205037 14.146618488675095
Mg 8.326238675073352 12.58419258136037 10.967050384013447
Mg 13.727968899741391 14.05644967374665 16.687367607552464
Mg 18.31727442752627 14.965571735709394 14.723786408306315
Mg 14.7664951591906 8.399959063491686 12.62117854051513
Mg 12.301067955244804 10.045879494003259 13.89177641848046
Mg 14.775241490622042 8.345276865113345 15.568510573065922
Mg 9.19975042384402 14.647352876777108 13.258059588559489
Mg 15.946478372488096 16.198481387991116 9.381629610763271
Mg 16.60769715798369 13.280881715300428 10.146288112889769
Mg 13.203778593974814 15.87373332133097 8.415054075251186
Mg 14.084537492719832 9.451386017835544 9.88407799396548
Mg 12.930479850460129 10.94058689113901 7.218644276846451
Mg 15.258168304640092 14.230186752750665 14.00727398878941
Mg 9.055773329840001 16.418546063448687 10.816657998078114
Mg 11.38507579415141 8.836937482181693 8.653145443281764
Mg 11.980561702146058 17.598429925722375 10.41330247237757
Mg 14.581907864549553 11.682928396166162 12.372968172786301
Mg 10.975954169430498 15.183563858258347 15.745753577715933
Mg 11.589311263010336 11.13964210443613 11.221142714029435
Mg 12.337509193498773 6.980717402293798 14.460952531126908
Mg 7.034154809259866 10.077236347451901 12.856590209507097
Mg 17.193242931291557 15.63707458197835 11.997865230839377
Mg 12.089527679950328 9.066371614713566 16.72367228570484
Mg 11.061630698565256 14.198468961646423 10.629289265621923
Mg 15.992692632229362 11.026326188040628 8.223646642821151
Mg 15.051811373213486 13.774203182065872 7.348256209324033
Mg 11.407031210043034 12.162987887292395 16.332279580113283
Mg 9.84327558298794 7.022960158022102 16.15170504851406
Mg 12.238706334873184 13.351530157420521 13.537588593591268
Mg 13.500741637974457 12.610826326624307 9.561366826738368
Mg 14.54186152341252 17.635970681431225 12.176574365166081
Mg 13.923861684209093 14.891517528651132 11.395429695582507
Mg 16.55731909566059 17.43270465504349 14.38471706443863
Mg 16.90467094622032 10.260944699684297 11.02132269450096
Mg 9.663662449158982 8.399111887465443 13.504897377630314
Mg 9.144906347986655 9.519675834744104 10.702335214667617
Mg 9.639221949135877 11.58488279381148 13.554505613867814
Mg 9.229771687000206 10.068211977586918 16.235346330467493
Mg 6.334110115541053 11.000530820456364 15.624724446988248
Mg 11.90320596430519 7.91990927069444 11.458507694150827
Mg 16.947781659255885 12.67420893444543 16.02474499212306
Mg 8.512290550394612 13.16356376275551 15.977746857482646
Mg 11.512238451232072 13.800810535530013 7.202082209874624
Mg 13.655290961584669 16.72606167882939 15.169908515431333
Mg 8.63213300640915 14.291025232955793 8.464659329040714
Mg 11.4909742923258 16.536520547159643 13.07252425517158
Mg 16.25672937013156 15.660175800580026 16.741164605355905
Mg 17.771532937887347 12.62686932068891 12.85236015595529
Mg 6.659439374248813 13.018168895347868 13.51120660039127
Mg 7.084077863238181 8.080912251507906 15.334869114279378
Mg 10.349633410481447 16.557351118440984 8.093956548560095
Mg 10.081602347443381 11.573891602596127 8.554083511329292
