5
Energy = -0.76326208 eV
Mg 13.52532649905858 13.644897093960237 9.892170746690208
Mg 12.40814547006339 12.291582633497184 12.310364908867278
Mg 12.052836135626185 11.063165445503934 9.530389725612622
Mg 10.444125699724024 10.166037128569767 11.811694967117804
Mg 7.774895632136135 8.959467186548421 12.646949024968857
