55
Energy = -55.3244291 eV
Mg 18.35378555197331 11.19900443118787 14.727420531713303
Mg 17.728731635524493 12.114213624238323 11.800774627763731
Mg 18.22791870131422 14.263356888959958 13.882468967478625
Mg 17.184654685961974 16.967741368669802 12.694463244936491
Mg 16.703235451425922 13.237807916222723 16.42177996952364
Mg 17.42369384316414 14.829495258566393 10.39450747779751
Mg 16.523356527908877 9.355556934154826 12.258196006494163
Mg 16.822230871716744 12.291127050214204 8.833317580745568
Mg 16.06987927664612 10.317159146639128 16.897595617428067
Mg 16.082637404205947 16.086325667388813 15.301263020920196
Mg 15.339713798196689 9.519443208648827 9.20741319096142
Mg 15.44527711456703 11.545814603718009 14.030664969181737
Mg 14.881133107117577 15.190566236885758 18.036468742036323
Mg 15.380988383590534 14.264606986953082 12.625966952258802
Mg 14.745541891617329 11.787887492684824 11.047694781769595
Mg 14.945424940299937 16.897125632787162 10.775081919107748
Mg 13.611058813678765 9.038945023230474 11.652007921696855
Mg 15.020229514609323 14.723699129342245 8.544403838552022
Mg 14.275697784973868 12.331717870961496 18.476396944678577
Mg 14.30296259807558 8.698651254795523 14.796329157509788
Mg 14.56519581943807 18.227958937595453 13.688074648705653
Mg 13.96876060224297 13.998928399964855 15.363417901175778
Mg 17.387416179711376 8.362590202845661 15.000093929901503
Mg 13.706643095561642 11.853842691975938 8.142730809349576
Mg 13.588211606476811 9.319859285362595 18.416966982338906
Mg 13.094516549911534 11.291142416832612 15.910595624097953
Mg 13.095253017325062 16.807398898064882 16.097392688689087
Mg 12.71086970722331 12.418615565688967 13.185935948533922
Mg 12.229887762827294 9.09756112900844 8.554780623176029
Mg 11.961074619880348 14.318344690949658 17.772921722591835
Mg 12.85953416611842 15.761330780686478 12.916490990616381
Mg 12.812502803127957 13.986196442838125 10.473861385101062
Mg 11.572775739036782 9.525642350113706 13.685403132435695
Mg 11.169558268941412 11.422820726449343 18.27758245279227
Mg 11.376064874071114 8.79879594059723 16.60974844932363
Mg 12.469790760077805 18.671583951392687 11.573945624356034
Mg 11.056386112756991 14.523956828858397 14.838289905892836
Mg 12.272065821736486 16.69272886799282 9.357416447526706
Mg 11.621805049490737 11.22597135685482 10.655775334576141
Mg 12.206325005079654 14.328524192766837 7.38159882025731
Mg 10.171486135511307 11.620753091666638 15.252644370103436
Mg 11.058751026851375 18.0407063865898 14.289508323823338
Mg 10.588232904237959 11.871250353555826 7.839402439709725
Mg 10.087411280705403 16.780081137982904 16.904869892688872
Mg 10.263829361504728 13.535143734845139 12.115088769184146
Mg 10.670738375067602 8.192790463725366 11.09781531472708
Mg 8.995787549296145 13.952651216683135 16.951814720103865
Mg 9.09549528485469 10.63002845588891 12.387603725664988
Mg 10.166554779928198 16.58571980487601 11.72603601604874
Mg 9.902038451429576 14.687637841714666 9.287292633780158
Mg 8.301862939735072 12.25116686211725 9.932366585371213
Mg 8.433577313706872 16.155937773853296 14.384360073630285
Mg 7.92792222166337 13.214085158821465 14.083663223880256
Mg 7.636658899987546 14.862158446666466 11.540948896377573
Mg 9.094756068869703 9.513741938877384 9.087238181868358
