5
Energy = -1.01127958 eV
Mg 15.447233197096963 11.585769999529742 14.538154161332178
Mg 10.81592764388616 12.136478067338913 10.75584623181083
Mg 11.955400027823002 11.68448248389194 7.68079487682183
Mg 9.143620838942219 12.477474208551678 13.468133224073702
Mg 12.323196046619614 12.143768715491369 13.559145707371009
