51
Energy = -50.92324385 eV
Mg 8.919779917659671 17.28987278067857 10.856371633315467
Mg 8.685686436421808 15.033817326663007 15.491738806018578
Mg 12.156988782671124 8.3441466876356 16.106414216215224
Mg 10.914438619438751 8.612173541564035 11.511844147212223
Mg 11.564477636592567 17.729846113778784 12.418945081127854
Mg 16.11240710578231 14.50618431897443 12.654952477972879
Mg 16.365636575578243 11.404623108597429 13.937267170223667
Mg 10.701900395532055 11.78766379679656 11.260837597340332
Mg 15.864405912799585 14.47977664348096 9.359518522949246
Mg 13.522965485264887 12.752678093456634 12.672573613166634
Mg 13.549209376488127 12.957786740462478 18.077161922223873
Mg 11.46152276065375 14.48014744365153 7.134477712961658
Mg 9.106652221552515 9.709605776958542 15.832800310557571
Mg 14.509971839787093 13.909326654699843 6.586852336396486
Mg 14.207820687103178 9.70441850674626 12.664994947337991
Mg 13.39608238901914 7.602245126339595 10.333963862386582
Mg 16.180225153924113 12.075680721978827 11.067220180472248
Mg 11.85047904225909 13.390137156109416 15.110850541635044
Mg 11.074985809407258 14.694850481193368 12.398880065584427
Mg 9.358745252649776 14.449029736090134 9.697963132104658
Mg 12.789161587758903 11.567967852680834 7.139592167601082
Mg 8.646081726930129 9.70569448931034 9.786948234864665
Mg 15.075663578718093 8.175681893470191 15.088525737512908
Mg 13.383638804749483 10.758782032694016 10.062991489521727
Mg 10.814448375698005 14.388032163550704 17.785107106164865
Mg 15.68224160182909 6.956028246900871 12.261454735640251
Mg 15.896057419744944 6.512451588028579 9.218149206895674
Mg 12.819309189161602 6.932978407716296 13.416797542908737
Mg 12.735710407740806 13.638239995952796 9.701346197102616
Mg 14.424985212567847 8.86680594819332 7.732251210892418
Mg 8.68940594555915 12.455460404022425 16.942429417544528
Mg 8.821976459212012 17.43564409859483 13.77603091335527
Mg 9.963907168516405 11.958472197303013 8.198067120871904
Mg 13.960107110128972 16.1418738124952 11.09058455914107
Mg 13.680079734019447 15.844067945058363 14.00583482370748
Mg 15.701630585734163 11.607667171337887 8.08897786851031
Mg 11.41116115331277 16.66539848828156 9.493290128799643
Mg 9.004660346703718 12.480417389200019 13.846941642322516
Mg 11.455456472032013 10.537763334866742 13.944029476669488
Mg 16.178354072534418 9.2815931614195 10.21509831640982
Mg 11.170661358704422 16.66510262138263 15.436973253747931
Mg 11.289428571060888 9.187477601087704 8.454077678928938
Mg 7.65511450321348 12.214532868908252 11.011247614088093
Mg 11.317238735993595 11.103415152994813 17.275279267786907
Mg 8.38157940780223 9.749664950530214 12.776571241417578
Mg 7.807745009386828 14.91815846328068 12.40709103875086
Mg 13.45898546837519 15.712713075678892 17.09262690891119
Mg 15.18893148815048 13.67804819166888 15.501226538570412
Mg 13.888029136323365 16.327139119706434 7.980609323893597
Mg 9.990985807275207 7.471222658260615 14.135801363993771
Mg 13.981578374743938 10.916190133834537 15.727115810536706
