52
Energy = -52.64253955 eV
Mg 15.593858809273394 9.70270369963746 12.166541110360031
Mg 13.78012932985981 11.938466105475035 10.65916267251391
Mg 13.427369706934043 11.680880576340144 16.87635019314355
Mg 6.835258268985672 12.537340219305293 10.236224755925072
Mg 14.939781580702492 13.939636710425495 15.517893468518377
Mg 15.340061148354494 9.732580618047244 15.276891901679956
Mg 12.006336638234705 14.014324768551818 12.326852869992333
Mg 12.27815483371401 9.304820851203393 15.390234589065898
Mg 10.241041088178402 15.959911005196913 14.005030899999218
Mg 16.952353760183144 12.23863451459565 10.73673678223286
Mg 7.849831287906841 10.535883190913207 15.168542173857912
Mg 9.736894964293569 8.384918514465129 13.568926908227507
Mg 8.963947671688908 13.726547576067444 12.076753062498378
Mg 12.280888568576515 12.88165109282459 8.035256611360493
Mg 16.622301263330545 15.03957284624247 9.810557858222728
Mg 8.389531405082707 10.245192874130492 8.950830287368195
Mg 12.320363540285674 9.652314012548473 9.064570101691798
Mg 9.164280708570587 13.009989259342646 8.128656661856779
Mg 13.610018637270938 11.7861490766785 13.75718181001878
Mg 15.399718019908189 12.89964014238457 8.068589801751722
Mg 10.626525749296341 10.706773938838726 6.748224354746419
Mg 10.673639720246642 11.696519405823503 10.598763755282102
Mg 8.763790426235596 13.466546804591987 15.33059243738746
Mg 6.3420266111475145 12.68443506829608 13.396911295354537
Mg 14.222914782980219 7.525531600451485 10.556063430970147
Mg 15.260512953089233 14.274436136884681 12.459730032240149
Mg 16.729814129338834 11.98592654501984 13.788952842444045
Mg 13.427571287031357 16.174522082713953 14.074433535970758
Mg 8.04606188567777 10.453377990861142 12.053517562045231
Mg 14.811159825021535 17.144667854542806 11.578617888731154
Mg 7.201330725869175 15.595182826851385 13.975008298012888
Mg 13.59750112782505 15.052076453771202 9.76971358948459
Mg 11.818550194293294 13.876852403928702 15.553213090082817
Mg 7.5837133312606735 15.345088299562981 9.23680885840726
Mg 13.81300692618747 10.640331764954343 6.509666803723975
Mg 10.376455785859351 11.334088140180532 16.88780042714927
Mg 11.809775979862087 17.1648925775536 11.5907472293894
Mg 14.07472235414263 7.407787480463058 13.737235742675459
Mg 9.920652937266313 8.270124085724786 10.56277022146417
Mg 15.578762547825509 10.008436199411477 9.091823693867859
Mg 10.585154291372708 15.072759904873612 9.73799304521611
Mg 8.633260074543063 16.84432429155956 11.574522801304308
Mg 10.515340087960777 11.535407733423797 13.709792853485133
Mg 12.362681989828804 9.466215332043264 12.126658673780154
Mg 14.408059757187594 7.783875133759298 7.515745308638454
Mg 9.5644775186292 8.496054074972216 16.58786305747124
Mg 9.653318361252898 7.892203277710623 7.537832882009859
Mg 11.948395658765605 6.506042907353626 8.810499842496348
Mg 11.521676610152488 6.394136279547911 14.975272608489885
Mg 11.742459936524167 6.283595715061888 11.987262141991605
Mg 12.067595003341994 8.13810224574309 5.896170672414279
Mg 5.77784992298568 15.108326190625005 11.531965103731993
