55
Energy = -55.68534107 eV
Mg 8.848538856315724 11.322816861168453 16.257870954513184
Mg 15.693288662657709 13.688020611425854 11.702345779239167
Mg 14.535884298564795 9.298492588476588 15.96422191565774
Mg 11.17679741217844 11.621108316913972 9.321595834082679
Mg 15.707658097902641 13.952497719833238 14.780559760134865
Mg 14.470264855818382 14.955610967976702 7.141527262840725
Mg 10.700508948430562 11.18192581823005 13.66963113916953
Mg 8.386175072701546 11.613059822329255 11.144232781767188
Mg 13.158251892714647 14.44569119307431 10.183702764949466
Mg 13.848444840288034 11.717339245270136 18.03698331889599
Mg 11.041417084685882 12.7416498484849 17.924596076827267
Mg 13.176306742992965 14.643265179679343 13.24323200340543
Mg 10.45506378034503 16.123449126605568 9.973247708568652
Mg 8.008802649153877 14.859290707527007 11.649770001297703
Mg 13.128983665654438 14.632201691989142 16.417869855008117
Mg 10.554620571096526 16.4812621411505 13.034106039765529
Mg 14.006478325232615 12.16143580205374 8.36130626318675
Mg 18.624852040610826 12.559260492211576 10.467197075448226
Mg 16.05749285737468 10.939935669923498 10.233283243753824
Mg 13.255311555789234 11.849195645016474 11.801669028976164
Mg 18.394811717314184 13.210309473382045 13.325568795915506
Mg 15.743578413384316 11.186322124004919 13.518330156733676
Mg 13.287127262603514 12.056700818888757 14.941134389334488
Mg 8.980999959944173 13.674368402206762 9.00651826320539
Mg 16.50771415029575 11.455795159775164 16.667669576277483
Mg 12.746758049428106 17.040430078475804 8.260516852510078
Mg 8.595179830704321 14.306714711429432 17.061137238683514
Mg 15.499475561310804 16.505193516316485 9.680924642774839
Mg 12.96851156079904 17.404128424688146 11.406506138250741
Mg 10.670900624599058 15.589075520663105 18.914770820787712
Mg 15.535954801788384 16.696399573945307 12.850250763406722
Mg 13.120330298996778 17.454730201037453 14.662407968882633
Mg 13.253992018555062 14.327290730493283 19.533987122733794
Mg 10.567458288236343 9.404414170465284 11.325146427190015
Mg 18.33789409396822 10.143401408078363 12.295637120475696
Mg 18.302286680055765 13.887057056935578 16.39708951131337
Mg 11.601231795712273 10.04293195825078 16.436641744288504
Mg 19.073108025953907 11.037160899156468 15.180134793925879
Mg 15.834427042528075 14.097890159760748 18.10359231632985
Mg 11.573635159200915 14.171044953664202 7.639109746676765
Mg 18.062492792781 15.490966904880143 11.17385208298235
Mg 8.033026433213811 15.782322323080129 14.511721871658546
Mg 10.709221364355605 13.580672603219215 11.766255528843317
Mg 8.026113458704359 9.858294288657817 13.594325471550574
Mg 10.511725702083481 16.720220729477354 16.192057176885168
Mg 10.634198866827111 13.882899122529404 14.898186566784375
Mg 7.791491325993326 12.895502165512339 13.94564968720883
Mg 13.126586351660066 17.13318873633597 18.020439882710942
Mg 15.642460347007248 8.50733703957308 12.076213669403312
Mg 13.390216997376182 9.372813765041961 10.062228773741198
Mg 15.706373271478185 16.602125680922057 16.172384988391432
Mg 17.234594077075954 8.721417887703787 14.793389540075363
Mg 12.97287124391343 9.189895289666486 13.37453471475239
Mg 18.114648204936053 16.029543243370835 14.234815141726356
Mg 16.641583196000557 13.782052608365138 8.696042885396617
