54
Energy = -54.63959484 eV
Mg 16.214848485457484 11.744229135222394 13.417531839472595
Mg 14.32346389488016 13.178444738483318 7.37614917689441
Mg 13.865515375244838 13.677654640166121 13.675846316519985
Mg 7.761573690996746 8.604348637160516 13.641370465281552
Mg 10.418904084589585 18.161716466161113 12.212238145160766
Mg 15.649506156112228 13.60424524601329 16.04241719440219
Mg 12.84282651221898 15.21130670294898 16.73055725149083
Mg 8.319713991593819 10.634961691132455 11.24317143632211
Mg 13.009815113030411 10.88512202069742 14.14804337448507
Mg 15.309845675953467 18.423987481700557 10.100545655950947
Mg 17.260708050554904 15.907411210120157 10.45222066522671
Mg 13.387915870626495 7.030382137450111 11.844133626654783
Mg 13.988586546738516 10.29061209624328 11.347994295212045
Mg 17.022146460139837 13.238620609450022 8.62917352006892
Mg 11.058326073008628 13.491214838429384 14.751712951490413
Mg 11.31299996652223 10.081000547459773 16.645008681414144
Mg 12.206710786560205 14.415948281650719 9.359405780938939
Mg 17.245495961227324 10.45302932197397 10.823928078233635
Mg 15.773703374791406 7.958478036641745 10.313355609871026
Mg 10.18613418824897 6.574581199835375 13.06104967458718
Mg 8.327957108228668 7.645839546316372 10.902109608760025
Mg 15.32548834573483 10.474857906563308 16.02284979350524
Mg 6.759283597077683 11.511684699528427 13.812271189551256
Mg 11.667844131669847 15.340836884527201 12.47252819996184
Mg 14.59959812545238 16.60463277174551 14.686540652117754
Mg 11.678004538388524 12.357932627843647 11.764721205744886
Mg 10.036328354155616 9.525212109788288 8.969453201445733
Mg 9.6460834169744 7.7765348447174665 15.728982342218314
Mg 14.786814786150908 13.042779305353026 10.674163857317243
Mg 10.178429997859169 12.750642291896565 17.605915037398553
Mg 18.126215253091686 13.192614440137781 11.389289797062315
Mg 9.58361164814841 12.715316369872676 9.407449807782017
Mg 15.361003140829874 10.487557834987564 8.491932084409235
Mg 9.910208607261028 10.868851895807415 13.942484954976559
Mg 13.001246102661657 8.458054835877698 9.072963933594792
Mg 9.016086710204753 16.043934287555718 13.92267446037984
Mg 9.832697016237448 15.69797955820321 16.836355296155382
Mg 15.488477971967518 8.680257162998542 13.413626760605398
Mg 11.633547115005571 17.33774412902859 14.90920418886929
Mg 8.048745343644276 13.528454106644848 15.508526391754398
Mg 11.215701837076807 9.281659978710955 11.814465620157323
Mg 12.506456720259832 7.924569149899674 14.607732515689179
Mg 10.907476441446203 6.594236582852456 10.038722462348309
Mg 13.162368933533992 12.328552830183552 16.943169710975987
Mg 16.5501401722629 17.952045384622544 12.708892377722368
Mg 9.557119377668638 15.69068264276668 10.385011219586339
Mg 16.8078654774116 14.959844998561353 13.416025437791077
Mg 8.273446696694792 10.544835171645612 16.379266149262786
Mg 13.447310567793044 18.591040464265234 12.567681835371912
Mg 12.345693043628497 17.39555186637339 9.92299058580363
Mg 8.765342237864909 13.461147303673966 12.376980333394469
Mg 14.43413291669974 15.843540819687849 11.579058995592176
Mg 14.929306941940851 15.856287521520022 8.471693893948745
Mg 12.375627206086158 11.41139277651079 8.882812498676893
