54
Energy = -53.92169484 eV
Mg 12.534578149471798 13.443728225962682 6.894091601565153
Mg 14.881588663526523 11.696837729790184 7.0347903201324735
Mg 12.85305462182309 16.400868952646984 7.519253408315851
Mg 10.180328341658496 15.204139810503726 7.439168342916128
Mg 12.201833963457123 10.367685756872472 7.3159324040825435
Mg 15.011849905070429 14.411759056655184 8.550258562172589
Mg 10.18588511274484 12.378469443765896 8.59021236362028
Mg 15.009219132397375 9.210086633315951 8.743588964638375
Mg 12.40912147156479 7.737412576966887 8.893291994760352
Mg 16.690693485912828 11.89825581630663 9.33177433728299
Mg 12.267158385480313 14.351402018205262 10.017378389892878
Mg 10.4293919442468 9.713100291705059 9.927185881770011
Mg 10.777602331821534 17.268052245418733 9.521876470094103
Mg 14.00065540546903 16.7801566162239 10.379946901077854
Mg 13.180236738145869 11.395482864426581 9.976250021343825
Mg 9.384626100678378 14.648022741562988 10.473345574312654
Mg 14.92930971230815 13.281636547853385 11.446652056592757
Mg 14.218594621383232 7.415655089358266 11.149598801500822
Mg 12.639692746383252 9.831081962155492 12.740029084513774
Mg 15.671593046907187 10.092881758127529 11.667120469979166
Mg 10.837208823056029 12.26447579925755 11.820477893075239
Mg 8.037798306906877 11.7123141363316 10.720893907147795
Mg 11.174412018703505 7.188128115979219 11.658766025393755
Mg 11.555847331381518 16.71735908352227 12.335236958176951
Mg 8.521364837775259 17.115266229293724 11.932118707202239
Mg 16.673804196888604 15.60976855010699 11.25905818804683
Mg 17.811729283856664 12.348759489646078 12.156035219632038
Mg 16.031255320679186 7.6127262888280045 13.45070861715916
Mg 6.986509707196833 14.294386922819692 12.165203041799527
Mg 9.403035937147498 9.53969365372985 12.766971588764418
Mg 8.140369843133831 12.053469830235105 13.748227352085639
Mg 14.608353495560916 16.446897872503904 13.419519845776893
Mg 10.198398247736176 7.186598271652787 14.51614742586233
Mg 16.59260247630568 14.298279415924746 14.102966989406857
Mg 14.610185820207851 11.789470106373614 14.096377404309926
Mg 9.893765814350509 14.559812350434173 13.744890289963548
Mg 18.934971429205294 12.573319561163364 15.02246243934459
Mg 12.782920968928638 14.067794989564367 13.217958385239642
Mg 17.459702196094923 10.117345301076544 14.278024942903983
Mg 13.171635231545864 6.9922660937083725 14.08384305736414
Mg 9.51952029351459 17.787703585179436 14.53464418128855
Mg 7.271228024411389 15.580198183223532 14.844978959997968
Mg 11.333454897174263 11.928196031143477 14.854910940543244
Mg 9.05534562413298 9.914490131505048 15.775142684319961
Mg 12.042473028411342 16.267841579480347 15.349049229863219
Mg 8.793765435462982 13.066409386211847 16.53332088305388
Mg 11.96712165687274 9.108183949555013 16.04521082240512
Mg 16.46685894600571 12.015273190787935 16.553030616590558
Mg 14.326195837158293 14.31753265590764 16.007317933540016
Mg 14.908139093980745 9.18760073844977 15.7065845379282
Mg 9.416206973465968 15.967321011901705 16.84630200825254
Mg 11.583910675906644 13.908838133199582 17.336058236445695
Mg 13.518004673598858 11.525346359654527 17.221564735997593
Mg 10.618814230124242 11.114141421158727 17.988174557885944
