51
Energy = -50.78767227 eV
Mg 10.359993218767384 11.612695487538033 8.156626035591776
Mg 11.59159167680485 14.074075062307859 7.144204183144202
Mg 13.378751764312284 11.709034822387022 7.604064438897635
Mg 9.405053998262616 14.310557403110778 9.290048645696976
Mg 9.77733198775437 11.756487135967365 11.257407922103647
Mg 12.19386991545387 10.156289910209408 10.202722130837001
Mg 11.962501073430033 16.2807537915222 9.126507865422177
Mg 12.309107344834837 13.342061745677565 10.132013694381675
Mg 7.772893301905278 14.13303799469316 11.910219925087885
Mg 14.438877774470994 14.624128069167117 8.15892322999035
Mg 9.77309558910006 16.555976906951987 11.210998608893956
Mg 14.801538357504244 9.426730404604772 8.827649590408846
Mg 11.386977941174976 9.395614448569672 13.043749993277245
Mg 14.34956498685728 8.71590782590784 11.89117485839776
Mg 12.430476578995542 12.30134874778818 13.050219641001986
Mg 16.289244643809067 12.099390143607916 8.479605214697683
Mg 8.01888305798308 16.678238975933024 13.650958953581053
Mg 9.3311130460122 11.588442748785644 14.169737375161736
Mg 12.906807746920405 15.375002287955331 12.21559045468034
Mg 12.164903069214594 18.38541322609615 11.250825435446261
Mg 14.717140004452975 11.734986338467502 11.1174850430802
Mg 14.783630054730203 17.050027849308375 10.38431856081027
Mg 7.626000606852278 14.074686622947112 14.95186688268268
Mg 16.126383702127594 14.411057249033608 10.648801749169934
Mg 10.325466784035601 14.41654258196686 13.423419121866829
Mg 17.204116595879455 9.79807967216204 10.41987512281092
Mg 10.970147245918904 17.50008968726879 13.90616545552767
Mg 15.13610313179371 13.809521300055646 13.482394064984986
Mg 9.594090744578285 16.205661314659107 16.215746992506723
Mg 14.064143942752887 17.788465255023993 13.652281216618341
Mg 16.62204971593156 16.548411690753884 12.764647955042806
Mg 9.956140377365308 13.22780976843864 16.631596493991744
Mg 14.91877793346875 10.773834945703626 14.03185009116903
Mg 11.892863809356864 10.904253589886592 15.762809514215578
Mg 12.615073894454413 14.423135632486504 15.34036248746108
Mg 17.569347878291666 12.135244066851472 12.318008831923144
Mg 13.436258610111516 8.318869188793158 15.024778311552371
Mg 12.658213027498409 17.218146428211693 16.483847426686538
Mg 17.409258288461274 9.131552954206333 13.248035178864699
Mg 15.557767627304031 16.008270542482204 15.613802204847664
Mg 18.01021702374434 14.436010104880303 14.49866517524986
Mg 11.320371823952167 15.341229778525754 18.460727332631013
Mg 12.416256785047834 12.571505354149584 18.314614268321108
Mg 14.810062686350498 12.607553546693948 16.30518552083061
Mg 16.384418307199248 8.743091467029368 15.985752007534023
Mg 14.26911209526762 15.11873943272782 18.22029236580532
Mg 14.131531303133963 9.937958139025838 17.645470302900975
Mg 17.72745300310225 11.522751026562016 15.256641006479501
Mg 17.21593411805455 13.94862348168861 17.44933946435678
Mg 15.138865913986816 12.545141941638398 19.454465611137223
Mg 16.991203613934804 10.851071763106335 18.00314557966545
