55
Energy = -54.78386404 eV
Mg 13.178525988276053 12.411972706998515 12.908952244613706
Mg 15.602986477422633 8.373283124589147 15.361510164141272
Mg 18.910576185694875 12.571409541399552 13.153280995753564
Mg 19.14319013824493 22.347492124124706 16.912031579078207
Mg 15.449119683522074 15.635029994822489 16.738495577203853
Mg 13.3728379304911 17.130571109569694 19.395167460712113
Mg 17.192847562812762 18.696674817400112 16.182419613494154
Mg 16.521441582705382 17.564466585507137 19.01446259775883
Mg 17.986297495648426 9.923439311171666 14.204036743928436
Mg 11.301313447607304 18.976531650210315 17.955381183217717
Mg 20.41167254113651 14.438879826549302 17.022435385406258
Mg 13.886877291953144 17.311988122803143 11.150846359302252
Mg 13.770496035860509 11.755586192328966 20.02270519228376
Mg 20.21335611341914 19.642837979738943 15.909265781384848
Mg 10.486886354347115 14.655951425547553 13.81709068786322
Mg 17.810641374608117 21.175412486213354 14.463444536804001
Mg 16.696794789699624 16.568882815849644 12.116699503099142
Mg 13.296331929617324 13.529821736860471 15.773965276447763
Mg 19.54136929883654 17.27750588203291 17.82315025351718
Mg 17.80001701012168 13.126414516360354 15.995027029525072
Mg 14.44829844233642 9.799335676960157 17.767415992500208
Mg 12.108577865633162 19.30611930794901 15.08976225201202
Mg 21.3357112092024 13.88063198563373 14.367277120954936
Mg 15.569743145335163 12.735800380990735 17.879431524771018
Mg 9.84030203287617 17.14675057202506 15.649954559625067
Mg 14.310900707907214 19.04472550371379 17.256188041648745
Mg 11.843106389820287 11.40471095548991 17.60659286699546
Mg 15.382116372038624 11.434797692943842 15.075601375209875
Mg 17.87531167748065 14.792386026933766 18.60845759530512
Mg 12.840511928644181 9.761574441057991 15.14438912248077
Mg 15.231117897917132 14.822806379024088 20.066478165534974
Mg 18.64039556358153 20.011283887279085 18.716674310470996
Mg 17.616045599737912 13.946347741835913 10.859719939576445
Mg 21.042138511835322 16.87436519743192 15.04903352033217
Mg 17.504476944440164 10.285627609530144 17.107799098788142
Mg 20.20719589573112 11.4068460702264 15.814391177973448
Mg 12.629482602801126 16.466463867026246 16.283916696602184
Mg 15.954838724260092 14.191211040236205 13.924247468456242
Mg 11.235159698615018 17.50348573507069 12.77167040713327
Mg 11.761463615711927 14.75486039012087 11.079159421819032
Mg 12.672062266478823 14.286683386553173 18.65690208264179
Mg 16.121822354974796 11.55373250903106 12.102580154103666
Mg 14.679149525693685 14.213327759221475 10.913457870708877
Mg 14.936038202020722 17.72906709359797 14.460521523525358
Mg 16.313073613314327 21.410897975999138 17.39688838677903
Mg 18.07490537140566 16.004923899634473 15.219764361638019
Mg 18.826345101375153 18.45007126660025 13.477101336988635
Mg 14.784643215250156 20.85983713117141 14.805529814019263
Mg 13.392293036037845 15.482040263845027 13.500499007829527
Mg 13.143808559906951 19.865919412524804 12.3311960320536
Mg 16.17236090948298 19.613807182467564 12.315363919890588
Mg 19.610139125799346 15.574882971896209 12.558514434017365
Mg 10.268601179663559 14.120398367160094 16.74064258252753
Mg 10.320161686347948 16.345175338629343 18.698716576509543
Mg 10.757038061090451 11.827869296882776 14.806709359814228
