5
Energy = -1.95049914 eV
Mg 10.011161008870268 9.760450834606488 8.045742602814297
Mg 10.153344962227026 12.244178631004015 10.207444252062206
Mg 12.273990564167585 10.14082510431897 10.407013472707144
Mg 9.480018229648168 9.532626221117162 11.285192131582205
Mg 11.260237286507492 11.5006712603739 13.233359592254686
