50
Energy = -49.26304904 eV
Mg 11.367465941340797 13.288551917405936 7.248534251757591
Mg 12.748973726711359 10.496752977194076 7.368208452658667
Mg 9.722997796927041 10.77734549405409 7.700760536044142
Mg 11.008878620897843 7.926589502233853 8.027695089584615
Mg 14.405334872507899 13.045390981334702 7.230008463171774
Mg 7.984506038651542 8.27458012543339 7.517838046637342
Mg 10.326129256207578 15.337522616537088 9.052343755078919
Mg 13.381706358629359 15.553954898220574 8.613811325476776
Mg 8.18810159076871 13.381073565290851 8.040877336810006
Mg 13.904363707734761 8.203649868716216 9.211239515661672
Mg 14.798337494754925 11.074392798795303 9.606797614282028
Mg 11.440064304526707 10.164228439959356 10.148392793726574
Mg 7.077866202465178 10.70171732527153 9.200113525266973
Mg 15.872157464901104 13.938147745480796 9.64530293585065
Mg 12.558045797807717 13.110203757418336 10.178062149155355
Mg 11.6917334736128 7.105214703077052 10.978129440908218
Mg 11.805849641516529 17.083788075852944 10.904893151271397
Mg 17.579994290515174 11.715727987224103 10.621289864610166
Mg 8.87397700578044 15.63388092738701 11.66274616536966
Mg 6.738865487767889 13.214462655373993 10.821934169033858
Mg 16.53437377056831 8.869177624938208 10.809140067521758
Mg 8.905220348002553 8.39716045357412 10.328911696986253
Mg 9.64809409575173 12.63767379572485 10.564216792137454
Mg 14.799833351825411 6.771810882928227 11.883992010872225
Mg 14.36758005608572 15.526702937133171 11.528410058724031
Mg 14.2667115096468 12.455368335935708 12.514597234918648
Mg 7.854020621336134 10.491484179302295 12.180118700795997
Mg 16.99277053999716 13.760934057792438 12.71747615742824
Mg 10.014760560950185 8.48480465380868 13.120878356488992
Mg 13.207792117530797 17.40184169532454 13.622083360190723
Mg 11.090186314793499 11.440977126057842 12.867890434351828
Mg 11.556085014878542 14.510439662182582 12.824537886658286
Mg 13.540835398273344 9.567524974920426 12.203113063405622
Mg 8.310363427109916 13.147975501750762 13.468075032323851
Mg 17.0546086272124 10.539817965879617 13.22781319701356
Mg 8.866311376082917 15.798043177181416 14.749413211563109
Mg 12.628125715680454 7.059057659052171 13.875201750726388
Mg 10.362954042167129 17.834780857712527 13.444884850809986
Mg 14.686884603266456 14.947278485773115 14.442530784368916
Mg 8.939621500183918 10.563397250595925 15.06536174740208
Mg 12.608697039832373 12.637398459193292 15.118975990708208
Mg 15.840518187714988 12.242029624421056 15.323817404244545
Mg 11.884079568448836 9.5798164375229 15.277210335923211
Mg 9.674365859592886 13.301562981278595 16.12684008298129
Mg 14.894700150801295 9.295605036250375 14.88989716949853
Mg 11.842337449201121 15.637841457762933 15.811119107526093
Mg 14.381565016690985 14.056108627447678 17.24106457099965
Mg 10.637451561095917 10.87528435654111 17.62767454728528
Mg 13.72115254236398 11.010603596130828 17.39508385992768
Mg 11.759768432807215 13.477439657540755 18.31780982778154
