50
Energy = -46.92225816 eV
Mg 15.820251342799576 8.70042287542731 9.553400658045177
Mg 15.73097335124047 7.632639250368264 12.34501937277896
Mg 18.0883808703227 10.722919179515241 8.949674725968677
Mg 15.540840337588252 10.77700137057349 7.1593489146614395
Mg 17.336133445503304 10.178094020435566 11.849682499819215
Mg 13.164159129251267 9.911448782082463 9.03299343362547
Mg 13.797075063488332 7.872920586263871 14.446995403842292
Mg 16.017225123543508 9.817762636178868 14.537931091363143
Mg 15.445926237390024 11.743486001295402 10.138858810202457
Mg 10.819935144155655 11.219716018249597 7.904617192615419
Mg 16.351642839950323 12.625321136141194 13.341573030663103
Mg 11.650271968481785 7.352995560465765 16.31466901254231
Mg 16.80918175905459 13.46051678491277 8.018092422009214
Mg 13.827650715073066 9.933058910971946 12.062310610238944
Mg 18.048963509559407 13.183894796492357 10.855178148119833
Mg 11.308523851746093 9.648964443968744 14.253419331800853
Mg 13.492000181022473 12.924042746599026 8.216086596702029
Mg 10.942357419084006 10.10447841997234 11.060683072695962
Mg 10.425371615120495 9.699178249298376 17.58063904200234
Mg 8.593283942536328 9.45814171363496 12.852757007617873
Mg 13.407953003551999 10.065450690380782 16.784556404419124
Mg 8.799843470119985 7.957435062148625 15.512579723411413
Mg 8.15540597779201 11.569917099369125 10.793172137314297
Mg 8.454061558338154 12.960564277814514 8.240196978927678
Mg 13.517641113484272 11.883377505949902 14.41857055647838
Mg 15.975891168073636 11.855941405255805 16.58414331093381
Mg 8.680887266754311 11.008101748833033 15.551017753308376
Mg 13.618211973381989 13.492221674961002 17.108944344180724
Mg 13.292751054408598 13.037573859955708 11.689911793419641
Mg 15.461833774015473 14.909280209641318 10.375935862992682
Mg 6.960550899779437 12.225943285282014 13.479584283833919
Mg 10.784780379827586 13.087389314979863 10.216079677345359
Mg 10.292892106126484 12.260076866095144 13.161909107426277
Mg 17.680907148142477 15.340236186501278 12.84811587965589
Mg 14.651884984347308 15.272978404891626 13.279804479978417
Mg 11.971721490234827 14.380664528961928 14.545297393002134
Mg 10.860733702926998 12.540080902709592 17.070612765339146
Mg 16.465799613953212 14.68060826763973 15.65884234643237
Mg 12.457596021852572 15.498026984016983 9.115366625561224
Mg 13.785017731593383 17.325568994667265 11.146599422695633
Mg 8.941988415786646 14.008615118570349 15.271544836464257
Mg 11.252779228770196 15.60853304548823 11.901203349670102
Mg 11.11775807045986 15.629298252557936 17.097185960356615
Mg 8.288553426978897 14.59387085094954 12.210830654051653
Mg 9.312591665923831 15.564756359992021 9.37206305645508
Mg 14.019407408549558 16.28683146096224 16.1206790066798
Mg 9.762857268655559 16.732466349661696 14.368111405533059
Mg 11.097360618970546 17.999285186162226 9.964534014858566
Mg 12.610141374387663 17.498376565030256 13.88040354850641
Mg 8.65248408367904 17.480241684437917 11.671844914635644
