50
Energy = -49.37419493 eV
Mg 17.27967787207844 12.728083819094591 10.366232741897344
Mg 18.765475177147973 13.286932578625871 14.332952367855194
Mg 17.241068000885498 14.924046525238031 12.373059292168454
Mg 19.4129747815022 11.78544632512286 16.847035353735983
Mg 15.307395415688958 15.724245840021267 10.121163453733484
Mg 16.45523338621183 10.496286033166013 12.229751304560983
Mg 16.7497873306235 15.732746264632572 15.21448128244678
Mg 18.12080821981927 10.300397994312124 14.679429128952856
Mg 14.963985474803351 13.158073189570674 8.473560135921941
Mg 15.169826503814877 16.989019396999232 13.04296518577827
Mg 15.114344325453803 10.432486447845458 9.616589757201073
Mg 17.170445482319742 13.613505616562417 17.285945568054288
Mg 14.378963869270422 7.810263726045436 12.013375197833374
Mg 14.519570674099326 18.722548669736526 10.738014919326346
Mg 14.503545061211996 13.256633755581266 11.757863229452948
Mg 15.813926197189057 12.521477398550008 14.626549095682092
Mg 15.035916506242916 15.676498164132722 17.690772430732064
Mg 16.332069274243985 10.711004076263347 17.18603441730857
Mg 14.13037760357395 12.814196036238728 17.56016136348466
Mg 12.43267959504998 14.450390791275478 9.158129238928263
Mg 13.742334146271784 17.487200709039058 15.74646893814139
Mg 13.599981473421145 14.609616425776341 14.428916462436854
Mg 13.12982469167387 10.446238925647844 12.051254346748939
Mg 11.643055184438058 19.252853828413336 10.34663052290721
Mg 15.213432542537786 9.291249763596266 14.720213135995948
Mg 13.376407763026066 9.834329447329754 17.250242312342483
Mg 13.067463449585873 17.29521724731398 8.619914384453176
Mg 12.47135789839865 16.0002301828719 11.839604668997472
Mg 12.601888183925551 8.582548776833248 9.553753430292561
Mg 12.628094422363233 18.75458839206956 13.239557463849511
Mg 12.330712863638594 11.526664597906736 8.939407391162586
Mg 12.114880813866929 15.143058947143244 17.231079988936933
Mg 11.528571462108498 12.948750796383946 11.754680753827204
Mg 11.131669256171998 12.210353957217528 17.43708741180541
Mg 12.455103619678814 8.353410368222475 14.564797631689002
Mg 12.899790144761855 11.5365973898188 14.813186257955604
Mg 10.876057817351066 16.52921384521942 14.755156225442544
Mg 11.22034561434082 7.720876362492425 11.946990957596547
Mg 10.676446988857338 13.50947559632361 14.462982587938729
Mg 10.297165783080846 16.467326450976245 9.602587662656477
Mg 9.852107430204919 17.966708128829186 12.278606299668214
Mg 10.00291323428321 10.227110273233693 10.42566863537646
Mg 10.428917515352387 9.52395178966788 16.41699372671989
Mg 9.56639135746814 13.22037581929845 9.487117940631348
Mg 9.190121362875827 14.577005578194807 16.81536905553672
Mg 10.204329500272593 10.16179435803614 13.480001995792087
Mg 9.297620458619345 15.064822195716909 12.03787947427297
Mg 8.538142274993687 11.683220616146878 15.549373762932914
Mg 8.337282196295186 12.151057563166452 12.259246922186644
Mg 7.59104945961463 14.280324149257554 14.314299756654474
