52
Energy = -52.08474237 eV
Mg 18.954877984926544 15.940112206853895 13.706710349756563
Mg 15.484375753486473 8.203700155334824 16.856467825919285
Mg 17.54315405694782 15.911218225189419 16.503074756796654
Mg 16.546519645784542 10.810436617263639 15.811828057260351
Mg 16.039421202042732 13.30143002887606 17.567816844754503
Mg 17.629216678239974 13.449826005242462 14.77732000312009
Mg 15.483203778222371 8.761502888986094 13.663317560428125
Mg 12.655242384689249 8.23245027987133 17.79767783281799
Mg 14.498497369860115 10.707466641082341 18.372074229899717
Mg 12.787378085701375 13.205864650792932 17.597559055774127
Mg 17.835019825980275 18.446839593250363 14.464273334735434
Mg 16.424424935718378 11.518889035748105 12.695503948854705
Mg 14.296181421019087 15.693984425783993 16.85463819459595
Mg 14.989584387915814 9.586797354484409 10.561293725662956
Mg 17.38190568683019 14.263928115135121 11.753651937858725
Mg 15.609202274480413 15.892435804757607 14.04524024324173
Mg 16.926308623695945 17.31810875782878 11.68521422418079
Mg 13.534770334237033 10.351234587202187 15.53223090624891
Mg 13.31574165994961 7.143843451473013 15.125032932575934
Mg 15.79365386804348 18.33664836756068 16.56257364217971
Mg 14.512501876262538 13.200024858564701 14.854729068028718
Mg 11.073629473789886 10.679767947893518 17.62604053203919
Mg 14.299015204850178 14.115448556121802 11.929071950949735
Mg 15.679432826133954 15.48152654893998 9.430084174367678
Mg 12.104650179822034 9.424976938981464 9.711316421472407
Mg 12.697853173445585 8.264216863423327 12.439869713830934
Mg 14.86859346714327 18.81622180352078 13.64921081221561
Mg 13.354003028969577 11.231857014728305 12.638831341325194
Mg 10.879215781843783 9.115617434984138 14.95489384636816
Mg 15.98949222963384 12.359025731437807 9.722362713000448
Mg 14.444894654375224 13.593439334678465 7.3409402282131175
Mg 11.570567000927513 12.478221514041454 14.766488201319259
Mg 11.255262435100233 13.558498469694252 11.923806200490228
Mg 12.935192730675263 12.30648491055404 9.885203281535961
Mg 12.643499178326467 15.299544475713867 9.149619968352596
Mg 9.668321197390963 13.212028454180057 17.064176702536205
Mg 12.479922685147992 15.60316209720954 13.983860891077418
Mg 13.818960856619327 17.095562241235267 11.363463334604315
Mg 11.023674537314356 15.840008849590028 16.638321938233542
Mg 10.427411338029584 10.421373203526306 12.223800968888604
Mg 9.892079553867656 11.48227248794741 9.424754387321098
Mg 12.905506205060277 18.179167363672196 15.954055911643259
Mg 14.035841544251287 10.650434019139915 7.643335409536019
Mg 11.81356874359417 18.63368918575007 13.17697537289652
Mg 8.353720946886899 12.739026064766785 11.80193782427901
Mg 8.742249543450496 11.393968679349163 14.655559819173202
Mg 11.589114348366572 12.658195172059653 7.191634342353978
Mg 9.806631141610595 14.356597011930303 9.142325988633553
Mg 9.33990807479878 14.42901315963687 14.218885884849836
Mg 10.702331982977434 16.470907339714596 11.270880666843542
Mg 9.234386162081242 17.30426463804061 13.831498713711674
Mg 10.029035350881259 18.818146429112264 16.18156936485957
