50
Energy = -49.72381349 eV
Mg 8.791655493624486 12.772622856516296 7.343939114721437
Mg 9.7322930496173 10.0158531127443 8.216511383917831
Mg 11.664647031541891 12.417249169372386 8.573848961151427
Mg 12.755507169296429 9.602784237584142 8.665786549777362
Mg 14.48555029886741 11.975707159111566 7.5013279625047655
Mg 13.072969470204873 14.98895881061797 8.142548594974453
Mg 6.756646709245086 10.939300984094524 8.387850636064178
Mg 16.03185638838062 14.537256332413008 8.000886953244349
Mg 17.414546119480796 12.0100802782202 8.557221738163507
Mg 10.00861136307196 15.074622973218451 8.709397569843963
Mg 15.571406800005363 9.821028423088716 9.567782825511985
Mg 10.675830262231694 8.301251556373204 10.511354067742824
Mg 7.782933064757552 8.851324450625807 10.285191508856604
Mg 13.612859429203947 8.041771175238477 11.129828816299776
Mg 9.358924869355114 12.099848518387816 10.543038633657856
Mg 6.98403210845852 13.707927157497208 9.718334635284371
Mg 11.85634140405807 14.17467786708289 11.133878135507775
Mg 11.877944224476654 17.057684421006755 10.214057171231735
Mg 11.996716068588974 10.999029411023503 11.532241368922888
Mg 14.867608730350005 16.043028409531534 10.353568707153176
Mg 17.39977327862987 14.172631874094451 10.728598580871443
Mg 6.17467446354744 11.045485746146689 11.286515497796703
Mg 14.574413134175787 12.794955048025066 10.481283846329871
Mg 17.620878881265636 11.148227158796708 11.40013967820042
Mg 8.902679524229878 15.29073346182205 11.487963596363516
Mg 10.617184052899987 17.09746283874129 12.992591761985503
Mg 7.321135322885897 13.125234111987147 12.911902046159163
Mg 13.629494176583496 13.300047337010175 13.430907541977323
Mg 14.761907298747722 10.552453873406227 12.580712778184544
Mg 13.480657483604395 16.490663411584837 12.92624612525838
Mg 9.078957406768257 10.135657319806905 12.80232431054432
Mg 16.36399495345194 15.906226834307429 12.997338744297593
Mg 8.685778289278714 15.221404926357742 14.581232356954168
Mg 11.504855866233314 8.05735305728521 13.357878319275603
Mg 16.777946763554738 13.011548108789752 13.559671764423369
Mg 10.48100609749016 12.89620674208411 13.522097846864094
Mg 9.625857375864088 8.977037745654775 15.518868306873689
Mg 14.979484234984596 15.05886804600192 15.577991026529666
Mg 8.34420331051956 11.755247179579644 15.435222366326245
Mg 11.801700388543637 15.368587652376721 15.13445821265185
Mg 12.435593375713662 10.76287004378149 14.733561905683525
Mg 17.102617395932214 9.969960520149524 14.32642843220374
Mg 14.443504258001083 7.853776261246409 14.004804199750659
Mg 9.842557028726073 13.894906321491185 16.953472490192585
Mg 15.260881534832938 11.904359882101488 15.900549974413256
Mg 12.396312054790943 8.196482929708004 16.461423736679734
Mg 10.636570642115514 11.01188529728314 17.420276595827183
Mg 12.824176652085718 13.27697601956252 16.961663193621817
Mg 15.351512682244715 8.907702631929507 16.560967209078058
Mg 13.468681940383854 10.570910238042227 18.06218214305143
