50
Energy = -49.60348184 eV
Mg 9.8153585736884 12.758321354479829 16.04053019556827
Mg 9.299520362836951 10.096803138712845 14.763393942948744
Mg 10.951207804666621 8.79684075806277 12.676137877153586
Mg 9.431121834088966 15.562219558356045 14.495534477639012
Mg 10.446146209752582 13.553543016713315 8.753732165878244
Mg 8.008937211648929 13.42620102008205 10.597248074512288
Mg 10.770507041662777 10.240274056334393 17.43626945858225
Mg 12.578983629231285 8.619550990819626 10.168949131455353
Mg 12.353321848213424 8.738869313155385 15.447713972575489
Mg 11.23696571941519 10.570467279158391 7.945704846149369
Mg 9.634361444115315 15.412278927258837 17.549422379953437
Mg 12.81123568795011 15.407394245531853 9.391330914107964
Mg 12.403963415639614 14.430521670699235 15.197028686353313
Mg 10.910521874127257 17.64784934178861 16.145852038491885
Mg 15.582298901060675 8.227817944650146 10.283471070625318
Mg 14.26879470688587 9.873480420885777 8.095030335805886
Mg 14.039923981079001 11.000329376806416 11.646359698095907
Mg 13.356768761047514 12.508135505907472 9.001798744670825
Mg 12.38916743586214 18.025071768250314 10.65932423386091
Mg 11.068422584026823 11.39073755581382 10.922139636868936
Mg 17.125676376516978 18.79190354785762 11.852038008256958
Mg 17.556320056943655 15.790261635185097 11.957974859548067
Mg 16.86562507382034 9.739077151544807 12.463649611412103
Mg 9.597590493393504 8.833013422610069 9.815955390865962
Mg 16.460547789879964 11.183586005578421 9.71953307880372
Mg 8.326600227819936 11.249083859654917 8.703082132952911
Mg 15.340471873826264 13.95227701938932 10.753453497579873
Mg 14.033587827338863 8.108156009937357 12.911868529038822
Mg 14.971429705532895 12.828332401728332 13.973318370062387
Mg 17.68761105379078 14.325624289589538 14.664873990065068
Mg 8.184455178446756 10.545868590051809 11.877883461523574
Mg 12.5405943561762 13.816855934188544 12.089190390266863
Mg 15.230272130194221 17.081623838303564 10.344698001536798
Mg 15.24395948943085 9.938497314003348 15.031798487710542
Mg 17.72160167349007 12.660293593055886 12.107024954448612
Mg 18.09620140803392 11.292766117135622 14.746908910307218
Mg 14.329778112518218 18.92773938419088 12.897521179194547
Mg 14.607412332701996 15.74228090632266 13.180830967540816
Mg 12.086773501341192 11.42445441007883 13.967450908054099
Mg 10.165151924773037 15.575395540099134 11.188722776198057
Mg 11.841574137230552 16.977037853283726 13.355911137412514
Mg 16.695012291593656 17.386011439264426 14.524108951257183
Mg 16.451476995157623 12.33698088507619 16.891072074318178
Mg 13.4124511202723 11.674036226464324 16.673060176756202
Mg 12.735440750540784 15.948426130992356 17.938814524499506
Mg 9.609062316751034 12.970695039059617 13.06340464637951
Mg 14.494813994722033 13.574374756388229 18.80244092894134
Mg 15.245914371808414 15.108969677255278 16.249505811418793
Mg 13.832142405745735 17.717740339788214 15.634771230202757
Mg 11.524687464494615 13.223995251592058 18.47290481212265
