55
Energy = -55.99177286 eV
Mg 14.202010472755125 8.15145929421682 7.819522420695307
Mg 15.842873592781674 13.053075728621957 13.925040170978697
Mg 10.29082244218214 10.715787209362288 14.06949482123272
Mg 6.770204625491763 12.978164356199922 14.333012335832827
Mg 9.731922497331489 9.696689387565531 16.926157404404062
Mg 14.59987421284678 11.258470255874697 6.940768023512008
Mg 16.159662865647025 10.071719786068332 12.753243688072107
Mg 11.979756788656685 11.661519906005944 16.742997312326825
Mg 11.370721662780042 14.704128985299022 15.890940254971424
Mg 9.959142234722783 9.039250923453391 8.39145191739516
Mg 13.94971050354828 15.933694513005454 9.08605827346695
Mg 11.10836798827858 16.607979877804155 13.515660354735477
Mg 11.486881487950656 15.019253644964493 7.295644178628999
Mg 9.270444296251272 6.089682535083352 11.857626207996056
Mg 7.617367324594406 8.250702569329485 10.212391719391674
Mg 14.57536840239006 10.676297223889451 15.324856750045882
Mg 7.043182962319145 13.571033114462042 11.246285896835765
Mg 10.23138126062229 8.92291761011164 11.541228705580966
Mg 12.908246451075346 12.950184930390671 8.910475938435255
Mg 11.549122869791455 6.852851682296162 6.951750388882019
Mg 15.952037590802199 13.442017945713712 8.832000494588545
Mg 7.018329589937088 7.78959391114279 13.137504306903283
Mg 14.261100039407118 13.575152847303197 16.447071572378462
Mg 13.885667517897248 15.560092132380818 14.182944812871485
Mg 8.594217103541054 16.209285040975022 11.805241192374455
Mg 7.3767910037006885 10.03351230655998 15.212023434422074
Mg 12.630260150902789 9.977182284230386 9.5305486291752
Mg 11.923186696744242 6.886265873841179 9.977271197821993
Mg 9.627000163462943 14.1399167896852 9.648557184793752
Mg 8.142130295699973 11.337267695660003 9.404356548934448
Mg 10.419110729280595 11.926950078809313 7.602147181961754
Mg 12.896202907195297 9.827111018794271 12.731324469122523
Mg 9.118438765520043 12.662092626105075 16.176230470102148
Mg 9.323760352617544 6.035145083117541 8.876866669869175
Mg 6.042512955621865 15.692049597553671 13.290615980626995
Mg 9.582540980631599 7.696385671873381 14.540175676386
Mg 12.560077509008151 12.67722301219676 13.870578046365267
Mg 14.60961780157262 7.882670233922699 11.072740292627934
Mg 17.37813162437632 12.476010843380307 11.266564779788585
Mg 12.325644479583051 8.642381158588814 15.652451250996616
Mg 14.209072071549537 12.11310501742496 11.395457518269193
Mg 14.83550951227526 7.770533533016283 14.169465286662508
Mg 12.267011707780865 14.485047982397548 11.514859339847979
Mg 11.093775884303026 16.835081253782228 10.036853103319826
Mg 13.509946482151259 17.32453144652657 11.751024854992474
Mg 8.545795684129185 15.563589563786511 15.035435000363387
Mg 9.663304325029577 13.578305664077579 13.08984834415787
Mg 12.176218910485785 6.727000955622433 13.072066025491468
Mg 15.838228889138813 10.297422404196286 9.584425508566962
Mg 12.402903111647777 12.608612617646914 5.3690903667313865
Mg 7.7879550893297305 10.769792086507415 12.285231965273749
Mg 14.385501391736154 14.41129185670562 6.485271948644479
Mg 12.139666725783119 9.694642562200029 6.195241678562948
Mg 10.928464588126864 11.766166833035049 11.112584374972398
Mg 15.517347427014316 14.996231537235003 11.525848728612196
