50
Energy = -49.21485758 eV
Mg 7.5691271911875555 14.785891486332273 9.19482390578316
Mg 12.196927214796055 14.060839692907763 12.844197725057253
Mg 16.196009402097935 12.709696518978248 14.377991026928203
Mg 9.747364722412897 15.383493973853637 14.592715544160987
Mg 11.496968446366058 15.435589496674359 17.06440775449539
Mg 16.43592259135515 16.417491729438996 10.643408736149706
Mg 6.887954019452628 12.541999297789737 11.333670844808049
Mg 8.977101253148358 12.065878060196312 9.114722022269364
Mg 9.562134626680717 9.362199886662951 7.996953822854826
Mg 12.761351811549412 14.339307908255327 7.925708295827966
Mg 10.223880928737499 9.005404844543339 14.270201491450427
Mg 13.334543035121214 8.34993729738212 14.99436921597139
Mg 7.579461416196964 13.15671354010991 14.387674659519108
Mg 17.331319096164837 13.761072984248381 11.668224003507781
Mg 12.580905481092838 10.835463454650975 13.229955999955912
Mg 11.054987539510229 12.524137524862535 15.136392588652965
Mg 13.380587099562506 15.768989665136315 10.573569831653222
Mg 9.843231179939817 14.450761571831215 7.232444074477357
Mg 15.605170484053549 8.78573059025886 8.298720178329807
Mg 12.149691511831326 12.678637932314645 17.94832175111368
Mg 14.326002768714547 11.532234302832238 7.8746898361938005
Mg 10.582005253107823 14.411797202885168 10.259940595587508
Mg 13.836611085643069 14.091029590822396 15.700665133412548
Mg 15.559161157293138 13.975039443435895 9.118630525573792
Mg 14.947506104534005 6.964618604524495 12.887779771929601
Mg 9.75406906714935 16.96298796306366 9.054025114830784
Mg 14.215102897119229 11.093657489512672 15.986564686965291
Mg 13.884718626541314 9.608596885744543 10.868280956682353
Mg 15.6849691673193 9.908319276676508 13.315725488903615
Mg 8.612328387562897 10.8059988096753 16.023137511979378
Mg 10.80240271000035 16.89508384792862 11.999504720691453
Mg 11.279770366433397 11.759726528485107 7.01734083580642
Mg 12.54230009208441 9.09711209435199 8.152500691354064
Mg 8.175785504387068 15.209890069983832 12.072384672839997
Mg 10.539335397562507 9.712490877546099 11.024928892782407
Mg 16.731247492064302 8.058425578593454 10.895773341768642
Mg 9.76542870368833 12.247411730388468 12.352184310152962
Mg 12.586071586700374 16.681860323377943 14.484993047047128
Mg 8.755694897532422 7.503086384863167 12.032796658164157
Mg 9.1283253266631 13.607550308354778 17.168911867656497
Mg 14.587881701828625 12.586548866457036 11.72387463931704
Mg 15.114297735093405 15.376804700092334 13.180508866714916
Mg 11.529021914129741 9.933366970505094 16.83194548634828
Mg 12.022277878111478 7.4312454360158 12.411323447295192
Mg 7.560392125550492 10.133688434001401 13.221806173599422
Mg 13.973591681923802 6.745600871807073 9.956536476731682
Mg 12.164037604808735 11.971074548345587 10.047946604755602
Mg 16.61022702027123 11.043194752072335 10.107551802721524
Mg 7.488291906019298 9.674618507706594 10.268175445570904
Mg 10.807329075196368 7.038526429815005 9.611923209949493
