54
Energy = -53.38097644 eV
Mg 13.48082990648117 11.029084878601056 17.57529347894174
Mg 10.671506298220509 11.904725610787555 18.115251299136396
Mg 17.27281528744578 7.627274697728385 16.43703560846595
Mg 14.369306193732143 8.195213823010535 16.77387542338771
Mg 16.75612318254167 10.577486862967104 17.148237395246674
Mg 11.332228150087394 9.060121893219652 16.857466199032487
Mg 15.21464123282764 13.174406761348022 16.452937403843038
Mg 12.298513549084698 13.8403201542373 16.500250080837546
Mg 17.404731889623303 15.244355120166013 16.22341399108029
Mg 15.719685282135517 7.893726485435186 13.677163672807266
Mg 8.641064396282406 10.611047627826885 16.54824529575721
Mg 14.805472384487052 10.557075200203574 14.788431097419599
Mg 18.07816500196229 9.68400289441149 14.509769172256068
Mg 12.642605243593637 8.004246151692172 14.269016130259365
Mg 17.235109962044692 12.601016774155045 14.295605991305305
Mg 9.828327493207464 8.977438319531851 14.206673958833205
Mg 14.422482012905155 16.028609515874244 15.991958707664143
Mg 11.714034906650161 11.386451706363575 14.780016536183977
Mg 11.333399276496351 16.573451387188552 15.721441755698061
Mg 13.758148555814099 7.183492570954486 11.491855779748638
Mg 13.353739767311783 10.197398758886907 12.204965703450757
Mg 10.909992029460842 8.56939614211482 11.316477940503193
Mg 13.961514821182364 13.200517116353598 13.395892494411058
Mg 16.497709331966266 10.530055277725456 12.074104612902827
Mg 16.269102452175897 15.466253676597788 13.501743747397349
Mg 8.675341421054439 11.762101409140763 13.796256016848641
Mg 9.176586948183306 13.794368447610607 16.186764029073615
Mg 8.06984990832843 9.520567216523476 11.771778464186369
Mg 8.461970949052576 16.698428652507225 15.11895595207273
Mg 15.143941989376989 9.119518291210246 9.715167857987147
Mg 17.085738739369948 13.450209653941833 11.285563972745939
Mg 10.856627623055259 14.219680484072882 13.613365305669534
Mg 10.824588425090694 11.739247013725763 11.668776233680648
Mg 17.22258141923918 11.302068196446612 9.137963526056751
Mg 14.407483544603076 12.29263600280278 10.377188277357346
Mg 7.620917692931106 14.48330895378698 13.366299071271998
Mg 13.328056576506679 16.270438741165385 13.238831793204353
Mg 12.216212624126607 10.436062647387006 9.118391529985999
Mg 15.034313023578742 15.61028811507216 10.724625049207214
Mg 7.801833580581175 12.337718475618752 10.843976791068302
Mg 10.481185334594828 17.339288926797327 12.865276551192736
Mg 12.254122638509537 14.319709319035857 10.821217377806976
Mg 9.169861463770195 9.96564217241517 9.133018268915794
Mg 14.852041634200171 11.0520753445884 7.430870099116978
Mg 7.514049034422062 17.384760940135585 12.250810524335124
Mg 15.899503924476639 13.953109554983723 8.270841315364438
Mg 9.29361235078143 15.002728871723113 10.936325481095238
Mg 10.078365647411541 12.73358243440061 8.827691231740493
Mg 12.873724689121447 13.339961026981044 7.755523444833393
Mg 12.49108388515631 17.449671818650145 10.554803540729598
Mg 9.4458555014343 18.010595623481368 9.975601861199923
Mg 10.822324463426035 15.637340541200395 8.327784204200396
Mg 13.845477689221497 16.24036228168494 7.962949644902299
Mg 11.584554619515103 18.483354067155258 7.868295105114191
