53
Energy = -52.23979779 eV
Mg 15.37957126529991 17.594904017068043 16.811747150261535
Mg 13.063868059462914 15.633727150275803 16.895919127097724
Mg 13.02905008326839 17.914140486063147 14.817694408928405
Mg 10.761887380357523 15.914371189964873 14.820865929644276
Mg 13.588600281484554 13.396544701747557 18.98491285875084
Mg 16.079238908998544 18.242395156710547 13.93486544334668
Mg 11.190902412283044 13.359483871869182 16.832694512293546
Mg 16.156549054439488 14.777572757533177 17.566241011413485
Mg 10.906858943259696 18.052936799597994 12.30891062749163
Mg 13.78672534912657 19.233710435041225 12.254985431999682
Mg 17.90252074494149 16.4500136023822 15.789420407086913
Mg 16.435132535914278 13.11487953555849 20.067406504367302
Mg 15.08059897479393 10.665858996331401 19.38277980031736
Mg 9.152349104752002 15.432403953046364 12.246382800870245
Mg 12.526101937977378 13.458871111560809 13.974964294949364
Mg 15.012291704421221 15.336810544059023 14.495370337666884
Mg 12.569332254488879 10.712977211443041 17.75258236023954
Mg 9.328895555783527 13.22271555532297 14.379391696541003
Mg 17.576242346014087 13.598483655922116 14.794438590255648
Mg 12.944578989656282 15.887160953804058 12.30041012362972
Mg 17.926387882402814 16.015400246664278 12.845867357655983
Mg 10.296098311109247 10.634935673682145 15.832981208404824
Mg 14.500579564252995 12.665667357984235 16.12786475791289
Mg 15.617238054859666 16.972977846945145 11.157722170664904
Mg 13.054873370170883 18.018549138363763 9.763590699130042
Mg 17.085289269840754 11.740612658137266 17.30139396179158
Mg 15.121701275673338 10.140512931578165 9.115103405639537
Mg 12.231800624383148 9.611305384430366 10.294437217907223
Mg 12.82821880231764 11.988290762745441 8.578457190095557
Mg 9.85639651237846 11.371299899927896 9.303418460928492
Mg 12.174874120182412 7.94751934122219 12.811178300701462
Mg 15.868834246725415 13.010502332866126 8.93765763877333
Mg 9.313857548165887 9.113482521365727 11.3874385147576
Mg 14.951610436558392 9.021129416559209 11.894437792368079
Mg 10.8555805742743 14.031180241802128 7.620258001341948
Mg 13.874580030843306 14.046862208599388 6.665862691689105
Mg 17.064543671572633 11.180917570183615 11.095032124325853
Mg 14.745465315843864 7.526258919581034 14.418879951318603
Mg 12.210722595160854 8.116754929718306 15.999692537689286
Mg 8.494497612472475 14.231901252311655 9.413976629242251
Mg 10.943989058250523 11.107203381227508 12.728669710968159
Mg 13.837078562545855 11.938533923747904 11.594991688090579
Mg 9.666275392840085 8.089169649849092 14.358682193299188
Mg 8.189702403966356 12.410399230887606 11.658681458479771
Mg 16.161538684371635 11.067501074149641 13.942172739540561
Mg 11.27138123237359 13.548792066516032 10.98785715622102
Mg 15.963046950865493 13.937404810387442 11.924015687160187
Mg 7.951950774079543 10.490990186024199 13.908855010026581
Mg 13.261742858190644 10.465871072427763 14.409480434271355
Mg 13.723834636418285 14.918954726219056 9.631852995981316
Mg 12.454795599858183 16.55930598871228 7.190395077100349
Mg 15.113684111083998 9.427579039430624 16.677264339654787
Mg 10.617385005749988 16.353123506955814 9.710698456221412
