51
Energy = -48.7973999 eV
Mg 17.13204752710278 10.314715554145897 10.79877080973224
Mg 19.688229344152134 9.806877805210922 12.284425350242119
Mg 15.619507003425088 14.9434167902815 9.07124031420798
Mg 15.378261448292559 11.814314033270438 8.963978404676578
Mg 19.255961455000016 12.612202259187029 11.477418059229375
Mg 13.026357974158506 10.471607804837216 7.584031632655987
Mg 18.229994737957806 15.263818480193535 10.650743091280194
Mg 13.023080270443579 13.484633010445416 8.003108552465694
Mg 14.31199456782255 9.086428821888413 10.071493591810048
Mg 17.11468044627847 8.67896033886171 13.404385988434079
Mg 16.145656301763392 13.194047626144432 11.549198131468739
Mg 13.010417644200178 16.46382138284652 8.81318070620411
Mg 17.612516435483176 11.540627260251513 13.78858889075455
Mg 10.885224328375815 9.145939254578693 9.289878827450071
Mg 13.429708820345349 14.368304898496373 11.159782121673253
Mg 18.087601068294553 14.520792931276999 13.62766932755062
Mg 10.345924659375964 11.952530589739577 8.393303629015696
Mg 12.594017865127409 11.620921049892392 10.521870458591266
Mg 14.495271224658582 7.540807382598836 12.751761391181876
Mg 16.88024652766004 17.131873464346633 12.531471641524307
Mg 10.712407289012894 14.647852868561763 9.5499901456282
Mg 11.975729923853264 9.030329439840497 12.06885570588422
Mg 14.65639152075691 10.719621136785753 12.712155624183156
Mg 14.1498843228985 17.30824826965447 11.502031930388505
Mg 14.906472196162118 14.882112550058084 13.693800171846965
Mg 9.59407856848742 11.145825367825859 11.301678843116806
Mg 13.046864878757967 9.086249587507885 14.961238309517453
Mg 11.145657736533698 13.297568666777625 12.741122889563231
Mg 15.712614027061491 10.206382850155729 15.70280050303986
Mg 13.347421234322825 12.365505257696567 14.868176781151696
Mg 16.882720805038925 16.561385003601345 15.496300856243332
Mg 14.05905321687392 17.687054869256542 14.714157517897918
Mg 16.428767765621675 13.269238175363709 15.867029656670121
Mg 10.459411274382528 10.427884388648492 14.219102162835705
Mg 8.42090573679626 14.267588528227895 11.349708957128229
Mg 11.033439973793168 16.342766331355588 12.048350315234016
Mg 12.170633392865682 19.091261748052993 12.714683834421354
Mg 12.144964369265809 15.267065574753419 14.861725161983857
Mg 11.671376637040451 10.746790959362805 17.11407542037522
Mg 8.135978225265568 12.346062599583906 13.68930005132843
Mg 10.368161833764404 13.089468589862228 15.71180411617759
Mg 14.402333225614305 12.045209279906153 17.709098204008953
Mg 14.556382321386995 15.354552332303248 16.88595403379837
Mg 8.984071951418425 15.353902583107807 14.112044435353504
Mg 12.111025479345228 14.054590985181413 18.017146299149253
Mg 12.284037767651567 17.202575326603508 17.300414595552187
Mg 10.582052814021292 17.83935685013277 14.861115288451511
Mg 8.579021370724176 10.8397853040164 16.50539115992207
Mg 9.677182483663072 15.790793011040648 17.056179441894702
Mg 9.367895646006614 12.904638501703396 18.644327543979305
Mg 7.415306956647586 13.838366691256754 16.401929534926463
