54
Energy = -53.53330693 eV
Mg 12.183509701590502 17.296837922736827 12.691242713606103
Mg 14.374273413583573 16.84418822116383 14.732060244056076
Mg 13.089894285834063 16.982325315892744 9.612670508966852
Mg 9.16958067651341 12.010679546259432 15.313406199809942
Mg 10.014328750688177 14.590755513914663 17.075126541298758
Mg 11.828242206573579 14.605263955522679 11.195774458770915
Mg 13.748221321060578 6.401126546901122 7.4267854641674145
Mg 10.40172974058415 13.040247912215381 9.039861378201119
Mg 10.154044094819227 11.972004934583225 12.075469983462211
Mg 10.99904280856386 14.284975192078205 14.116392770461113
Mg 9.216714610822729 7.698064116015615 9.160734460434929
Mg 11.68767974389899 12.080388859764556 16.98557359089179
Mg 9.013108742298485 10.527759397345653 7.879375769510898
Mg 13.411868549234914 9.020808349513073 11.614061210280326
Mg 11.979210908207735 6.851508714054599 9.875670801002807
Mg 7.143927041020118 12.146951765149746 12.867400501850002
Mg 15.923356935566476 7.677466967763494 13.014047079395556
Mg 13.94811181988188 9.294533809068843 8.644814657864806
Mg 15.41869386297815 12.017050664854457 8.657966063722359
Mg 16.11101995856859 14.79170574112916 15.997254018952871
Mg 13.297498660482741 11.976423675324163 10.871945560676517
Mg 12.319307067317647 11.25701451831228 14.026434179654014
Mg 13.359193545770884 9.579134160013595 17.075235231344024
Mg 11.399792039511746 17.052470193219413 15.654341337548509
Mg 7.49216203790395 12.455915881547996 9.752677702237186
Mg 13.261171841505465 8.12051559523025 14.517287407829967
Mg 15.18705187584775 10.766942299591054 13.195518908952314
Mg 13.331191228274658 5.999618672062451 12.412825000542021
Mg 10.913385253241957 15.880995886298654 7.832855397188058
Mg 11.13908848593581 10.023956929836041 9.962733840954217
Mg 7.74433156207242 14.613780899993689 14.677380101721113
Mg 14.036466486407253 13.845934351732057 13.442926658376914
Mg 10.630730441973117 8.349258419640577 12.549873360937791
Mg 15.133521115431348 6.7073347540192465 10.118368669273677
Mg 10.604721921858188 9.323357871933707 15.737107948000085
Mg 8.220067085254648 9.54830154891946 13.939547423652627
Mg 14.713807069879394 12.118444776905083 16.21469079376176
Mg 8.42564460219302 16.98229038649685 16.406357647990255
Mg 8.210304253594577 15.242354232405024 8.813548567257499
Mg 16.243869866007053 9.698360335247951 10.553754568755124
Mg 8.603726985298914 14.635312232348932 11.723958660167751
Mg 16.040480034773427 9.36812884443836 15.624466080774683
Mg 16.833295542273664 12.548050038088585 11.428887050310067
Mg 10.025519635413648 17.094331665628058 10.464079157191538
Mg 9.264207722512978 16.979538836727603 13.458616436822927
Mg 13.113558411013926 14.704850907036622 16.505742942112303
Mg 12.281043341174442 11.397816053926574 7.398790211921456
Mg 13.250435465003667 14.133579158390672 8.234688119671155
Mg 15.115042360092525 17.386083959594238 11.858788652087421
Mg 17.199927876301473 12.477311771782416 14.525580993853634
Mg 15.115289345130419 14.725572645098138 10.430115815421964
Mg 16.83966236823397 15.222321715244673 13.085192602804605
Mg 11.325573135273242 8.434543528036865 7.177591084825632
Mg 8.11091562984488 9.814053274094531 10.950946933768495
