52
Energy = -51.78943618 eV
Mg 15.306279537711402 16.863080745845615 16.57334568670582
Mg 16.924870834857245 15.833378279459694 14.254967444144619
Mg 13.247906810456612 19.142931819758182 16.166746588350524
Mg 13.925881898267251 17.880652960204365 18.93783716073575
Mg 13.478784033212978 18.320926156855588 10.759250553673953
Mg 12.505350211157623 19.931568712894304 13.19270159084559
Mg 17.54568760339311 12.773983033951023 14.132445944974544
Mg 18.17851627768408 14.516946083706491 11.844615175855838
Mg 14.367188855598961 17.522709320926175 13.722370306205182
Mg 15.805598726969295 16.319754036856622 11.325787840146413
Mg 15.78293763843874 13.858985308813297 16.368418807890276
Mg 16.02784960039951 13.459379689936895 10.13880192492573
Mg 18.20936178066624 11.516924957795664 11.3083734758582
Mg 12.990893046125793 15.153602229564033 15.396409557391788
Mg 18.152966389969436 9.809807205960208 13.744284387118462
Mg 14.693574124712379 13.991017566851879 13.174100792161603
Mg 14.00675666045381 15.425750047515905 9.084572041389427
Mg 11.473875049247697 16.928416859882507 8.956182594740225
Mg 11.58762075311012 16.909480951813332 17.572794797064464
Mg 13.697455629166782 14.809103081456346 18.43865416789157
Mg 11.228561574824312 17.525210110546002 14.537700392246053
Mg 10.566477734877482 18.156847650580062 11.553330531330797
Mg 16.74302680283239 10.921925393790206 16.30656344770398
Mg 16.498100418895817 10.670241978886637 9.017354649429619
Mg 12.403475060693795 15.772655556055081 12.112371208219145
Mg 15.233337893438694 11.217600111242085 12.34559401534286
Mg 9.162784245688806 15.815891274434456 13.20135013788397
Mg 14.780867719665544 8.988285062492736 17.303353566371186
Mg 13.724797879078839 11.597608406065257 15.140853864497892
Mg 9.862334853345468 14.952544256089581 10.445095954800028
Mg 14.345156049358701 11.887662656167409 18.244777828015724
Mg 16.495639986512664 8.682314870236464 11.341001591679605
Mg 14.18206730659655 12.411815649841284 7.95625336171617
Mg 12.874692151475505 12.882561983477038 10.79574003874311
Mg 11.463534581875166 12.81934998304006 17.018731855443242
Mg 12.233671049901124 10.52157396870218 12.68252035548928
Mg 9.837792092678018 15.118170588407246 15.991602702284917
Mg 11.274624684638018 13.259700083932946 13.569597147240904
Mg 11.47454175080121 13.915508531196407 8.085436816865663
Mg 15.458282726374431 8.738111166226824 14.326294141365986
Mg 12.712833539552106 8.240239022764278 15.203854221442205
Mg 8.069523494038043 13.245739498814688 12.185056394849454
Mg 13.780497112354356 9.803628071427967 9.883594492094883
Mg 10.478967053015047 10.293082257866475 15.320067258538394
Mg 8.625312185196597 12.558108319976782 15.096891053484928
Mg 12.083210059008135 9.940938618909758 17.75031540424146
Mg 9.847574202878079 11.95084588591533 10.145398047355542
Mg 13.515585053721383 7.829220762137387 12.13763265781032
Mg 11.648882936093964 10.906470971544325 8.091159416125668
Mg 10.853402246617975 9.026649951280923 10.371529909203662
Mg 9.034402415476817 10.487266145462566 12.688723312510236
Mg 10.564570695744521 7.894971244442899 13.144315447079718
