53
Energy = -52.23087475 eV
Mg 14.63617996249027 7.700489505293691 14.19055231887119
Mg 12.017847230470718 7.950767387012447 12.893020123855633
Mg 12.153577530371365 7.6363184891978015 15.854685917873972
Mg 14.626477245378283 10.269664147709712 11.924723157631181
Mg 16.53625075394903 9.952611932025903 14.416660024869216
Mg 14.652443565526072 9.300020395586241 16.862483692342447
Mg 16.74114269683237 11.606821625014195 16.96178620567644
Mg 13.145434379300987 10.641980209741606 14.503691579375017
Mg 18.43863190370683 12.449630751976224 14.637579361141196
Mg 16.33865362218242 10.860742648102688 9.294089918831117
Mg 17.638917762038897 11.399780766564971 11.930499091334646
Mg 11.504632096064165 10.623451332668415 11.67433889376816
Mg 10.233466602164071 9.82227422998655 14.557281675504884
Mg 19.028340013524076 13.49158220483905 17.51265471110257
Mg 15.645157485341556 13.36792612284687 7.9898461315863365
Mg 15.30201501523749 13.213077942365244 11.138399827263978
Mg 17.668401496926094 14.769543793136267 12.696966058897432
Mg 11.697564521107696 10.11156669600812 17.353072501706503
Mg 19.780485436024442 15.019939292271593 15.099961178184863
Mg 15.290463849575724 12.76810921810186 14.152722148831609
Mg 13.910302502815318 12.48326988216323 17.042672662489
Mg 13.301390691246803 11.719601039526086 9.346667829165243
Mg 16.291812647957954 14.10113853962145 18.668813471745615
Mg 16.447858477093614 14.970752229363816 15.721673127352984
Mg 10.73644293727435 13.175753891032805 10.094723259076567
Mg 9.491225223648964 12.401512662741691 13.013306410485677
Mg 11.26426490893394 12.742843129971211 18.769501923910408
Mg 12.555160373477792 13.34481843023775 12.778172596125712
Mg 18.544220376116023 16.476264279221677 17.535429461995903
Mg 13.305047362289418 14.849191266266095 9.36020138085964
Mg 14.683002159036826 15.605405073560185 12.89495279497134
Mg 11.06041313971119 12.687201027770783 15.6474316801533
Mg 13.388652750712271 14.955378631145368 18.81044592043529
Mg 15.623525214839969 16.998945567768374 18.16900625038893
Mg 18.159611042239955 17.35402216534869 14.545633893222313
Mg 13.264702073785793 15.136832343028198 15.536854923173765
Mg 16.13840411398992 15.825431004429998 9.830352538575994
Mg 8.627175463493288 14.827955433472749 11.519049663934261
Mg 15.083149721834491 17.772007546564502 15.169098042801723
Mg 10.660495366539717 15.27399310840794 17.320735395243435
Mg 11.387940213042526 15.980566478249527 11.240851404038231
Mg 10.37789410098663 15.231376524770186 14.107647043397769
Mg 16.65147873347979 17.823237510872726 11.98230691426395
Mg 12.454435098564502 17.599267734871457 13.508737047147582
Mg 17.335610671913525 19.274369733092396 16.789379400048592
Mg 12.687955755654432 17.59545229722282 17.56563856994214
Mg 13.864712442081165 17.715292576524224 10.606259578416388
Mg 10.431386478197762 17.818488582407223 15.697196515382041
Mg 14.437498120033403 19.871054076770278 12.883525869061126
Mg 14.581125636390093 19.898047706614875 17.81968896023913
Mg 17.30396578059015 20.16606915196494 13.827852036884034
Mg 12.665964024890963 19.943140881360748 15.488854452151745
Mg 15.324318431777348 21.417366879446668 15.433701721676629
