50
Energy = -46.94207609 eV
Mg 18.66497228192057 12.664445630990867 14.189540242454841
Mg 18.101421868296992 12.305456759542205 11.206654652532874
Mg 18.10211909005957 15.39791058869794 13.2411499191501
Mg 15.811981620749796 7.824532661947292 12.44704390553432
Mg 16.467801183793366 17.053946934859212 15.108515851252802
Mg 16.272476867870463 11.110098598276542 13.310983658139111
Mg 17.195153013350808 11.12729685048069 16.29294693139518
Mg 16.373277887641983 10.021636294870376 10.405395230086889
Mg 15.940588891119686 8.679022682246675 15.259463881741564
Mg 15.409196244875043 15.657769959913187 17.559206688927265
Mg 16.112422264276386 13.957576681486378 15.143720232484398
Mg 17.255086611855404 15.043692925750575 10.389343197574195
Mg 15.336350435494808 12.752599045158309 17.991253161262264
Mg 13.920747092951807 13.042452379805095 13.33957389338734
Mg 15.110025792886372 12.857774142068699 10.670432361540973
Mg 15.09482581932216 15.659884624547121 12.531305466736898
Mg 14.365672774801007 7.626256832708825 9.794103322677092
Mg 12.595482455553487 11.673172468475537 18.27656730498124
Mg 12.576972781141714 7.010763759295193 12.169482941294039
Mg 13.96396274497231 11.026173330568191 15.571761629569481
Mg 13.412261975515612 16.926961358944645 15.774644170908722
Mg 13.71251873788668 9.93361195113898 12.342957669913922
Mg 13.083351310912546 8.057806421092819 14.888628576058279
Mg 13.805963431628012 10.548039712875546 9.038526641264333
Mg 13.050965172244652 13.99455472264497 16.238504437401133
Mg 10.8905807433135 10.793625906626367 7.842733191905706
Mg 11.467808880272456 9.116025801624362 10.315319022204552
Mg 14.54792358392005 18.631130649314088 13.547349768029742
Mg 11.167669687380187 9.873738766288847 16.368346465818174
Mg 10.84554129954097 9.446189254700233 13.275965181722068
Mg 11.278510122010335 12.395397607907931 14.268720661318829
Mg 12.932282226951886 13.365280445607828 8.454363711226536
Mg 12.040267967023212 12.179930181008768 11.15990563829065
Mg 13.263726214779156 17.76329896942502 11.065072722669116
Mg 12.10814790584939 15.413022634350751 13.179974693791147
Mg 14.653918805577037 15.68744650814854 9.369796468530932
Mg 10.212851663121112 12.999634612909302 17.104411568240028
Mg 10.645810677504105 15.927212598142532 15.892547326564456
Mg 9.894829756712602 13.323951635841683 9.111755561318635
Mg 11.565314428932265 18.31142142546179 13.817031892350174
Mg 9.19907159216983 10.944876290415198 11.000944146838869
Mg 8.770912073557302 10.886569542686148 15.016615684932757
Mg 11.628048508798086 15.449707840494133 10.181839023614133
Mg 10.36571994355065 18.24009077677061 10.96916097315224
Mg 9.611450087752772 13.806047560141854 12.03869723735321
Mg 8.523635948054704 13.974760289568746 14.881627026797926
Mg 9.157670605906826 16.609718175290997 13.314809993139608
Mg 7.121278125020608 12.101383349614945 12.851197945892633
Mg 8.49788807331244 16.006767226548195 10.22748657515085
Mg 6.765366224078159 15.026610928437748 12.524783598818415
