50
Energy = -49.50575564 eV
Mg 13.607310212222478 11.937729517992581 7.100506525661551
Mg 10.910241345326419 13.24733625737315 7.324208360544116
Mg 12.402461250857222 9.38969364975811 8.0160970407857
Mg 13.467902434130343 14.607660276484339 8.40203673980582
Mg 8.406532752661217 13.179139704733277 9.118718585067992
Mg 9.679634114337532 10.686095587574545 8.14961690585846
Mg 16.11505662123401 7.157471136826319 9.487798538632072
Mg 15.435991960577686 9.730730789114638 8.129206823221326
Mg 10.715177031103629 15.087870441742123 9.706920740971142
Mg 15.355804566452223 12.542424677794362 9.555720860912354
Mg 10.534667009632985 8.793434815708956 10.311814688531703
Mg 12.855876459450558 6.771886954666908 9.543552232072573
Mg 12.154282584237547 11.911816753651394 10.028708484209687
Mg 15.550233052251594 15.477417872443025 10.486318874400329
Mg 13.043436975511014 17.09486215417175 9.876945769912405
Mg 10.782087643549024 17.37731351970393 11.724223417765492
Mg 8.157102447628928 15.379665590859972 11.259897801914649
Mg 9.75581840793152 12.3636228288237 11.935963631329152
Mg 6.44064988063086 12.86532590686794 11.361726243414044
Mg 12.959671392104678 14.409487758178456 11.826475665723938
Mg 13.941664193184419 9.254402479089672 10.85557965256829
Mg 7.8505673678540315 10.248649558291694 10.511450191672314
Mg 16.92529922320222 10.223778756701119 10.758851855415937
Mg 14.604271107240304 5.976444128350231 11.789881143588433
Mg 16.95885446417113 7.648514246462167 12.327346027471517
Mg 6.951299685308707 10.79419204591739 13.360307259166753
Mg 14.382377273340488 11.788913378797732 12.498605973822977
Mg 16.63368203596783 10.31971149770378 13.812493821441564
Mg 17.12826963246628 13.158152219692578 12.024146310589593
Mg 10.342840997457127 14.873365457655014 13.49879376629566
Mg 11.814399991660297 7.141876122453507 12.531853334588568
Mg 16.207020813805883 15.663567862103312 13.35994220519279
Mg 13.767133003029759 17.33292382778407 12.75981142597777
Mg 8.40707026680463 17.34975386874851 13.62167465193594
Mg 9.103780336618678 8.65754189665303 12.99780266735275
Mg 11.813278782109096 10.24976771898286 12.807230197079342
Mg 14.285804707502017 8.288041666268695 13.845038178479644
Mg 7.568768478054414 13.733959454526874 14.05648284994353
Mg 12.193078785148522 12.784291919283588 14.432531018461523
Mg 11.544538704042186 8.721414974395017 15.35937182473017
Mg 15.875009787627603 13.132274982477668 14.928054546212616
Mg 8.782829828589978 15.970857411230782 16.086059684079125
Mg 13.90678358684879 15.546386352716448 15.248210981003664
Mg 9.486937080393169 10.944694498597793 14.872415780918978
Mg 14.069515734643938 10.576786896168556 15.594600294072515
Mg 11.40097032639695 17.305007082651084 14.839621903432576
Mg 8.9399715191666 13.083493931136351 16.772765184530755
Mg 11.480706418190035 11.343702683161005 17.090599923212203
Mg 11.438164659230296 14.79437563398659 16.896034727754195
Mg 13.929191372275975 13.146189557705398 17.180002992437167
