5
Energy = -0.72155599 eV
Mg 15.306313827074447 11.258679270500677 13.805290166579733
Mg 18.20638790570687 9.641010382264025 14.454370857607053
Mg 7.908565297332839 16.769024873094885 10.3375412252732
Mg 10.036457904552877 14.710676165047854 11.943172318992309
Mg 12.633389323628668 12.960577211449136 12.96279962972554
