5
Energy = -1.94933794 eV
Mg 7.804845463910742 10.702720834131144 9.960956164188016
Mg 13.271490083828914 10.439476562954798 11.1806658751687
Mg 10.185331542728049 11.027133862613113 12.196975423660028
Mg 10.849025788447797 11.785044174098243 9.378516204445049
Mg 10.540090599861326 8.901957562949166 10.120237044299717
