51
Energy = -49.1576766 eV
Mg 9.732465257239648 16.246299872463375 16.581472229093034
Mg 12.911709315359174 15.49259007611047 17.17154810205958
Mg 11.776543005887765 17.74414935084139 15.336754098800325
Mg 10.484423747809185 13.614943899135246 17.357094348191364
Mg 8.310273352378116 14.204407310707543 14.943830013147492
Mg 16.00765073066119 15.057626187541192 17.31357047861258
Mg 14.80246346451667 17.030032049899024 15.294037957266957
Mg 13.167778864166078 12.972847475021075 18.758837979098264
Mg 13.298211487095685 18.81931895743241 13.10170873208446
Mg 10.894539049834892 16.931536819773225 12.390090765462432
Mg 11.585800493900537 14.769572177723134 14.417774112504954
Mg 11.109488989029682 10.787886583401137 18.02455519913549
Mg 8.696066748866981 11.415574499205029 16.17352263406547
Mg 9.113690552168313 14.585707490818947 12.044822047496499
Mg 16.210417783660187 17.869882368608636 12.740930738093526
Mg 14.782097763970226 13.980632590443202 14.790012682955696
Mg 17.365421586936122 15.505297255628541 14.315846679233795
Mg 13.802107359595903 15.818506843016406 12.473884146455543
Mg 15.481709255209953 11.954455063548982 17.26883160640527
Mg 11.099877116213023 9.613676197257387 15.261311691770391
Mg 12.662337172895183 12.156240555252493 15.658791783807416
Mg 14.869967552964852 20.108451445338154 10.980436796488979
Mg 10.301729459791487 12.239358643672576 13.730020100920932
Mg 13.64161069467688 9.501773349777897 17.08998925320824
Mg 12.806908161642522 17.798066412337896 10.262850413005749
Mg 15.777237885245896 17.625233071529653 9.694669678971447
Mg 8.495395230353942 9.766806505368557 13.708837439060336
Mg 9.500761576363931 10.932780159103858 11.164443927184106
Mg 16.568011807613978 9.109012335960486 16.25613468398664
Mg 17.769283473655367 12.81651990101331 15.615014031955376
Mg 12.604412214211766 10.661489946199069 12.57130800167484
Mg 8.792071970849738 13.344492605679138 9.4119913155135
Mg 13.595970932768552 8.234203646133423 14.310014533594648
Mg 15.25129699098761 10.997541729713507 14.236343488973146
Mg 11.703490116399559 13.10459105380849 10.901224631358712
Mg 10.980403672242003 15.525311787673289 9.366185982442367
Mg 14.502895450885866 12.925392253578167 11.933907366794793
Mg 17.507681966210612 12.838053229390813 12.600830174428973
Mg 14.113633987133904 15.108367030348361 9.524517347052582
Mg 10.93765341318378 8.090069281519124 12.691318201679794
Mg 16.67712294697644 15.245434928757911 11.190912239708823
Mg 11.619293286580364 8.902718709425013 9.949226082552313
Mg 10.716692901897366 11.228425941963891 8.38046708384127
Mg 18.31738940223775 10.299526709327086 13.911560635775722
Mg 16.425530103111214 7.983667874591255 13.243132861108839
Mg 9.977813518819442 13.744033735949099 6.726946462709115
Mg 14.190321544517463 8.254886667655978 11.173023587330036
Mg 13.770393611354661 10.995961731171958 9.535486120457827
Mg 12.74939115641949 13.298354281049201 7.799323030028251
Mg 16.38516632697234 10.394326308935977 11.274349752575747
Mg 16.268617077150108 12.754224690105772 9.468991549416682
