6
Energy = -1.07804615 eV
Mg 12.247422963909427 9.75378934143405 12.396849199938876
Mg 16.79166807381572 17.206652109530996 12.410167079269723
Mg 14.57170611065812 14.946332753081727 12.491147715570506
Mg 9.591070796964233 8.92458277348571 13.567371438503677
Mg 12.629285617723584 12.702776411984095 12.357781630127784
Mg 9.85897809959742 11.650060354816755 12.31940157642689
