6
Energy = -2.45893785 eV
Mg 11.132563399334998 10.805225462569176 9.295095344422329
Mg 8.100791811175059 11.882401316701374 9.733400246216213
Mg 11.6436795908518 7.839229099029468 10.51517334354451
Mg 10.545086535353175 13.27958308312083 11.220630303768317
Mg 13.085590867441303 10.380265817458707 11.779723189819034
Mg 9.9007684291502 10.221775854426866 11.864458205536135
