6
Energy = -2.40299201 eV
Mg 10.773759314152434 11.200401425539418 8.792280433721603
Mg 9.06408016569414 8.618489318098234 7.549664470838035
Mg 11.29897841953163 10.913096293115215 11.90889020620633
Mg 6.2074986972823565 8.63062029020084 8.959587911895985
Mg 11.529849179612473 8.533627692980334 9.824304245257615
Mg 8.728881306379114 9.684367035997726 10.553559917909075
