7
Energy = -2.5168536 eV
Mg 10.138333114767857 7.363439517835512 7.899258449782588
Mg 11.299887361384595 6.833988594680481 10.683567426376934
Mg 8.859624762916225 10.02825865484491 7.870601992898617
Mg 8.783935857094916 8.608142763870207 10.741899737569836
Mg 11.306885784864377 9.789964582627597 9.963608980653923
Mg 9.05550774400528 11.68972075931485 10.870975077954878
Mg 6.9975169669888295 12.230706191854916 8.61481887813872
