7
Energy = -2.651328 eV
Mg 14.970768272050492 8.192364263752852 12.251251871682948
Mg 12.711547844061881 10.560186267855778 11.886306601488313
Mg 11.833484262960745 12.708708100605012 9.538652045396294
Mg 10.190662770633713 8.805310119737175 12.682544814378394
Mg 12.079206507717355 13.782305335510328 12.280888187917379
Mg 9.784888663888426 11.802912036628685 11.662164053846816
Mg 9.618568514260108 14.782451673206156 10.512449377686831
