7
Energy = -3.11027026 eV
Mg 7.944913729902394 10.514753452322516 7.934751019070958
Mg 9.572800893950712 12.68405101908748 9.419261091000957
Mg 10.694533837222851 9.474223240978525 8.819994255284687
Mg 8.67610314981754 7.616270330158678 7.122585842818704
Mg 10.187466102991845 10.617785244511353 11.637081085141885
Mg 8.512036300331005 8.015346673665565 10.1360597837968
Mg 11.214803942848812 7.700851924237158 11.500327851620675
