7
Energy = -2.9464624 eV
Mg 12.124256571178131 12.564507908956003 11.614628367650573
Mg 11.805787294801425 9.468145512133603 13.166187222418998
Mg 9.154245335101804 11.606977726750323 11.886703170236594
Mg 9.870572692773214 14.08225088976587 10.344818414153544
Mg 13.186981655790186 9.418600954998956 10.424072199485423
Mg 10.315416211573309 8.375315848584963 10.715080186284005
Mg 10.596861507374882 11.446231406905754 9.110515915450215
