7
Energy = -2.2450299 eV
Mg 8.914127724215026 11.539877632665531 14.576807802319932
Mg 13.792535160710479 10.779435783362374 11.22203649333605
Mg 11.27688566887269 11.956580525703654 12.589706543967571
Mg 8.920647972985236 9.94336055016306 11.998490668058164
Mg 15.012634080451468 13.49758914547981 10.716853646478365
Mg 11.103289382745874 10.30959689389283 10.014962282457187
Mg 12.150974550077523 13.098742327767422 9.841372210439621
