7
Energy = -2.65466513 eV
Mg 12.313096040559731 13.345393049134838 15.046700347739266
Mg 13.674223576565554 14.455909882691495 12.460298736105237
Mg 11.885730592931248 10.262335939594594 9.648425773890542
Mg 12.039355499423072 11.738324661455147 12.40612621307523
Mg 11.997372846755493 13.416375451518139 9.765374429830395
Mg 14.454282315288443 11.92785927274671 10.425281580940567
Mg 10.984931826966815 12.251897455361116 17.842583515755415
