7
Energy = -2.68617173 eV
Mg 10.921149049993076 11.833949327463392 10.081344212236163
Mg 12.391506360309876 12.547918662021226 15.10978296096243
Mg 13.144894714700916 11.595065129487466 12.235915525771999
Mg 14.139536424426051 14.281563631198276 13.48610084313742
Mg 15.313622878045148 11.5667458924527 14.524223028911193
Mg 11.017410312619157 13.928522174962549 12.400836280434852
Mg 8.73881811072506 11.845351211299214 7.720431879310486
