7
Energy = -3.12730329 eV
Mg 9.602325754659264 12.446472113772147 8.313128963277027
Mg 11.29039291369243 9.94339201394238 8.890242168834455
Mg 9.511432928687686 10.704103028710762 11.20524400851668
Mg 10.825434441299336 7.598126110980062 10.824593993453945
Mg 11.463362654957491 12.94301270270425 10.704216317128916
Mg 12.20528141859063 9.911507301450127 12.306395025663589
Mg 11.042393393823195 12.394010234150189 13.696803028835655
