7
Energy = -2.99986006 eV
Mg 10.252927857198781 7.794651942200236 11.212578068058217
Mg 8.6945013 10.493843652042198 11.212542952369674
Mg 7.13607474280122 7.794651942200236 11.212578068058217
Mg 7.13607474280122 9.594350657799765 6.176424531941784
Mg 8.6945013 8.6945013 8.6945013
Mg 10.252927857198781 9.594350657799765 6.176424531941784
Mg 8.6945013 6.895158947957802 6.1764596476303275
