7
Energy = -3.20405901 eV
Mg 9.050520587421103 9.633932699124717 6.461770931506287
Mg 8.64244240311431 6.627669957411837 7.0333365626226305
Mg 10.973868570505045 8.195683811259583 8.354193115531153
Mg 8.023233351047365 8.590823411939477 9.37506302287859
Mg 9.805444593061605 11.175656719437075 9.543365337572807
Mg 7.486558277616423 10.754210009276553 11.543779612467043
Mg 10.100523536953098 9.104614711269576 11.771082737140047
