7
Energy = -3.20453321 eV
Mg 12.699143504305017 15.42782554708457 13.082084287766353
Mg 10.851559407290106 13.406716349157362 11.698917875373606
Mg 11.75852914618102 10.084302100085292 12.655808003699246
Mg 12.005069093363474 12.319651283188756 14.731137445955016
Mg 13.829926269528393 12.519600138439506 12.185246198948727
Mg 14.346238343870299 10.340635532191735 14.332315328262913
Mg 13.14528144171273 14.724893769236939 10.105361081578975
