8
Energy = -3.27002212 eV
Mg 10.111666569516652 12.423740606643975 12.97757309350495
Mg 13.176570510567235 11.940782368936082 12.736166463993463
Mg 12.059407037849533 14.658676337800076 13.153799852390629
Mg 11.15833153619703 9.354649602624658 12.355472487557048
Mg 12.705496388318663 10.395714440203257 9.840827157005894
Mg 9.639069231543132 10.87546286007411 10.083781805130037
Mg 11.659193280501569 13.461751026325766 10.462011940243292
Mg 10.761004854332858 8.159962166218506 9.661106609000996
