8
Energy = -2.96493066 eV
Mg 11.508495710818726 15.069998047045521 11.675387480132198
Mg 13.975185327353026 13.031342456186408 11.971297033590332
Mg 12.470784569901518 17.93212918251022 11.863929815352051
Mg 13.86939879180561 8.01086169167301 15.179978895585444
Mg 13.980168685959317 15.8203639089219 13.296407031092157
Mg 12.220167320114351 13.551225180483698 14.421058888599767
Mg 13.696346001556329 10.879162054505683 14.126465272420766
Mg 15.35202309590127 13.220756011155366 14.819360338601099
