8
Energy = -2.87542411 eV
Mg 8.791430680559053 11.759160044644595 15.506798747523346
Mg 15.167724423829156 12.581507521609838 11.875386386328216
Mg 17.27143534414618 14.392248944511296 10.643543570745212
Mg 11.700949830185833 12.805946012103698 15.168164890083835
Mg 14.411588863555956 15.423723699014177 10.944176570899968
Mg 12.330772203482509 13.631313181526922 12.270871223194188
Mg 13.098479142593758 10.843755038948824 13.354499396325192
Mg 10.193603384596367 11.487848896299242 12.814013432043078
