8
Energy = -4.05127004 eV
Mg 11.444895276606282 9.982128067311958 7.561455727983035
Mg 8.432681364929248 10.438481942928451 6.4359233174168695
Mg 8.95230136735922 8.090060252149646 8.331497638756542
Mg 6.2695117066191335 9.85572625856154 8.766551301787018
Mg 9.092439460908277 11.068081775966615 9.290176625199104
Mg 7.972696568400776 8.594817650533294 11.2547485721669
Mg 9.488079092649446 5.9951728558159765 10.5009544548717
Mg 11.051554240606151 8.679690274811184 10.562851439897239
