8
Energy = -2.85546707 eV
Mg 11.458766879906738 16.66770958401721 10.291404477017334
Mg 10.54195162572134 11.827740511603459 12.888196916464262
Mg 12.58035915700748 13.814160150468531 11.165233107420674
Mg 13.614719897480906 11.749809418330441 13.308578704428433
Mg 15.023613595246463 12.20493717043048 10.670778139902914
Mg 12.368767422648906 10.679997870825593 10.703315570802229
Mg 8.978197618458037 9.668667882123628 14.12972708576562
Mg 11.822380008600867 9.100997151577271 13.409809696233514
