8
Energy = -3.70629452 eV
Mg 11.476992858854201 7.400946451239148 9.528722980054788
Mg 9.973306919583518 8.32051532889128 12.00488521160729
Mg 11.131902249503401 10.353987458220747 10.081588076526485
Mg 8.457638004272974 7.502024436308293 9.52191583448291
Mg 9.962547894735286 9.257656442283698 7.369475729248985
Mg 8.021610697624109 10.435780921468215 10.590419617205827
Mg 9.112794068415289 12.023520155967823 8.252587170814733
Mg 7.034266346197147 9.854568506188109 7.797286943574356
