8
Energy = -3.8621332 eV
Mg 10.771486535179145 11.204778375621943 7.61060123435349
Mg 13.527092836111047 10.20160851099578 8.915183832036703
Mg 10.88033774088967 9.429618594372924 10.16509069938032
Mg 11.73288361320316 12.508007152881286 10.114868332430524
Mg 10.706757621820664 8.119551672828246 12.891480118647525
Mg 8.04068928011101 9.135901222528918 11.399138184787788
Mg 8.55392313354138 11.994789554697869 9.859438936447113
Mg 9.838827739520049 11.134331665162227 12.66869139928914
