8
Energy = -3.86318562 eV
Mg 13.937855570519886 12.804964713745175 13.359729348551893
Mg 10.40807497586335 9.275809373187396 11.515307164429757
Mg 13.004477254951425 8.948624929075798 9.760804424510019
Mg 10.981811317229516 11.807581219314393 13.827289065459079
Mg 8.998008383870614 12.159954231818013 11.33341136489429
Mg 11.329602181992659 14.301467339775337 12.225731718228706
Mg 12.447013891404497 11.66527582713886 10.976692197034126
Mg 10.434628754300785 10.621648049743055 8.851024624633608
