8
Energy = -3.27553941 eV
Mg 12.562515748166122 10.56114004029782 11.521084619881147
Mg 13.639420539132114 13.322105163525519 9.559436518437467
Mg 15.076151106445536 12.878328055848145 12.226636734792258
Mg 8.748378072573521 7.751050722619289 12.238531429430815
Mg 9.939706520669588 10.54593414715007 12.939219744072343
Mg 12.038057201584412 12.435228348012233 13.940427565620743
Mg 13.157211552523334 15.215346608615398 11.904415474578803
Mg 10.568814283148773 12.921705583230278 11.236659107301072
