9
Energy = -4.20635884 eV
Mg 9.133867837756357 11.570480805140399 12.099678358366866
Mg 13.950910370679992 11.309057999355096 11.509350802251017
Mg 11.598269518982164 9.64671909482064 12.703356665558884
Mg 8.735928862039342 14.629454698812548 11.98141107260464
Mg 13.2225116561428 8.548387428714358 10.268680313690412
Mg 14.532929405513379 8.622649672725613 12.919714816326833
Mg 11.585397353307119 13.431612245876556 11.606269772227202
Mg 11.273670325300966 10.874917992084244 9.865627224236796
Mg 9.322430690720067 13.202764046388445 9.455834891374845
