9
Energy = -2.92478999 eV
Mg 8.934853715998353 8.94514933020089 14.038414075976831
Mg 11.274488896121278 13.924747103196284 14.021029083138364
Mg 13.115356964242977 11.834265442645846 12.688265812636743
Mg 11.654777009242872 9.048617052196176 12.713408065258742
Mg 12.653024806290569 15.412655765596776 8.903204918782881
Mg 12.668245567759168 10.139657299227192 10.146227576738546
Mg 13.905801685782611 12.815723916773186 9.798352018226874
Mg 10.913869021131795 11.092119318540604 14.825855296741485
Mg 13.067834919964161 14.87848484516187 11.852770278943899
