9
Energy = -4.42919105 eV
Mg 8.265395913138299 10.61801853493443 7.585540662057045
Mg 11.104922765821703 10.194723628030019 8.72584685098158
Mg 8.758197065411812 8.117042356475746 9.00356962944031
Mg 11.320215269211376 7.073420238434861 10.237803818218802
Mg 9.677326597015208 13.075400661776744 8.619617722815551
Mg 8.952071106091294 7.834927804300982 12.07542709948239
Mg 8.798946105162498 10.884393544125041 10.688170312544294
Mg 11.515750891164652 12.37862788391355 10.910741017245469
Mg 11.392891787074952 9.642896776629616 11.906222420074611
