9
Energy = -5.28980529 eV
Mg 7.265840407466154 9.927175212426222 10.097435997158813
Mg 9.319631164343747 11.658047357619864 8.371147490964034
Mg 9.109515929140835 11.993084405653217 11.40591539694839
Mg 8.764049365374143 8.613408495274154 7.596826629207176
Mg 11.649864546097135 10.758344677702269 10.22608314149768
Mg 9.59489867867989 9.022876740802662 11.949634389559149
Mg 11.550566915260724 9.850623509532703 7.308756157475192
Mg 8.19203009953775 7.005328197970559 10.129847809747217
Mg 11.093517855096495 7.711026364015226 9.454267948439496
