6
Energy = -8.69279612 eV
Ag 12.219745588956314 14.101580630265142 11.30047868237462
Ag 11.114648916231918 11.771804744108213 11.146062575521254
Ag 11.436734546956167 9.220778437816943 10.083556670998501
Ag 9.014437708621003 9.933650948219672 10.823680840933555
Ag 10.949711994749276 9.532171711116622 12.810254640300819
Ag 10.124746509519099 11.114445129076769 8.55876577494477
