7
Energy = -11.12270246 eV
Ag 8.736155307717492 12.071449329679961 9.057917472025084
Ag 9.278094640460294 9.806345602147845 10.43828314686009
Ag 11.066639317535435 10.674459510851069 8.506703338659232
Ag 7.960256881829643 9.672577870816365 7.930775936617709
Ag 10.144050710237085 7.360766008009479 11.163877481330585
Ag 10.302515683105161 8.059033695420878 8.49510152183297
Ag 7.740013124844785 7.583093648804151 9.63506676840436
