10
Energy = -22.64525043 eV
Au 8.524029759827663 9.955323670590301 9.63704797167641
Au 7.0702944646184065 7.688675680860181 9.443705977566648
Au 5.975851481845572 10.103312540157939 8.822443820196535
Au 10.023932994783538 12.233626388442008 9.770049624107283
Au 13.812504617298227 9.611518118475418 10.583469443559565
Au 12.628341029182076 12.054036380092084 10.362125977061835
Au 12.29458730876208 7.3585345218363996 10.562856199243226
Au 9.676263107288818 7.497299968204428 10.024559820814936
Au 7.414396682913007 12.380726741326226 9.20277659868892
Au 11.163108777720428 9.784996575176649 10.225248662212872
