13
Energy = -29.4065896 eV
Au 11.482841216441367 11.127548571687198 9.918485437182339
Au 10.489407338730357 10.510781297548295 12.368918049429737
Au 12.419386144395077 11.049471407650694 14.412528420678933
Au 12.43256370598745 13.844683909134046 9.881449563946289
Au 9.788243001657666 10.747537895591634 15.001955470511813
Au 13.18622382243975 12.058906485471963 7.99230741038095
Au 13.204987729073038 10.151900575659973 11.960657075103155
Au 13.004398840479299 13.105078217381164 12.559066960471133
Au 10.779304832688101 13.2992867925274 14.10624911984461
Au 13.935570660849857 9.762508927165154 9.349178954137583
Au 8.40808320757353 12.299085831667472 13.168473024658141
Au 10.268158758017076 13.165515873465418 11.364288300537437
Au 14.555950862992615 12.144953624230517 10.542807062567128
