13
Energy = -29.00945908 eV
Au 9.488098606905544 11.077466693141467 7.9136996600761345
Au 11.776470099073041 10.012427158421017 9.288629604620738
Au 9.472729754497115 8.435905398642705 8.565996473458087
Au 11.584910998916323 7.346857314352764 9.879717397471982
Au 11.6279190588193 12.647602695707667 8.603682614143978
Au 7.815258705584304 10.158010056060345 9.896141444105037
Au 9.816114558314675 12.098313083731043 10.6555055812704
Au 9.997259072259293 9.006230666000773 11.372325325966267
Au 12.685890217229568 11.96392227268583 11.106608873291128
Au 12.760566381935735 9.308614052431242 11.839676255304454
Au 11.108721192390163 13.612595675628576 12.586331768194798
Au 8.263445601203712 10.75873063880118 12.529812721963243
Au 10.986162980771418 10.956871522295948 13.145419508033834
