14
Energy = -32.38423098 eV
Au 5.818594594447683 7.914346043477203 6.303156681937082
Au 9.578330313563049 7.287096394790288 7.975839511032964
Au 8.487470525908403 4.70389507512677 8.117591345422996
Au 10.706308230507641 7.614039111523642 5.59954830047478
Au 7.815502045105495 6.720535870273076 9.90571053723345
Au 6.325715792841082 3.22925229823517 7.782696660883067
Au 8.204778678385948 9.327002526290288 9.053563718840929
Au 10.838582951098427 5.168652960851859 6.907861076833591
Au 8.568232940984077 9.141288973885217 6.151171794755797
Au 5.541807627937109 8.283450601448752 8.984619119442465
Au 6.377346968032917 10.513992699743655 7.274964559313876
Au 6.404431711734931 9.995902358871676 4.67941701497911
Au 5.832025790380988 5.807790205077601 7.954040391393122
Au 6.059631431137771 10.851571756571198 9.86889013776383
