12
Energy = -25.17505394 eV
Au 7.523142586570235 7.528275779982235 6.275472106755071
Au 7.523503676236141 7.518064173284548 8.902800664822863
Au 7.544232412211274 7.526964117096077 11.527265627322006
Au 10.265705034976223 7.528107679281904 6.280434440202649
Au 10.286632909602396 7.5209213707602816 8.904989518840608
Au 10.286895824569065 7.532940902453505 11.532224738715003
Au 7.519930125470636 10.274225705254297 6.2745282899946835
Au 7.520366969269514 10.286330524091818 8.901779373573778
Au 7.541579260098356 10.278581971659362 11.526279412689403
Au 10.262603633230713 10.279736804623608 6.280034369202672
Au 10.283470960976862 10.289191535351282 8.904564183621224
Au 10.284140680667846 10.278863436160956 11.53183134813942
