14
Energy = -32.39394311 eV
Au 10.50766667208624 11.403978085077938 13.183094107313398
Au 10.79071163063376 8.973759891143755 12.167890733009493
Au 10.499002977937357 13.419429203244304 11.052241072079427
Au 11.918475958758838 11.135729120766603 10.578539706321724
Au 12.189482760409206 6.600050712241141 11.918657211464234
Au 8.981699621192305 11.011462132897176 10.985477844974897
Au 12.78756617609343 8.656910113715458 10.208958871463311
Au 6.385322286082637 10.755207885406831 10.091929601249937
Au 10.528061070982657 12.458098629217242 8.571919780584235
Au 10.221471180021664 7.125523135571947 10.184002477786578
Au 10.663673135058104 9.516489362424135 8.608078872586937
Au 10.025815988294344 11.06617257509131 6.310027071798405
Au 8.160020859946883 8.65891277775806 9.723669925693217
Au 8.174403574266538 11.041243400406033 8.192432098107197
