18
Energy = -44.32519127 eV
Au 9.08914292030119 11.51043513898898 8.201631055237824
Au 7.393078487722778 12.65423244208705 10.07579238024806
Au 12.934440866580854 7.652176977025639 12.123188219299294
Au 8.853392997713774 12.653958761744951 12.3511334410404
Au 11.9910016078285 9.862487623299893 13.512847126665148
Au 11.792756108486817 11.586965884536038 8.658350059260997
Au 14.208304082787723 11.651878140144001 9.95893118564061
Au 10.890270545538026 12.242519650296625 14.115108557258413
Au 9.255189678412258 10.12538496058173 13.386582839996858
Au 10.45440811345688 8.529287382852718 11.495821134840645
Au 10.279032808528559 9.16891130278379 8.846018944264417
Au 12.778881421283117 9.281807910895939 9.870945238395894
Au 13.14497815084433 12.426081723261738 12.499707283584014
Au 8.518955372094243 10.251836097058034 10.730246311343135
Au 12.67781297700211 13.861752499648688 10.110181964786463
Au 11.110108171444086 14.281268269165848 12.305239313444106
Au 10.02984936472241 13.47804684789978 9.858876186130585
Au 14.346036599925137 10.021833015978746 12.116446428006928
