13
Energy = -29.23721575 eV
Au 8.786557773876797 10.909055254264034 9.048898029512541
Au 8.247824065382437 9.283730832644432 6.9295535980944996
Au 10.6743789148206 10.357862892919261 7.134531649080042
Au 9.798598715501377 11.620383968923027 11.479477645634413
Au 8.56963704278189 7.970014026729492 10.334438040701743
Au 7.794109415418634 6.7856426345333345 8.01544730110351
Au 10.369476606761719 7.714376039701391 8.067985645282507
Au 11.117776942822909 9.038123220319347 10.641262417132884
Au 6.4080037580520255 9.059644945406305 9.07315012196324
Au 7.253990029886676 10.388174822104704 11.287157050306869
Au 12.729375028730002 9.062262605824724 8.464715410852051
Au 11.678649577536099 11.474180266300383 9.55336892306526
Au 9.361950806019609 9.060460309039136 12.676600627681845
