17
Energy = -40.84272797 eV
Au 11.707549141954715 11.407465938879103 8.63908753100581
Au 8.889937600471793 11.607365046708399 9.804742990739244
Au 10.265679270264451 13.69101813601028 8.673238032847468
Au 10.191740084301973 9.122334186824975 8.514004581194884
Au 10.882785361907379 7.511379498932497 10.671486661523605
Au 12.605829294584984 9.382928953535774 12.028166878582477
Au 10.544836595487018 12.97383616205137 14.048465988517767
Au 11.63673836149215 10.452870927037553 14.37532760790486
Au 7.586189562449619 9.679504414661086 8.430457700419288
Au 13.967152912086396 11.16113680060777 10.335890128564662
Au 12.78468056384273 8.947601474662344 9.297103294344248
Au 10.205817855355095 13.382171145406796 11.405679120704075
Au 12.663864632351197 13.586567887132485 10.132043996987296
Au 12.646566430892024 12.188954348509547 12.482292518791064
Au 9.069170038065106 11.148429437986348 12.609976003776236
Au 10.13240138334019 8.613062670581868 13.064367361189603
Au 8.566548268721185 9.06370401867427 10.89414929630745
