10
Energy = -21.94410935 eV
Au 11.364135017827724 8.814714526987489 10.633315727169311
Au 12.807472491956986 11.171252416737502 11.147835238491156
Au 11.111108687610328 10.31410801117283 12.962554329796646
Au 8.483154823119492 10.384203388126048 13.780369068384514
Au 10.973900260906698 12.789691860824236 9.792877009723407
Au 9.491897772179668 10.525589349020821 9.225928573561584
Au 8.767349146450455 9.151233925192521 11.449978871513933
Au 12.12472903842205 10.31381531807415 8.496491843830253
Au 9.284493999238956 11.96903894384387 11.637764402973334
Au 13.543925389852756 12.518518887585726 8.825051562120963
