13
Energy = -29.17523247 eV
Au 7.835167043615692 10.333073328430231 10.51898852126933
Au 8.158249505599905 11.560371784694416 7.983630436600111
Au 8.921563365786708 8.018423183646025 11.273126058983095
Au 9.974952578079634 9.363608090481074 9.15147066182335
Au 10.095968287362126 10.288744577797376 6.593763594543421
Au 5.6629453779069046 10.397932543816149 8.832472179713307
Au 6.548604162734857 7.93519544629262 9.69395402438912
Au 11.251214861408767 7.777633507480712 7.330506876052043
Au 10.590990652444667 6.440028086363833 9.592233240857928
Au 7.93816392306864 5.633008099578266 10.297068217554486
Au 7.333681409747913 9.118864671645946 7.125422593381339
Au 9.080348701662073 7.877931165326542 5.5105345738708245
Au 8.497802481806929 6.723258885391501 7.871224136559284
