10
Energy = -21.17847173 eV
Au 10.084466194139848 9.53716965386987 9.550194936652769
Au 10.48642775614806 6.914143815805621 8.750271764832144
Au 8.507536902764683 11.835709880680355 9.868900719576999
Au 9.278008942958051 10.993877986765774 7.332534131386423
Au 8.535443520242517 8.229227367195811 7.096161521538675
Au 7.767579374969758 7.352755239565506 9.568818796856387
Au 7.0283892869328195 9.838258104462104 8.709355546439687
Au 11.16785227638019 8.982352058059865 7.018091010877491
Au 8.016282040213328 9.562262404376522 11.395326828116934
Au 9.812203629933327 7.438433489218712 11.394534894356946
