15
Energy = -35.48243663 eV
Au 11.970269336516138 6.872786499412525 8.770190567437053
Au 8.315977468596744 11.731329179875571 7.9459676694118935
Au 11.04379833140617 8.67485156672064 6.962080927183865
Au 8.040961738165823 7.5034876628241225 11.328047775904736
Au 8.29462546759049 9.125198464213714 6.926370174174948
Au 11.026532252744255 11.122238822001126 8.291011240485151
Au 9.274997835211362 7.490508065037489 8.877624536946147
Au 11.435598750274066 9.209640381717078 10.122775514061278
Au 7.399690028259029 10.098362308322336 12.189457187156393
Au 7.304859153292702 9.35610899115172 9.427827730165196
Au 10.724648409404997 6.7290070907164745 11.24601418691182
Au 9.475540285255141 11.078161952338464 10.533052522158211
Au 9.942407737841606 10.994556229618517 5.781447075724081
Au 6.8589536948796015 11.967971002320597 10.226776525233882
Au 9.991466932481481 9.146119205648978 12.471684023206626
