19
Energy = -45.97217641 eV
Au 8.070992779647751 7.028770618770616 8.10737834108654
Au 10.556271903896523 7.741768449605616 8.914561558128057
Au 8.792183214138166 7.620258836733556 11.2353106475085
Au 8.67509667581829 9.642500287073773 7.511652679312409
Au 7.085534318642921 9.084436329956116 9.662531734526084
Au 11.509635578601628 7.759639514837945 11.592404363813205
Au 11.391927596106335 9.992145495808796 7.387167988512078
Au 9.882028775960986 9.228935938271563 13.321384312436308
Au 10.005915260158664 10.118634943124313 10.249993883425734
Au 7.596910205955743 10.123100093632134 12.134561681751267
Au 12.751133058776224 9.259293643988004 9.65354672815356
Au 12.178501475848934 10.340072041570222 12.36449767217985
Au 7.791290063806041 11.756601404332319 9.87796280369278
Au 14.13490230284684 11.333434894490146 10.682950803293357
Au 9.616765253474771 12.150069762350627 7.794056895484232
Au 9.675051255923613 11.91137092862514 12.429869009738074
Au 12.080008446230423 12.10157663462702 9.019212286100853
Au 12.096919928812198 13.01055573533937 11.663333251265504
Au 9.866517617496445 13.538859265188968 10.144015484712927
