11
Energy = -24.16570595 eV
Au 8.454246845419084 8.721638006609481 5.490275718954842
Au 5.9411688152425395 9.505093888556003 6.090717047117173
Au 8.156245173213934 10.23316892010763 7.827345048564176
Au 10.172474928125538 8.066917675417585 7.434216151232618
Au 7.27666593252721 7.475893669940372 7.709061340679861
Au 11.672171960764823 7.4923004351581515 9.648940812972576
Au 9.04223469055406 6.499323378602936 9.459495098225105
Au 5.627106229182686 9.47366692441038 8.771684031016726
Au 10.12457778366956 9.850233519007956 9.5881877905648
Au 7.664014636290956 8.762035629161806 10.358273871795467
Au 9.93162762228191 7.982262570300413 11.684337706148948
