17
Energy = -40.79453854 eV
Au 7.314184813833061 9.968980523379669 12.230661496678362
Au 8.921920698758898 14.202330662446206 8.884180602822955
Au 9.840309934286129 9.897709083805045 8.097876735897696
Au 9.616601210532362 11.371279196672043 12.735653394419632
Au 12.015119612979245 11.85089207666354 11.29238000069794
Au 9.925655367857889 13.621206706486877 11.304085259444168
Au 13.852060270269357 9.815439480117817 11.528640075418277
Au 10.995452991943393 7.615142712447767 8.915350149736213
Au 8.291872549053384 11.971438823089693 7.478989401616676
Au 8.310416463841472 11.514460907487251 10.166203973391013
Au 13.642336972949755 7.8269532859837945 9.64473401522554
Au 10.945374736326814 12.399501774295132 8.817036589141427
Au 11.924263779490778 10.10497026771137 13.46714720754515
Au 12.483400425229673 10.22573770104451 9.076597366658934
Au 9.066892307590443 8.79530963803901 10.502849064417621
Au 9.524677547844997 8.630508226437405 13.279753005674014
Au 11.585943487187977 8.104091647374322 11.551327764914545
