17
Energy = -40.77506764 eV
Au 10.865608272908394 14.408738110944995 12.73948356120164
Au 12.166161098411266 13.004028537148892 10.772227607767762
Au 9.191314756099922 13.12901258167973 11.054582657905957
Au 13.028991466737294 10.478547367112935 11.236641435186801
Au 9.357870755721137 10.245373557405683 14.445232432403923
Au 10.534932561947823 13.567523172313328 8.644868677614431
Au 11.099914262000054 11.727362335639176 12.980811900808856
Au 11.883641393771642 11.148409204990692 8.76530771982843
Au 13.270726235045922 7.839976181138231 11.892971391756443
Au 9.902095887550596 11.70292006838271 6.771213684285854
Au 10.164544987153208 9.168912793720986 7.657386675772274
Au 8.608511497828859 10.600522154823302 11.873276347077237
Au 10.866822122939041 9.009268419199916 12.535580408934669
Au 8.816359861855787 11.15014053815683 9.23094945613689
Au 11.964737808805406 8.504043067619497 9.568052553832054
Au 9.132146081182158 8.52841020446964 10.155452370914706
Au 10.734896708225795 6.628623803523049 11.235975315126531
