17
Energy = -40.99704249 eV
Au 11.833992157747504 6.392597592953543 11.266403776200736
Au 10.210448079953343 10.619639545044004 12.571677536789178
Au 10.89847548843944 13.338136043430126 12.55203234476696
Au 6.2954917933713475 11.933834345000578 10.299013231273157
Au 12.38865597004317 8.879526250601966 12.232763366700304
Au 13.324577676415792 13.562282404806302 11.250704705769227
Au 13.001329826252471 10.966617411927654 10.223918631757975
Au 8.705234065326632 11.770433138042993 9.056878531554181
Au 11.11627431309449 10.792861637056768 8.188305737952158
Au 12.884989571468946 11.4003618555869 12.936597421233435
Au 11.959550327729605 8.47539092086587 9.535012971809229
Au 10.902106838787857 8.305916059048723 7.0664558473517545
Au 9.725392007402391 8.051896908276612 11.488171647475012
Au 8.476830727600877 12.614140784590054 11.75116266891837
Au 9.069175436650946 8.9452241583736 8.934992055627914
Au 7.83257299651585 9.893487285334995 11.17392467126822
Au 11.032049860909279 12.943683958160328 9.822962137324316
