16
Energy = -38.16454069 eV
Au 13.6630098900027 12.352605255249818 8.78707044190633
Au 8.863256565293925 11.315242835297527 9.734778165046515
Au 8.909784248028945 8.864717550292974 10.888247195688727
Au 11.56410226572447 13.2568683479729 10.371948163729828
Au 9.462635558756979 13.782707834073028 8.711410838786982
Au 10.038367575960086 9.231565904957398 8.475523501571898
Au 13.265345119447439 11.404907456992252 11.338108725759353
Au 9.004541261974644 13.481713594914849 11.492415408689096
Au 12.795421880988044 9.727538834396862 8.941222221377647
Au 11.09654555793012 11.704003209362632 7.983394777283343
Au 9.724508298702574 9.202253670255589 13.594599236607817
Au 10.276240449894884 6.880911249362459 12.117096754323919
Au 8.10693561730762 11.112932321242402 12.48290501051163
Au 10.826533897943847 11.561524882773552 12.55443972203439
Au 11.926266033856999 9.145173278775426 11.908473897687477
Au 11.632682696326475 7.428404214865179 9.790201454412149
