15
Energy = -34.62798389 eV
Au 8.782814371737134 7.392435216371406 9.910957430797703
Au 13.591020473082477 9.37594576683547 9.856045966872006
Au 6.677735860490032 7.864439322851495 11.476822841446076
Au 10.048002836346017 11.090380864043212 13.298656837908547
Au 11.440598747478345 9.933709241931075 11.341054039956063
Au 10.202374315936366 6.134128931377311 8.024251686592322
Au 11.306606480808004 8.39038823915858 8.905343207090619
Au 8.518087449538129 9.793808310899479 11.54402631256798
Au 8.945711187749188 8.569595276387242 7.349951517522086
Au 11.687513540852123 11.18864231118381 8.815810275983559
Au 7.028136982944768 9.485797104713214 9.17082483184411
Au 9.823200589847596 12.146679748075957 10.67180436833038
Au 10.787684346004987 10.33683292995905 6.383831638877956
Au 7.165277571599242 12.083672580896518 10.02653467212915
Au 8.982188027706082 11.200496937437656 8.211037154203321
