14
Energy = -32.05452154 eV
Au 6.618501825617119 12.126853312141096 10.20655037050197
Au 9.001133656881855 9.174640905566163 7.395527267495529
Au 7.565558942124681 9.856180978067703 11.557697900102614
Au 10.990629713478711 7.441239701256223 8.020430098935242
Au 9.010690524047362 11.429941866660284 9.125052721028329
Au 6.782636065173888 9.70759307767251 8.857774169546781
Au 11.364163707230748 10.197631117336485 8.624156410450746
Au 11.550499250206881 7.726849771882954 10.754480392336328
Au 13.011116581805132 10.085509490219788 11.009983480624832
Au 13.440293365549127 8.450284997915638 8.805770973884734
Au 8.963579449493784 8.1383500653988 9.968233596752714
Au 11.275285314166846 12.134240658732967 10.638078218611975
Au 8.852392770518055 12.361337250405878 11.835819334487896
Au 10.266627836759062 9.848010705676762 11.875286110478356
