14
Energy = -32.72561283 eV
Au 9.397837478835356 8.38533992009592 6.461053251923105
Au 9.23486744984545 10.559203132733126 8.156288789903861
Au 7.895672520343154 8.685375149408381 10.414628876880942
Au 6.310216597397786 10.068879675545746 8.737355126210458
Au 9.807341287435387 7.116304658954468 11.519873763406547
Au 8.561511548350833 5.953632825264356 9.447969670713476
Au 10.264201028901702 8.205473300417417 9.003246481189095
Au 7.337744394883856 7.938302499765621 4.681498901606909
Au 7.335420120710935 10.18844043088928 6.083363650257214
Au 7.183485620583612 12.363970992507152 7.59535676650015
Au 6.233119393075759 4.770291568820141 8.660200658629826
Au 5.9901066156927785 7.4391270946314165 8.921206529069247
Au 7.609099805048646 6.304879373838338 6.867568239612862
Au 10.35154657890525 5.929112888938221 7.325269421860978
