17
Energy = -40.98052711 eV
Au 13.138101366747529 8.848629837660738 7.950970952977403
Au 13.44740625286515 10.463968668189914 10.193431482721621
Au 11.536148245561643 11.037052290022602 8.18488046670599
Au 12.210837993018055 8.011707320349556 10.414635009011516
Au 10.4244446792753 8.423600309259905 8.341221226311038
Au 12.360909943919255 13.054351473240187 9.893621327003066
Au 13.086627452132497 12.005016593172757 12.362902609300654
Au 8.843592321894159 10.689172396905018 7.726249656935498
Au 11.700583859332724 9.640372984064387 12.49466691185546
Au 10.518316769252396 13.23789539278818 11.931427684628767
Au 7.86399687697871 8.512163344571945 9.158708956775044
Au 9.665937959275274 8.30130089184957 11.223727530070752
Au 9.668707902368624 12.704228252652962 9.42249974771327
Au 7.538380975202294 11.203102265063166 10.095740556583527
Au 10.993207691979876 11.733571271230957 14.158969310644622
Au 9.090210701757062 10.908392809651206 12.361306634920671
Au 7.088869225816487 9.098770028762187 11.765497642482863
