11
Energy = -24.21148351 eV
Au 8.949225409053474 8.950948782813484 6.67775966692627
Au 8.949540690646842 11.271798255828092 11.048034211549858
Au 8.949580173173787 6.625011085283252 11.044778593168116
Au 8.949473204688834 11.59781733651228 6.593848806883616
Au 8.94956216486108 6.302932790058951 6.5908483102933575
Au 10.360210900117032 10.410493305045472 8.663071766500973
Au 10.360376574781558 7.489043173215109 8.661496723025024
Au 7.538866441180359 10.410619770689323 8.663168305832855
Au 7.538757856808822 7.488838705239109 8.661572124977202
Au 10.412828411413226 8.9486372859319 10.920119920757717
Au 7.486314599395803 8.94859586162476 10.92003799620555
