11
Energy = -24.1239581 eV
Au 8.596277566609565 10.20752534412039 6.768285206921625
Au 10.005470441109107 7.869901362077188 6.94817236439866
Au 7.321432663210124 7.666408517499357 7.163700459059656
Au 11.461013370290939 10.168647245073272 7.455669853610585
Au 4.822206737712954 8.09872797704428 8.217404156618588
Au 11.18512378238376 8.287415673433431 9.44392399764882
Au 6.89925248993855 9.708059272202302 9.019372532152143
Au 9.46712427787388 10.488383632946167 9.343110675520204
Au 9.113741566742851 6.352800734066282 9.026790113525315
Au 6.570077362684085 6.930477107633831 9.893227448113237
Au 8.701574204479348 8.364947596938514 10.86363765546633
