19
Energy = -46.56618067 eV
Au 11.039736364083211 10.233996790581148 6.503533826152145
Au 10.730275019201066 12.28398804586663 8.545694761579414
Au 12.694085778056174 10.357468073758639 8.721573361686376
Au 8.636129301853359 11.301886411880293 7.037909468941787
Au 12.089224348916801 7.899637699568961 7.607914003557868
Au 9.647607146092108 9.035545166809841 8.586311087062569
Au 8.105409346317868 13.46551100981866 8.669654061475796
Au 9.52463500955075 13.004244583092749 10.912131173780317
Au 11.607135637693762 8.090999512872134 10.26707843899864
Au 7.886925297309837 10.86603359667471 9.67975848328394
Au 9.171463407651217 9.062775841083912 11.273064943378046
Au 12.133488197164475 11.986513569478426 10.850968038181778
Au 13.781349273362249 9.665189624407896 11.101205725362002
Au 9.021978571334797 9.574039313824155 13.980948009709987
Au 7.788532283029939 11.355967252298688 12.358914634772685
Au 10.506890215686601 11.883566584514039 13.12266039950989
Au 11.503425621232223 8.949976630325668 12.78041553419608
Au 13.205035878010547 11.163564422271286 13.274598363040145
Au 11.395776020427586 10.288198587847312 15.194768402304966
