18
Energy = -43.17266905 eV
Au 13.05487820736416 9.399173826302182 10.523230779804283
Au 11.3268893415805 8.982287302037216 12.534119608970123
Au 10.613680184941256 7.3352582540616185 9.711031880193852
Au 12.46115986965637 8.389702350683486 8.05334740344862
Au 12.095795513569685 11.107436935854645 8.61485858992834
Au 11.662573275268084 11.665182755822196 11.55043079650739
Au 8.798920876734226 9.995772442661016 12.907977810142798
Au 9.141604154947048 7.380017345201541 11.979951530099601
Au 9.961872991612218 9.980058917798319 10.269664044802958
Au 9.603030332919221 9.049717801065336 7.566669744029214
Au 10.505325331897073 13.181622090607085 9.452029724088522
Au 8.874079787980445 12.307041642459337 11.40483088641663
Au 6.469478962189086 7.880557420530878 11.693730368037492
Au 11.582427870232038 10.022191307528873 6.0224122741844965
Au 6.774354291894943 10.531398168664696 11.093692430014643
Au 7.852205564823566 8.308107784707937 9.457586746201558
Au 9.912098970152957 11.947946620619364 7.0746781089031066
Au 7.913365897502839 11.123154512053823 8.698168108537052
