17
Energy = -40.27097424 eV
Au 8.282194747640757 12.16503401861518 9.082868634670433
Au 10.184789592537301 10.367015016589923 8.29140353744849
Au 10.025349410159938 13.475059999759388 11.068989369728666
Au 8.181191279852063 9.989860632942854 10.748609803483983
Au 9.349449091985823 11.401558640420207 13.20895696332248
Au 9.586587521770134 8.620550068388924 12.712697915149064
Au 14.530676438887735 11.314351885794862 9.34703707570535
Au 11.886234242065978 12.65867139650866 12.98503397467829
Au 10.744431515660894 13.106283612611307 8.367150841154263
Au 10.203328784907967 8.200397757273773 9.978916398376226
Au 12.296619221720862 8.15152629105262 11.812963927365576
Au 12.63716920142656 12.9789232793639 10.309718852960875
Au 11.761737015251095 10.023545648448842 13.775749502593886
Au 10.911962178951754 10.74481737892263 10.990922954113167
Au 13.622974112964597 10.68989738383001 11.828410532278399
Au 12.643309322008246 9.339265400330712 9.268977039893839
Au 7.48068362092717 12.640055819824221 11.654233460830605
