11
Energy = -24.59768592 eV
Au 8.016508444467787 5.422582534277442 7.390629634448267
Au 3.258537366357458 6.393521272386485 6.0009209121701215
Au 10.485362768082766 6.396781798937885 6.806883550810265
Au 8.330125020167817 7.367625459091221 5.54331461602097
Au 6.6467015568223955 4.6425617365033105 9.632881837332443
Au 5.261020593308711 5.697546539740921 7.580383586900742
Au 5.590559866961135 7.541179713597207 5.597827916568556
Au 9.342866612784798 8.311895267501074 8.358311280059707
Au 6.946975434885733 7.331354221011827 9.166967554034628
Au 7.046634719586267 9.540697134591793 4.546425118169004
Au 7.047008435711563 9.24778607107146 7.283268815838879
