19
Energy = -46.62437183 eV
Au 13.343254995570808 10.137965547407026 8.11792870217069
Au 10.666810146897546 9.46690290408162 8.068286573342538
Au 9.663048051744596 6.970683718629932 7.717063934319639
Au 12.761888316640544 9.022169412499 10.540655193792983
Au 13.311124795623902 11.70356192898069 10.43810143152432
Au 10.553669893947292 7.44607387748571 10.207887110380375
Au 11.366275432307333 12.026169915893432 8.341733988391626
Au 11.018296582408633 12.741725645112394 11.64660916474994
Au 8.199167912027248 8.755939417857055 9.157778308229359
Au 12.494578091638418 10.748883032534081 12.821360644601837
Au 12.394018629826672 14.194242708794361 9.683739141647212
Au 8.71919880987058 11.439295492450047 8.876621621279847
Au 8.552907217544709 8.32571162716619 11.973760773291323
Au 11.172868449549162 8.332521003375534 12.666490642087044
Au 7.236135193893036 10.478311852761896 11.002515464877686
Au 9.666417968271022 13.943073719782516 9.406972751693386
Au 10.983968461222213 9.856545584876185 14.892949839669152
Au 9.438662709195835 10.823273026314391 12.868473869983157
Au 8.283336545034098 12.910730600181202 11.507388294619453
