18
Energy = -43.72447611 eV
Au 8.883736491904147 8.2972686189724 10.422247527316411
Au 8.078844358751617 10.411938091416166 8.845884505797057
Au 12.132360635400762 12.374668626400458 12.447683936800933
Au 7.837224439555076 12.104316024059735 10.990436609302458
Au 10.434293289943676 10.560829527130485 10.867820535604814
Au 11.797885875775538 8.065119109270748 10.177814852689458
Au 10.499013551370266 8.089864932422586 12.628775732613382
Au 8.345531110818385 9.961895077065192 12.632982900031761
Au 10.760526365126141 10.462214194479456 14.028903591365392
Au 10.117596335741547 8.772627783088593 8.014600931445964
Au 10.662196670109223 11.593160838933143 8.099842449194261
Au 9.45430937531053 12.691885196916042 13.064124365783838
Au 8.463268383629261 13.163989239926822 8.545782512434164
Au 10.490135386322295 13.33213302155526 10.42622906020122
Au 12.653294087028865 9.723572138730312 8.00748627166315
Au 12.818439618377777 9.689706940080951 12.373389434994747
Au 12.839849662929138 11.803834262806483 9.876092140637907
Au 14.297665832423009 9.439062286140526 10.163444612862154
