19
Energy = -45.98192715 eV
Au 10.06446084164707 13.669457130569116 9.280667430037893
Au 8.348826578645156 11.6104441872478 8.9966590227127
Au 11.723156546017977 14.944396506515462 14.220174895254116
Au 13.493924102879216 10.14503145272463 12.740855606704477
Au 10.690046054728958 10.364313691842199 12.975504657540746
Au 10.078286309773754 12.783853512773176 13.965518151730128
Au 11.900396513632435 8.543777486738364 8.610142699578953
Au 12.660885923328431 12.711662795913037 12.956544567523752
Au 12.001549107872371 8.401154124142822 11.386955779785286
Au 9.285306260782 9.251747758497089 8.177451533690805
Au 13.364780270512249 10.373252860540502 9.872226346751242
Au 14.802733525972608 12.172755542959935 11.342278090487499
Au 10.76405813186495 14.46067555275596 11.72006701259356
Au 8.727939996469983 9.711442217269543 11.014849679817072
Au 9.672753881378993 7.8027322110486885 12.737709263438287
Au 11.175660929242758 11.29534088677284 8.347255627253238
Au 9.83429669483609 7.319962625737562 10.026915351039824
Au 12.603704723950736 13.017959823478888 9.977270135374932
Au 8.922994070309962 12.33170269565922 11.57535631477478
