11
Energy = -24.20960292 eV
Au 7.035693238670017 8.103235229285653 10.420130518454071
Au 7.186805026697656 12.127764236063204 6.918226974869129
Au 8.58575985162118 10.374548696512234 10.951041747690459
Au 10.719024088653468 8.73322375647631 11.436881611347419
Au 6.974762782710278 10.184029465901082 8.695592136401915
Au 9.223770157127996 6.481685068319802 10.886829691000266
Au 9.204030320697766 8.402366192980272 8.812173094086425
Au 9.459920856712188 10.90463420750834 7.433458778632341
Au 10.96971459758853 10.867172323773653 9.766922958563422
Au 11.517285481696948 7.0286559002781415 9.385491446414028
Au 11.528904576784274 9.163757076831008 7.623994311734929
