10
Energy = -21.75274292 eV
Au 9.18546714274701 6.305480508864767 6.1282440187493314
Au 10.200784172124624 8.932441083086939 9.911921196421932
Au 7.861612503621101 7.3159102557321 9.88109455979133
Au 9.875522105872234 11.177551048710592 8.383557647201556
Au 8.042561550118199 9.439735396548432 11.5646861792505
Au 7.416695077506398 9.89900276505305 8.830120455968217
Au 10.218582710269482 6.579225113839467 8.587802892682717
Au 7.129985548358836 7.746532800225104 7.27118792454611
Au 8.297387871227457 11.893876307499914 10.535536331731672
Au 9.671757193371272 8.858958758674767 7.08922525461587
