14
Energy = -31.88778915 eV
Au 7.129322289156154 8.01288434012494 6.363231040974668
Au 7.155889114335656 10.772389665936753 6.3370880984081
Au 7.6110667990700485 7.986719266798025 8.974657116221262
Au 7.6216923626363196 10.798999353271018 8.953626534077978
Au 8.16630893481197 8.006327668574142 11.611104590792094
Au 8.175620145142545 10.782524399333326 11.592915268429772
Au 9.729195139511114 8.02576942951667 7.007027711770813
Au 9.748791993123383 10.751552951244827 6.99771488090679
Au 10.259567570103652 7.843649820792876 9.827966973336572
Au 10.270170373463488 10.937908270258536 9.818345199809272
Au 10.677657261278602 8.036930856773841 12.573644120403177
Au 10.68308974763238 10.74942956851239 12.567429014922345
Au 12.415567851672007 9.38500533103183 10.756653550527474
Au 11.827743418062953 9.381591999750059 8.09027889941941
