14
Energy = -31.42610041 eV
Au 6.339744296627024 11.70300638473807 8.097130265391261
Au 8.982340114534317 11.947795361635462 8.297858272131965
Au 11.663466242537956 11.720108474535852 8.286735578609047
Au 6.146615757592402 9.053228085338814 8.226637138109828
Au 9.062335734021485 9.056821177799456 7.909516252068428
Au 11.962921882143181 9.047725335736702 8.314236744159752
Au 6.4458306795286475 6.382223335766468 8.14546478100137
Au 9.125984376462021 6.153237514185622 8.240496635382168
Au 11.774492790846857 6.400319882496757 8.133994614231478
Au 7.736905817958995 7.718817130831712 10.084513701844637
Au 7.501070656138528 10.507013096525604 10.29011180641601
Au 10.31460575668178 10.344254670960364 10.15408437589526
Au 10.542202127585508 7.5501584133270665 10.306534561430999
Au 8.997526719641224 9.011334183822399 12.108728321027877
