14
Energy = -32.09562628 eV
Au 10.680123229900387 7.354998233682562 6.722467896702776
Au 10.122323672351637 8.83236169077881 12.199544505961274
Au 8.96149499206765 9.416798361225084 6.739694036899662
Au 11.985484337678292 10.24478728750558 10.45728542690351
Au 10.155908996182438 11.556627379765708 12.0035884257993
Au 10.285107594844941 8.164789778678665 9.379073510373237
Au 8.00347360222482 12.62479807264393 10.520735791627656
Au 10.028267284338945 11.500518054788419 9.110511564662772
Au 8.795796714553047 6.011185990178703 8.355818294335165
Au 11.647599280113631 9.780041449384475 7.722671320156025
Au 7.38142349320699 10.955948183643459 8.337470113562773
Au 8.321589503481693 7.1406751143263545 10.89286929405051
Au 8.07276408052785 9.905980739107946 10.82311082224225
Au 7.275515157019472 8.227361664290411 8.452030935215022
