18
Energy = -43.36882404 eV
Au 11.001080347952632 11.882647995239164 6.5956315831906265
Au 12.284424651950053 10.802533520216086 8.667410789457996
Au 8.377537581076192 12.642783799350955 7.242191260756524
Au 10.278521239011685 12.681026091538726 9.234915820212791
Au 9.162803255424596 9.996375836443898 7.414512767933663
Au 11.088274079834592 8.274972364656522 8.163243283033951
Au 11.635816868674196 11.444696270777733 11.365449315004163
Au 12.951688069091302 9.128739962317187 10.65948785707651
Au 9.796306741672444 9.775573419910822 10.21664348766435
Au 9.706495339548695 10.030271981728273 13.011856435559883
Au 7.404064475281687 11.349457004176303 9.39195146324818
Au 12.236995830480708 6.527843793916129 9.928286649485083
Au 8.980058128115877 12.322345780326197 11.609478132377332
Au 9.475318732229216 6.644085819309581 9.75233079137705
Au 10.903336513286419 7.825719752645321 11.974451025965008
Au 7.075662398129922 10.316506452866312 11.878325529360469
Au 7.574791936691827 8.578876005150478 9.198822327201917
Au 8.112412000827439 7.814283139388752 11.84310141414664
