14
Energy = -31.64820436 eV
Au 10.221717457398727 8.87888645365321 12.017464628450908
Au 8.009401478183676 7.258492210242817 11.750912507263811
Au 7.750352566054788 9.447414270474402 13.249930271218982
Au 11.6983189467907 9.675051250604973 9.917734893646957
Au 9.8751965724883 11.124838586724524 13.632613874533517
Au 12.98298555637148 7.8964012951839155 8.31038194232743
Au 7.774775228311559 9.659822767595053 10.438475475875567
Au 10.7340026793293 8.889101041118609 7.173058199082011
Au 9.099858479466032 10.679313660717684 8.370371243151281
Au 13.06910302958923 10.543600388078538 7.7065798617446255
Au 7.512786072486145 11.921560544429855 12.073470893658007
Au 9.948266108028287 11.513663423120652 10.915651563813196
Au 10.731383517215484 11.48773995265748 6.3628541358765816
Au 11.529356324536328 12.418995713016779 8.884242481924996
