15
Energy = -34.90426792 eV
Au 6.681381790052014 9.480673912280386 6.290299459641698
Au 9.189163360853179 8.33839842516531 6.044700378054637
Au 8.810200339274827 10.61613542738084 7.666826891564581
Au 11.327789634625969 9.912309287618417 7.177268497471728
Au 7.194237589536681 7.188698913028695 7.718231983752027
Au 9.36360478402984 5.720688251356252 6.942708119928424
Au 6.349863898174061 11.642783457728186 7.994339065807038
Au 10.506779280416733 7.70704259561978 8.491771241424765
Au 9.890032354599521 5.394029151619399 9.68559520922945
Au 6.6752348071624885 9.275049579073425 9.376287808582369
Au 10.380181013869274 10.046526998495159 9.920137886240619
Au 7.802503638783562 7.0524890271618 10.346878103041085
Au 8.001343930745202 11.598787261437531 10.22845607438047
Au 10.390942850117785 7.592520846701723 11.328412544212423
Au 8.403821163982998 9.400947301557503 11.755167172893666
