12
Energy = -26.9612909 eV
Au 10.264775242066573 9.679867704500422 6.27796022457113
Au 12.599935704236696 8.738989197263285 7.55309410751738
Au 10.244972514142395 7.75132197175623 8.407458637060005
Au 8.809428121378282 12.107505070825916 9.705184939643908
Au 10.95901165300742 10.856466501118149 8.64726171901258
Au 8.341582852160375 9.718391782378774 8.254669702950295
Au 9.488436578048583 8.039716777954947 10.9708797362672
Au 7.439245070394916 9.870094812040035 10.770532974711069
Au 12.110509823859207 8.843191768911497 10.233421270511005
Au 8.037019044474969 11.980219689681842 12.317259161613398
Au 10.498841086967865 10.674380853495187 11.417994904216846
Au 8.885581940623675 9.457056321743819 13.251959684409492
