13
Energy = -29.32176197 eV
Au 13.002326571068345 10.053172889021802 11.784144371756897
Au 11.637783867689182 11.014063470077273 9.572995098925215
Au 11.473319856002878 8.250200675225752 10.623096400537358
Au 11.670240097398603 11.197044188719486 6.819516439470682
Au 10.29462925722428 10.70310214688013 11.840873398813912
Au 10.729216552169445 8.906039176903962 7.766501962157218
Au 9.695645713762744 6.798903921351566 9.14251239306301
Au 9.349009918308479 11.50670747439497 8.303531464149641
Au 8.844309349648235 8.12426334796002 11.34277933018227
Au 7.964843360624435 9.896401840638678 13.100115842474585
Au 8.062583593670837 8.81587543164694 8.344282177595904
Au 8.000276134105382 10.80546859179579 10.489096912654896
Au 6.627253712368336 11.0180480477707 8.096005602087187
