13
Energy = -29.38721353 eV
Au 11.237845788865197 12.520328002413839 10.635323373677366
Au 8.85807929116575 10.391679011205378 11.202362062068229
Au 8.895919871900025 12.266887901314254 9.224301095225485
Au 11.459823484820513 10.131298810528179 11.99970761296799
Au 6.75483414276347 10.491961202902656 9.363933280705153
Au 13.45041428152054 10.734945869811543 10.222555652786195
Au 12.280496902700808 8.291335095238974 9.914918337399005
Au 11.10673751666981 10.505799080614292 8.774479587280846
Au 10.002948921105212 7.870931316987762 11.54861006083007
Au 8.75674674716997 10.164666433024786 7.43743402080463
Au 7.509794272744275 8.035207021187253 10.450610895518729
Au 7.2077114112372405 7.987190047474483 7.7647724356970045
Au 9.804529983112506 7.928921984586388 8.752882725478553
