16
Energy = -37.84033743 eV
Au 7.33618184909735 13.452421248731408 10.270145925067434
Au 7.376165944698265 10.835010809043327 10.856457493283646
Au 8.881301257568905 11.942880408834862 8.60587866964451
Au 9.705323546501901 12.593507823772514 11.284212901549331
Au 7.881095519081819 8.212572579673013 11.124437694006545
Au 9.609470059926034 9.967592720632975 12.367300253691454
Au 8.117276575131838 9.361494646203331 8.548301109386404
Au 11.9525465371673 11.06312762028878 11.505347141988945
Au 12.036058047755025 8.892416995785341 13.276510200843608
Au 10.255096822951273 7.183797455771506 12.135147138955691
Au 13.708749813462546 12.607674701470287 7.789255633956238
Au 11.511697643705906 12.661393883956475 9.236512572061509
Au 10.774528480613201 9.933114154467388 8.648792886913764
Au 13.41856722201701 10.347272051273139 9.165239659826007
Au 12.210706956162817 8.403579145241721 10.543866931524455
Au 9.922625262192042 7.359153009965095 9.422602216730139
