15
Energy = -34.90267638 eV
Au 12.127646463575863 8.926803990179291 10.59808061489677
Au 13.983066580610744 10.771303757528184 9.982398018149865
Au 10.528628598201268 7.519812926972667 12.232924445165638
Au 10.522671355484134 10.191221227513775 12.752622988991636
Au 11.52429525102557 11.812208704620828 10.564955680065076
Au 11.939290162533336 10.340808812357288 8.21408471661461
Au 10.532242384482485 12.857580216967735 12.90791619006885
Au 9.05772960041201 12.977508954760333 10.67881412853603
Au 9.485184287647892 11.474674092618235 8.4356195329847
Au 9.157069346699982 9.219033418268653 10.604213803445708
Au 9.786318496492013 8.827290482420437 7.807470065195392
Au 10.661078915716283 6.779202832100715 9.534851383778667
Au 7.041786692888435 12.568689231926214 8.95245474851608
Au 7.916828454029753 7.277447100205562 9.096270533186633
Au 7.163286929201696 9.875013923968984 8.8585601458148
