10
Energy = -21.27679261 eV
Au 10.00920146947668 8.013889193525664 9.300207465776486
Au 7.987219012894456 6.146499874069142 9.093748517262268
Au 11.546898333385816 8.74460903349949 7.169760767773586
Au 8.335683203624829 7.584860355813219 11.458533032619785
Au 9.000965231134145 9.49987747172121 7.055071007013966
Au 7.301114799044846 8.985783542147555 9.293139266254997
Au 9.07539048041167 10.25102884278956 10.98915277665571
Au 10.798280879793452 10.655590950679777 9.049948072484614
Au 6.9426785648034315 7.3997733927296325 7.038647371323278
Au 6.434238560233549 10.149757877827629 6.983462257638071
