14
Energy = -31.88750083 eV
Au 7.919668402269051 11.719770568065295 11.613170116885797
Au 6.283279193467369 11.51606937830145 9.394956776294197
Au 9.738713245305432 7.2826490960462165 11.076559905498362
Au 9.928886197997512 9.97405280277534 12.250304933095274
Au 12.112652882814514 8.779319427103406 11.166107697992324
Au 11.59400312080644 6.840703360507492 9.205305426363669
Au 12.650836079738037 9.191824184409509 8.335246974730115
Au 11.00934719168472 10.972878251451379 9.977420909360182
Au 11.07676741619967 11.309192275556828 7.302664553680587
Au 7.868906611465944 9.335787483304475 10.46193252167068
Au 9.922840579292036 8.896914121087294 8.127624885454699
Au 8.08365205897882 7.088004982377783 8.901052662558378
Au 8.777617262884517 11.800499578513604 8.562220096145078
Au 7.162595829384701 9.437346101994144 7.799433768160255
