10
Energy = -20.62919029 eV
Au 10.773732691780282 6.6390293011744985 9.581208530811884
Au 10.998525935922629 7.681516911950062 7.052626181554371
Au 10.659809475974642 9.311048711766256 9.257041037117864
Au 8.772263888699767 8.975914868780704 5.760313980404038
Au 8.256478846040242 6.654144978272369 10.789021174640224
Au 8.120076712160314 9.354511108978476 10.622660479116451
Au 6.0029698216897005 7.955875055701378 9.641323287920057
Au 6.36425420008749 9.084707268316654 7.152613763811974
Au 9.564605508563343 11.65676458955626 10.167159037024295
Au 8.387676293438926 10.714931027137423 7.850897604747331
