19
Energy = -46.77291384 eV
Au 12.206366121098625 13.74854328807779 11.936810133878879
Au 12.846627653775386 11.132052468766807 11.615770436974794
Au 14.214431533819852 10.641681509180312 9.328997301002966
Au 12.46301036022301 12.800514370410973 9.336992334513619
Au 10.528653786540138 11.758176104919729 12.952216843860539
Au 9.951608910772862 13.14165507189271 10.50896464449485
Au 12.492841311709128 8.70634863613796 10.35682209152923
Au 11.565568755139672 9.148377379835544 12.958211317462393
Au 8.26854921309732 11.488484825102958 14.433495514951172
Au 9.962096649609881 7.586537279795011 11.273988463602587
Au 8.792710365520465 9.3949499717167 12.811042112249961
Au 7.873161552627757 11.80758369771387 11.754798704755261
Au 11.752586864340177 10.380182583891465 8.145284179071338
Au 11.735718277126745 6.146721091739813 9.82692523127029
Au 8.309609314841875 9.472806460116372 10.07816834075513
Au 7.868774303878569 12.038714730629232 9.090380373964251
Au 10.22022113212176 12.698397093194746 7.754396605301479
Au 10.299475976467065 8.061845888890328 8.541746379596137
Au 9.079161450456732 10.183733472167987 7.478891207925083
