13
Energy = -29.73717464 eV
Au 10.537573723185767 10.03706961272777 7.406097588311377
Au 12.787632144880337 8.929322346544685 8.608131516802851
Au 9.922224505443792 7.684564816648639 8.636465927734685
Au 11.819545289916695 7.294919627579144 10.557731488082073
Au 9.749151813272222 12.155768366439714 9.167109923412886
Au 12.40762677814259 11.680767438616822 8.669355120742553
Au 11.177546641070025 10.05834644770295 10.538695286510883
Au 8.14091736944272 9.77422706612538 8.651076383158536
Au 7.367513940851549 7.246663172474138 9.722759609886877
Au 7.056380673595579 12.070217022866743 9.72966239146158
Au 9.298941151615995 8.213608402382183 11.372701219114541
Au 8.793729347242113 10.876749631804364 11.534909617688571
Au 6.463966137479571 9.555663766033572 10.837289903539379
