12
Energy = -26.7370492 eV
Au 11.404158055255003 9.094181788900611 8.963372724405565
Au 11.13397983320734 11.789826778146438 8.719276979041926
Au 11.29880634102181 8.742379734415113 11.653107025401368
Au 9.902652004540474 13.966644790154563 7.946220960259696
Au 9.65963111185726 10.570623723429065 10.584729965250894
Au 10.272546360414019 7.756861492405374 13.843182320222628
Au 8.441815564540242 8.33737479805586 11.924650631412163
Au 10.346113764616222 7.249246371360692 7.171382732877123
Au 8.940762733549997 9.516227101359796 7.463214840616686
Au 9.03910841979683 7.449734691627525 9.494953874988717
Au 8.248115657937829 11.883635281672927 8.446583830383313
Au 7.273604751146604 9.618012608690607 9.742408097856606
