15
Energy = -34.8058944 eV
Au 8.555614635826268 9.76445852144115 5.656664875283132
Au 10.581550391013645 7.930899018851973 6.229075875807455
Au 10.760237152282778 10.54453846969443 7.134208024638063
Au 5.431506121278304 6.7730522523054475 7.887607110391741
Au 8.148984255066022 10.4026955679617 8.274174252827674
Au 6.096487446914134 9.28966139244615 6.796625778306844
Au 10.128218808040048 6.193158574468072 8.298625961752599
Au 7.975505051036455 7.159832572472056 6.849707995849492
Au 7.598011790548616 6.074118302998856 9.397973441977877
Au 6.00763170317952 8.857623964840956 9.4961770427763
Au 11.63924145937979 8.444380870129296 8.725994856116111
Au 7.887986549305125 10.139696708897885 11.004966251494965
Au 10.345946585065859 10.632008260247026 9.875064590103024
Au 9.475054988558634 7.892412887618318 10.382579824873062
Au 7.000832269248807 7.534271842370875 11.623363324545823
