19
Energy = -45.89829405 eV
Au 12.19019693886859 6.405791926544791 11.138465280153685
Au 14.801359397818873 12.121984500359535 10.118361504523044
Au 12.382330414742077 11.30586977992654 8.965630303431302
Au 9.937424943210104 7.8488603043381255 11.012099159846853
Au 8.934397332239667 11.552607066338362 12.966845161472817
Au 8.264768026915267 13.99170501757396 12.11193596200125
Au 13.846808088666624 10.367630779729447 11.882871783376993
Au 7.852245969740075 12.019667325384143 10.224474277749554
Au 14.291971852149661 12.795723451184465 7.560140377839393
Au 12.251010176695408 8.431003179873354 12.923572580029274
Au 7.897614779309836 9.533381523086573 11.329835281404973
Au 9.964471990779012 10.368870936582109 9.616338375391955
Au 12.617978683734494 14.0146672567166 9.312943946495501
Au 12.30231794243719 8.868680370293944 9.967410825775698
Au 10.38695586613936 13.099946047212573 10.48500498325792
Au 12.872979394548924 12.958881455717668 11.906075016099841
Au 10.720633223873227 13.610327441770385 13.380637032441479
Au 11.66282285358634 11.01114619145808 13.532208256463843
Au 9.656858565914847 9.040144142369261 13.520167080392802
