11
Energy = -24.94233874 eV
Au 7.860696853063179 8.410636319920982 10.491643729755788
Au 8.55020948838873 11.122042429116009 10.37160673782312
Au 9.34115522413249 13.677125164066874 10.286638167894537
Au 11.20953144193612 11.712801190030387 10.360862994212892
Au 10.477684645246766 9.13355367265189 10.47475855343844
Au 13.159080399153497 9.809904768574455 10.45169531330332
Au 13.867587166977106 12.383688320456065 10.336174983404272
Au 11.96734452244646 14.296960437173984 10.258767260195388
Au 9.742425709210885 6.535398306288692 10.612624938530203
Au 12.405674680793593 7.24895441503841 10.59147832771344
Au 6.032394868651019 10.282719976682102 10.377533993728298
