18
Energy = -43.17847385 eV
Au 7.825659007962563 8.270587370938028 5.6762707293948065
Au 7.9982039985364395 10.988694408962747 6.206732872824664
Au 10.181184158165934 9.417233536347725 6.4809446004807585
Au 5.688290390694683 9.437573483305817 7.0123609202857695
Au 9.477459709294289 6.5108544188102 6.979694694848668
Au 6.201445315772518 11.938005523715637 8.086044823339249
Au 11.909359088273701 7.929395561678184 7.936135938180278
Au 8.739169520930536 11.289741055400938 8.88383026928751
Au 6.590186440883402 7.007272968380183 7.774733735453424
Au 8.915705944207481 8.355444025303639 8.909979428992639
Au 11.305976500721462 10.50470793005 8.84232202217318
Au 10.677113400295948 6.046018720810053 9.469703957008248
Au 8.053044691021425 5.342304325882417 9.319681795008544
Au 6.421598177212426 9.730744450160579 9.693781968970834
Au 11.190513426105976 8.519752039561759 10.705035184691575
Au 8.733868993473934 9.801089744050334 11.223952999754989
Au 6.4215621711339965 7.207503095843708 10.609585502173166
Au 8.98755967650085 7.020977951986185 11.507109168319706
