17
Energy = -40.76960539 eV
Au 13.649502371523862 12.715649107681443 13.025253458199272
Au 12.398436626791034 12.84875640301264 10.660496551842952
Au 12.911477972247273 10.386977101024836 11.956883740870687
Au 10.946594026551868 15.013667745271087 9.815432435465564
Au 12.257218170997678 10.536949895049073 9.124877510981559
Au 13.462086421526827 8.330432480817489 10.21314331865478
Au 11.008107402074815 12.108988615293033 13.175009376260963
Au 11.102845245360667 7.988716436076072 8.683892512125608
Au 10.545827361530858 9.530973152543778 13.848192603313274
Au 10.558048419435316 12.671826807068834 8.534834935531414
Au 11.091759847238597 8.330069183952755 11.472850420764532
Au 8.77433081439248 8.903826217281248 9.89524050465013
Au 8.823295463249572 10.814257991973541 12.07813386135158
Au 9.824568108851341 10.215765371700526 7.740212033708987
Au 9.491645144742826 13.278645442708669 11.216910818043123
Au 8.088476174771214 11.571167583923879 9.54713457187863
Au 8.558760978751295 8.097731086253285 12.472427004632461
