19
Energy = -46.04976626 eV
Au 7.192106151789642 9.8993641012434 10.53543543046993
Au 8.264212982007242 11.864342125663763 12.174470074706722
Au 9.61048218173008 10.718463594382582 9.740196422038887
Au 10.410922260616054 13.50685170973806 12.476808996992247
Au 10.252688892854243 12.605685912957188 7.789557371210024
Au 9.197892294735787 9.203917436464591 12.181248547715393
Au 9.058510081953923 13.460505158478938 10.059763916895433
Au 11.565291043921485 11.32200983113683 5.881166311337645
Au 10.225267555944006 11.058604535674187 13.954812223951993
Au 11.8581225800089 13.153721840442127 14.779025794688595
Au 11.891246087564944 10.270392760747574 8.291955442677551
Au 11.574410567416813 8.937573398908691 10.638172129896242
Au 11.469647115029431 8.57794926210937 13.428059700956261
Au 11.800172497574659 13.207356168075556 9.974303086384095
Au 13.005812939636405 10.833902572855 13.980511677385454
Au 13.162743217075656 13.148202717305827 12.29863336179672
Au 13.42003220321977 11.058128771466283 10.386900843327062
Au 13.891917335193051 8.91164186330453 12.145068943624482
Au 15.238838198883855 11.312207352524672 12.38553044375442
