11
Energy = -23.69886027 eV
Au 9.930286395866345 10.310727768986283 10.94823462207832
Au 8.32288099390778 8.19992774018313 11.724148894384177
Au 7.2203842375332785 10.3856119261773 10.430346666422917
Au 10.980539201861605 7.737889460091481 10.88962369543632
Au 11.668528324697737 9.553104301608721 8.93329324931393
Au 9.03408360058543 10.371682226910318 8.285221897797001
Au 6.286972014394354 10.037747208470352 7.84231887173878
Au 7.372336984652356 7.8728353318782665 9.20666307410891
Au 10.693417377820062 9.191511247404769 6.372981209348582
Au 9.952679779092623 7.411853984314889 8.392704532881034
Au 8.06409889359698 8.45880972698827 6.485128832574657
