11
Energy = -24.30747897 eV
Au 10.649874182813361 9.180167861553475 8.80130661518014
Au 6.886744669324772 8.851749677813778 7.487736502472652
Au 5.719109111272019 11.020845425268131 8.668713727091038
Au 7.538264112414292 6.668969969692522 9.13137921367835
Au 9.168422322421172 7.468276127661032 6.98147654569726
Au 10.288559266909786 6.416286340645537 9.373071136069928
Au 11.87226594593752 7.241513130582613 7.30770758591136
Au 8.937243382122116 8.343614688244626 10.859485238917575
Au 8.354346513028794 10.5732711158351 9.2987120256085
Au 6.266879236349463 8.874356357548267 10.259088959901005
Au 9.16674821544519 10.209406179270822 6.679779407510669
