19
Energy = -46.27055109 eV
Au 9.778373477923223 8.996049498408155 12.165841762339413
Au 8.884824965374811 9.964632853383938 9.684120090835437
Au 12.13393242457073 9.20298607445323 13.828875660155605
Au 9.012155840479664 13.519364889353685 13.560477912646183
Au 12.793426762997854 7.803760588706726 8.677976167128678
Au 11.422036521776647 13.540402208214616 12.108471968289225
Au 8.234291221758362 11.285922080722171 12.026123458398276
Au 10.5714033521606 11.307762413747191 13.53774206277706
Au 11.414092537082565 10.12828883901941 8.435138264384948
Au 10.236845219690297 7.690409956055437 9.68861396538463
Au 7.268957859337471 12.118431103844108 9.446442125312755
Au 14.56961065354998 9.193631248859596 12.513653351320928
Au 12.336262390878726 8.039355115455596 11.387331583407803
Au 8.918864626130459 13.765783255809385 10.845794908825683
Au 9.931545191765883 12.347418368501451 8.626428791211357
Au 13.801631158383188 10.037569825052525 9.995465825567377
Au 12.486194893590788 12.364108017254324 9.7792248572986
Au 13.163561671024974 11.525490628457732 12.372839875785072
Au 11.120327103388291 14.700943856160494 9.551537130801053
