11
Energy = -23.9377698 eV
Au 13.126429269344282 14.620127747586476 11.219003184851045
Au 10.919891537820956 10.691865343002382 8.353419478900362
Au 12.257795029380418 10.008323267583709 10.680616264415631
Au 10.818920720109674 13.432985676107863 12.159413517361747
Au 13.223156174770875 12.053341683324902 12.215274471405506
Au 11.016621129257485 8.172185100589607 12.304362850285267
Au 12.0717000830768 12.74595973079868 9.613292648354912
Au 8.602849070494283 9.51923800756034 12.244737422525077
Au 9.788447228906765 8.719246042918265 9.833491515890394
Au 9.587705571755603 11.523462153994002 10.635108337109232
Au 10.906368775191037 10.833149836642194 13.061164899009393
