19
Energy = -45.80946205 eV
Au 7.9242552932907175 9.719208499855032 5.705211319106869
Au 10.450923623558893 8.504278966964499 6.222997700083446
Au 8.171709112687918 6.988373817529438 5.989050005434813
Au 5.8059393571124165 8.359858531352515 6.860334751531921
Au 9.719380377332188 6.624921948076495 8.214611516517014
Au 9.821832197061607 10.989524544101247 7.1430481595862
Au 6.966190586059467 10.47486081624116 8.21386090541693
Au 9.41715827147803 9.246874708119451 9.450640309439347
Au 6.942882080807917 6.200650294973495 8.289460382900614
Au 8.721802255736456 12.171325958874238 9.37371403786378
Au 8.011352871236811 6.998317656411863 10.62865364817711
Au 11.893207175263571 8.455217765438835 8.526254324593069
Au 11.490885187118351 11.211848061990464 9.285911154932453
Au 10.799219151645895 6.920484960141978 10.69607628335106
Au 7.3244208913600035 10.182376558015259 11.003478564313875
Au 5.811751796851865 8.36289491039784 9.658102102824339
Au 9.904646619650615 11.174151797211168 11.636164822445124
Au 9.312821049700004 8.620722466433145 12.374588767204445
Au 12.043801836084931 9.32828747190998 11.262020978315682
