12
Energy = -26.97983198 eV
Au 10.139129022227056 7.160799321580569 9.133906612722845
Au 12.673447121365836 11.252178414340744 9.098784879196186
Au 10.75848568034973 8.856447184107171 11.314202767454777
Au 12.553544025976425 8.522991931636039 9.258762952423767
Au 11.729616633635251 11.419023973273603 11.58902457548951
Au 10.169733192223378 12.513142084908134 9.27310606932046
Au 9.051190221602027 11.060922971395813 11.440701717316818
Au 8.136638383089009 8.726233749729461 10.414261969864498
Au 10.262009457339625 9.890800965689136 8.580401665115586
Au 7.527925406403601 6.687622440286509 8.78400358857727
Au 7.801145043735957 11.146306911297266 8.917925880925194
Au 6.0439684087571575 9.101434372751402 8.784768555020355
