12
Energy = -27.22392872 eV
Au 8.290540606483074 5.480682401017566 6.902372546397514
Au 7.383084424335858 9.148778687279524 8.690553298037418
Au 4.575140610015327 4.267464220862907 5.284771873667795
Au 7.263429524685493 6.172130197523334 9.428088829765832
Au 8.691031917437579 7.722791787060651 5.4251768170719945
Au 5.693561271385372 4.966705639352968 7.594179854930025
Au 6.8251916220992115 8.444153714534764 3.567937018425829
Au 6.378644330551206 9.077918755228104 6.191043158420952
Au 6.0921768448639035 6.404068073755984 5.145014307412193
Au 9.554954794351092 7.628325251994943 7.962629209394586
Au 5.22395597066158 7.616365145399232 8.145039016474463
Au 8.938733731210267 7.95067936801398 10.589168075943274
