12
Energy = -26.76667795 eV
Au 12.094244900789 11.0610489382744 8.631324385651428
Au 9.004460241821377 7.768888465974733 8.089588107730602
Au 12.740070898792473 12.47268525516671 10.838258034331174
Au 10.104871459575968 12.631390777143826 10.249050838865328
Au 11.051009982708287 8.202473558678443 12.863401874064849
Au 7.361168955925275 6.637403140952019 9.940187366368736
Au 7.539485358609955 11.925557777287905 9.973772237246427
Au 11.072116145441617 9.145248016970987 7.067534406330657
Au 9.400914353660667 8.2157062513999 10.827318276356664
Au 7.053353027942668 9.311873984301304 9.698043502969046
Au 11.264378955828521 10.229160255242473 11.211633514540733
Au 9.378847901044722 10.46679380928765 8.66872089317938
