13
Energy = -27.27947237 eV
Au 8.95178849380951 8.952321310267283 8.951231514846368
Au 8.947305300470237 10.426560844301315 11.296112176119967
Au 8.970288438081175 7.494624204843739 11.30729320897805
Au 8.933758934088198 10.409057570475149 6.597391143124384
Au 8.95670510291863 7.477934774751838 6.608270076219644
Au 10.423265829327116 11.29792200465085 8.939092119458003
Au 10.412307252168496 6.5988507437419095 8.938030211772107
Au 7.491864814051626 11.304913253193472 8.965871766952201
Au 7.480794590527104 6.606071050339867 8.964831610965907
Au 11.300231437518196 8.946134585025103 10.420262020068376
Au 11.302889069124923 8.965270224506744 7.488621676042148
Au 6.600911618983101 8.938775671634575 10.415426662299721
Au 6.604376694249464 8.958051262267894 7.484053388470642
