18
Energy = -44.49651296 eV
Au 8.605892259680898 12.22407060701995 11.018314928337958
Au 10.45358908632673 13.341324555378451 12.907115411096814
Au 10.038595269801124 14.391098829723257 10.36040289345532
Au 10.103226637104296 9.034796373054434 12.426819730003238
Au 14.190371380872856 9.697934005185433 10.69615523496337
Au 13.120919210285532 13.241204134234406 13.667102453017543
Au 12.469223847362276 14.744502762261321 11.516146613815712
Au 9.63857449957288 9.877652668687382 9.740357800470663
Au 14.292081008796483 10.842295684085773 13.232315924156046
Au 12.233822944667883 10.818773527611823 9.127138815669717
Au 11.563217054838647 10.966439453388618 13.965016083317023
Au 13.81226542368017 12.373374221618958 10.982079340941615
Au 8.885476928064785 11.237109571728324 13.601321666108715
Au 12.38482488246695 13.560145854919018 8.999706390654886
Au 7.602071629652272 9.754952087660232 11.592061434712768
Au 11.812828097440995 8.349546561613003 10.297336325977437
Au 12.71077178248614 8.663451669945527 12.896026472550083
Au 9.972802390004432 12.29476224922105 8.550616434393453
