11
Energy = -24.13009245 eV
Au 11.981967164391909 6.5461420567162305 11.192750336413944
Au 8.17929766024622 8.001881816173611 7.893738456080625
Au 10.071023629431789 6.817365242148805 9.379034849199506
Au 10.781970320704469 9.257885238158568 8.352025401937073
Au 10.627577910050274 11.842681665505356 7.827019623415046
Au 10.953271390825615 8.977257647362636 11.131671676308352
Au 8.194058257056136 9.02299318401041 10.366689837304028
Au 7.9758453647481975 10.695373186757712 8.153231499330957
Au 9.83292809315285 11.377491573435416 10.336548507887043
Au 8.496518853227016 13.26467134163485 8.843300685511263
Au 9.012531300760356 10.267403135787774 12.62023544025091
