18
Energy = -43.70329934 eV
Au 13.198908424348568 11.523974244330091 12.271814295611415
Au 13.657401656271789 9.519677835699033 10.524660049478584
Au 10.907826917179806 11.918394797161072 7.425771963653144
Au 12.690979280444955 11.959390388690965 9.555038651394332
Au 11.953813096875939 9.49450602393333 8.28353715156739
Au 11.15346713606474 13.224688314906674 11.51200906017666
Au 10.853120349753494 11.539574211657882 13.696462375750256
Au 11.68960291121533 9.134973155042347 12.48034253638637
Au 11.918591331801595 7.465602702786274 10.227362901734773
Au 9.045456066242624 9.578383215948913 13.260532214407462
Au 9.626141270183322 13.542381833934607 9.288468031962234
Au 8.660700970881978 12.04550039707014 12.013609153008506
Au 9.575153857984903 7.462790746831469 11.64836361642357
Au 10.119703250836226 10.855089230357084 9.941807115504323
Au 9.568651217593171 8.16467551276083 8.958537152381094
Au 7.828178701818128 9.454580887765903 10.764184705422602
Au 7.4303993979913345 11.885397953646587 9.546188480273015
Au 8.639361996333983 10.328947182303029 7.6033063687493945
