11
Energy = -24.13468427 eV
Au 12.275571838021479 8.815906666056206 11.425651882443406
Au 10.633723577326641 11.932527528618811 7.453530617236929
Au 9.96391568956387 10.546633314119228 11.740549107990978
Au 11.547210563547763 10.225725377016717 9.296126106096455
Au 10.46775624698393 12.694288095251057 10.097168065305786
Au 7.848570524098965 8.918254338631721 11.333950226387453
Au 10.164653675942214 7.907159656698184 10.128022777065416
Au 8.660737532542946 10.712507219628856 9.326452537047524
Au 8.791099020361099 10.047068172270547 6.726489883844845
Au 7.96301650104652 6.336660751939836 10.357855541714356
Au 8.00486380607005 8.14405508880821 8.38275864441203
