12
Energy = -27.46992004 eV
Au 8.082175216277221 11.57969480713441 10.2092011566515
Au 7.95986187423281 8.939411495997708 11.238681604495227
Au 5.725169367786484 10.478247498893857 10.830363602559066
Au 10.484364132459364 9.582548189797961 10.44896011918429
Au 10.546668561844575 12.291093692455364 9.636660988632206
Au 9.515634286654274 7.0409026264736525 10.19684424615216
Au 9.476844958229334 10.347680989391181 7.917451699481719
Au 6.964422336287649 9.505757694985272 8.592141169803023
Au 12.2666671840691 10.351809294646344 8.423350468304635
Au 8.692251216697013 7.776745042588384 7.524548647883067
Au 10.173480328072523 5.519591344936622 8.020817489466186
Au 11.431300658762332 7.868625534832025 8.24175353603312
