16
Energy = -37.77933026 eV
Au 13.396526675617253 10.287393991736796 8.42819904216564
Au 11.31954002000069 8.49098740639054 7.631475256403626
Au 10.92609761605602 11.2113921894162 7.6840481716779925
Au 10.405899934578652 6.784696659606257 9.57829079217451
Au 8.930227053236672 8.961667393749758 9.017806048590815
Au 8.366457771645038 10.736526538382986 6.9956504614527315
Au 11.76096681919216 11.781412146539026 10.24931794146936
Au 12.063888932711055 8.935209803861861 10.32813728797698
Au 8.982932841611028 11.862359117196469 9.489590624183966
Au 6.554062643970618 10.318850692900524 9.064119122380758
Au 11.70067623048593 10.09334180844297 12.772710337416639
Au 9.822961628777223 8.351653606438225 11.767511610831514
Au 7.693550430848875 10.329162272347165 11.493162718676302
Au 9.723407938354242 12.143197111222776 12.09423545981293
Au 12.287992632995161 12.709696793174158 12.794708279145793
Au 9.114346530463788 10.060730790876347 13.805083443145154
