12
Energy = -27.01569798 eV
Au 11.211912303550545 9.009538676551085 7.404215631842707
Au 11.454091819508646 8.28479519153422 10.06734150559028
Au 8.117963197287196 11.305552651112677 9.342375639251363
Au 11.063966527829248 10.96828622054513 10.146004624778888
Au 10.266328253129887 11.543413609220707 7.623260093497461
Au 9.838354514804443 13.392763516101658 9.672985662427376
Au 9.117000315855103 6.969223816435051 10.76143247742423
Au 7.712952764538543 9.323109251552719 11.130008787927103
Au 10.40133573578392 6.500650940430017 8.293241961075633
Au 10.24730493616317 9.352921417498719 12.233541644569241
Au 8.808505540450238 8.776775105498825 8.62064288954911
Au 9.012879107362945 11.827556392445441 11.913634595434846
