15
Energy = -34.64909222 eV
Au 11.466433007933423 12.478356107206972 12.20577735938237
Au 9.857351536161762 12.262820543422675 14.400555266224556
Au 13.437244683890915 11.358143242952037 10.617368837062617
Au 10.3653264095295 7.383002051687557 12.246081791310054
Au 12.471255734934235 9.51265673654341 8.545438332416518
Au 9.857004189438369 9.279321312481146 10.353468930447418
Au 14.775399745586899 9.122404831567536 10.079206825657778
Au 8.731890417228415 12.006082119576366 11.951642968565094
Au 9.951521960883161 9.931481214691775 7.701974299437331
Au 10.457786894044874 10.032308391996493 12.959099540015991
Au 12.60199572027724 13.872518067676614 10.13972459970418
Au 6.525055751196693 12.756406983724284 10.780141095128887
Au 8.149033970529235 11.191793228646153 9.333411348927891
Au 12.424308609484099 8.90895533509573 11.354310077070622
Au 10.884118595929696 11.763841015237594 9.577855012993256
