17
Energy = -40.81518547 eV
Au 13.547723491566705 10.845766424461871 10.509867789186847
Au 12.229441511962891 10.453704220579192 8.192412454247687
Au 11.846331359501905 8.664050988346514 10.293681194255441
Au 12.144899030851898 10.06970228368666 12.888081874126547
Au 10.563197515909849 10.109631508137339 6.123610184509723
Au 11.650810662475445 12.675072625697087 9.730062667629603
Au 11.30895487585466 7.4592982607747755 12.72115270238106
Au 12.743213221435143 12.663287679522652 12.423517249324334
Au 9.777782760970812 8.821687801733505 8.401629228353473
Au 10.045758260960586 12.013596925363627 12.386645071971689
Au 9.270496755190845 7.860269940573135 10.84121902254822
Au 9.48749009250989 9.4873503633794 13.170296277534032
Au 10.908648029560355 14.55147089434907 11.579347308398216
Au 9.508760094561259 11.571419595948571 8.114193553209764
Au 8.45924671300378 10.541648164314214 10.477038470307113
Au 7.096596288567559 8.865316443923621 12.160664647221255
Au 8.951849445829641 13.238046135671768 10.106879445923674
