16
Energy = -38.13034206 eV
Au 11.262288458906696 14.897580694934142 10.299191218687598
Au 12.429789848892463 12.826033709864193 11.662120402517106
Au 10.974906253487461 12.488168235692497 14.00869753261017
Au 9.6342150400975 13.240905081873274 11.667519079102641
Au 10.746822760388977 12.484213862581761 9.183450471672728
Au 7.182246282429115 12.159861283004746 11.75217168055855
Au 9.316312960192604 10.667381887320813 12.715155729912361
Au 12.997846950891685 10.982560884544084 9.536751681866347
Au 8.579703581988635 10.616832382128214 10.01592089180808
Au 10.80792061062435 9.888591110766049 8.484073883281981
Au 14.467173391562424 10.969830366501157 11.827804273714973
Au 13.108260215748713 8.583899011287516 10.834513591421096
Au 11.976042356094565 10.242808076640804 12.70392316184047
Au 8.798589634875832 8.089266398335596 8.974236017163634
Au 10.30278583781041 8.579224509125568 11.266230646147577
Au 11.497676137603952 7.309687152792803 9.084114670934012
