14
Energy = -30.99398005 eV
Au 8.23574055589886 11.63294841181858 10.361035291251753
Au 8.187198517134764 9.31704985712726 6.220245335431904
Au 9.798052372969021 7.388670174669903 7.2210865039771095
Au 8.199241026896228 12.00447753118418 7.686964097317508
Au 10.464246629104803 10.6456323899521 6.945240314863778
Au 7.451095340136286 7.329474014867859 8.82869403116287
Au 8.269216572340005 7.8871564866054475 11.357261227863262
Au 10.330381095380321 6.6746392585192895 9.778176439316626
Au 10.775779660882638 7.532680051294621 12.406430433861601
Au 6.636400990098113 9.917997428436852 8.472389169035656
Au 9.300976335556859 9.34170973808335 9.122602495033977
Au 9.813197997978484 10.14628703829659 11.979646978337025
Au 11.844908970203706 9.011522358554485 10.368223651171093
Au 10.975239699967933 11.4514312605895 9.53367991365014
