11
Energy = -24.31101638 eV
Au 9.972042467454864 9.827965824205048 7.273891502788058
Au 11.422694142411427 9.254365385050376 11.662875329060428
Au 6.460391876497855 7.094904901752554 7.05270149405911
Au 8.122081868090474 11.653851913220489 8.230294937738144
Au 7.429617417020703 6.548316639007485 9.613311969628912
Au 9.13208859833439 7.270794127827599 7.4607599108581395
Au 11.022976596318395 8.168114664796917 9.153840685914977
Au 9.064480212860966 7.998561905614575 11.16992024815901
Au 9.848987946894262 10.684464142680778 10.050542764221243
Au 7.552809219286519 9.165328117584957 9.15761972094207
Au 7.261126216362534 9.622628878259107 6.463538059694463
