15
Energy = -35.14078631 eV
Au 12.418908217699801 7.701752775499339 8.259878942424775
Au 13.453998327398857 9.871152978819717 9.532597688802518
Au 12.937309963696853 10.387595426518587 12.156299804889448
Au 11.280007044848057 8.580963728186928 10.800116212384873
Au 9.769299650058054 7.333489358604461 8.8395602597464
Au 11.84577545931804 12.735706907728236 12.91642943538467
Au 10.951687533422604 10.03551495573802 8.18921747226354
Au 8.59229439351409 8.973893263607787 10.717435357039443
Au 8.311026104688377 9.404593712340102 7.7607823819649315
Au 10.14285192307415 10.527566153152618 12.438626667690144
Au 11.6332545556661 11.923645839456574 10.146133214509701
Au 9.584291363002519 13.220495495960312 11.511601099381267
Au 9.017262428721693 11.587744345824738 9.327976480046072
Au 6.447895498919368 10.294237275618352 9.555283535345604
Au 7.572656574062783 11.383717404961963 11.790509544848621
