13
Energy = -28.80508066 eV
Au 7.858755393341123 7.78769611044669 6.945148682825378
Au 7.633191704422553 7.721634384182416 9.619932470258162
Au 7.499567921247603 7.75412436276972 12.314180564334334
Au 10.311677063593189 7.791683988573463 5.778620849108162
Au 10.228064622981021 7.718123721196041 8.453778376315608
Au 9.91383377898794 7.746508653620153 11.237476727915164
Au 7.856890422262186 10.501059907649578 6.944152808861931
Au 7.635985293004815 10.566004758083189 9.619286279131014
Au 7.5038084054319025 10.529643775281631 12.313708275463041
Au 10.308954639834749 10.491325582096007 5.777281886852014
Au 10.22901390398364 10.568602799162743 8.452119166205815
Au 9.917342384842417 10.543146316074095 11.236192491280283
Au 11.964312966066881 9.141843906622285 10.169519843369056
