17
Energy = -40.83145331 eV
Au 11.974357966061897 8.163840645659505 11.915645629057222
Au 10.23918693276776 10.046317193042622 13.162519629662192
Au 10.344075694707499 14.272013923604623 10.894259787734606
Au 9.802757840538876 8.781079142071487 10.28972032918033
Au 11.33701396769497 12.433852912221154 12.937730245046438
Au 14.123279781482228 11.823696727177897 10.177218879196118
Au 12.99318074565193 14.024277161762022 11.42723659719285
Au 7.7303068289538786 10.56310787616014 9.543005552844805
Au 9.473132256575216 7.443121358235777 12.710397757486898
Au 12.332672110932505 9.820073687988643 9.69646571329528
Au 13.997382962991002 11.955641122578049 12.976043823246965
Au 8.946510792430002 12.963055251987258 8.98114607605303
Au 10.14923340142608 10.52197670503075 8.225568210711202
Au 8.972197083941971 11.970093852933923 11.654413856827897
Au 14.266158115792168 9.527184623690038 11.680863013218936
Au 7.7061830638019675 9.509774907119562 12.058937658879993
Au 11.712576035492269 12.540822157754707 9.211199294922674
