14
Energy = -32.47657109 eV
Au 12.384580640840095 13.284807854492973 11.52264600338525
Au 9.651373124065008 10.035802656606789 13.604295627606758
Au 10.376956997297565 12.597177925888099 13.187103478492478
Au 11.542389276796055 10.660082063953066 11.529827624085653
Au 11.986582987829664 12.090917450244426 9.163502092734957
Au 8.754660696762906 11.320733085745681 11.2850669827924
Au 10.004841610401954 8.411577540542789 11.478519775800226
Au 9.21822256627869 12.226794448801419 8.792357091090368
Au 11.331832106689491 9.4163726005282 9.127667613992738
Au 8.455426934452815 9.684142581049581 9.156419213914438
Au 10.92476233991414 11.325591616942075 6.806001594262674
Au 8.837235092039249 6.031889076282519 11.369891964704392
Au 9.482671448875157 7.140830784883346 9.054202269094718
Au 9.927491498511953 8.737959540653566 6.927362265634963
