16
Energy = -37.55372017 eV
Au 12.342209251611182 11.16807829519736 9.345786866455606
Au 10.311675922502747 10.774009211000747 7.660971040934781
Au 8.66457161629605 10.178737958516939 12.136589413911802
Au 8.05359365769731 11.30435445662281 9.686201168244617
Au 12.630244139489292 9.181394966881511 11.16415706943511
Au 8.967713901933779 7.810796591617841 10.648039851906422
Au 6.689111210031139 9.14200979141305 10.54617925640856
Au 10.618509274251519 8.406236274439033 12.905054329096846
Au 9.485249112000286 13.306010313119522 8.652399456542017
Au 11.388699211084091 6.679001187183644 10.888215551188956
Au 11.86039423304353 13.090610918054077 7.462379983015309
Au 11.013277296643762 8.577695495716087 8.915623900992594
Au 9.930662574515933 12.623587670557189 11.206197460051088
Au 11.77972390212754 13.644388647986748 12.86362315477693
Au 10.997507794018485 11.043190826764818 13.188672819887104
Au 13.349675677974075 11.715015847768019 11.753348603086232
