23
Energy = -56.3787968 eV
Au 14.434716272099127 12.276153228382213 10.74930886702151
Au 15.358177305220838 10.538386369564243 8.962381362347273
Au 15.043584722637465 12.80975427479958 13.303264876401686
Au 12.467063224610364 14.022229507995341 9.562979480390387
Au 12.712363432206836 11.332285425523581 8.779667781469472
Au 12.647137401865052 13.676428622560389 12.383713502680711
Au 13.091855761474978 10.868714504254228 12.940178226288054
Au 13.513560341724228 9.319328304983356 10.583413773781178
Au 10.257551415958492 12.486383443241815 9.069766506888332
Au 11.363052236647388 7.760577380506914 10.076041997164745
Au 10.501938562343097 12.221879252297493 13.268356606025167
Au 10.286807732007833 7.213635311321201 7.62234872738695
Au 10.883601645423855 9.546222632565017 13.887371741623756
Au 10.426831302040908 9.829255378478383 8.315420276620575
Au 10.964904071412546 10.350150836860765 11.126059921538705
Au 9.41268352091099 8.11303772491512 12.089691378309434
Au 10.22684193041797 14.117783586781442 11.349669915916953
Au 8.478801563557456 8.012807978973825 9.45589074006766
Au 8.386176786589946 10.484677521976547 13.217435618667128
Au 8.265272133346143 10.832377338243612 9.83741205911964
Au 7.904867529478576 13.539126288271033 10.13171588574164
Au 6.48681531796019 11.781778978194568 11.830627642303401
Au 6.833667566709809 9.094105204273472 11.316830823469319
