28
Energy = -71.8250454 eV
Au 13.681154911993481 13.269376295167959 10.872028326805129
Au 11.842403827748461 13.3479966839854 8.555493533770262
Au 14.579362569094904 13.50300929007979 8.301336758850635
Au 12.526258952799996 13.104148196817926 13.362401813451095
Au 10.524939946035326 11.193375212165217 7.272045761703039
Au 13.107474302856302 11.883332651427267 6.587954553171047
Au 10.86627219098434 13.45414271797933 11.160311369403063
Au 12.887387209821544 10.798988793870487 11.85484338613476
Au 9.221230916173308 12.963370569348251 8.970524265339408
Au 13.884397878061156 11.021364743759685 9.239276905362823
Au 8.193840585898258 12.724726514172835 11.545877609295863
Au 9.698851439567669 13.311008794720019 13.726017158580241
Au 10.969632503657724 10.886414726562428 13.89586415313266
Au 10.335064809290689 10.635535026608927 10.636361127664046
Au 12.836521495498577 9.286072315747576 7.288004992617564
Au 12.705922768206747 8.711087565998888 10.079779521752375
Au 6.5448379250337405 12.38514635129497 9.316472537472125
Au 8.052649960084477 11.098743258349975 13.777767851031104
Au 11.271668363185487 8.571934511617304 12.479896949352414
Au 8.252228972604332 10.335311430054029 8.734943517957435
Au 9.521713344876611 8.730056282059715 14.646401119526166
Au 10.31463286617766 8.617477540784273 8.412241432884102
Au 6.748139326099881 10.383416736003786 11.197695021259582
Au 12.319339180066674 6.741707157725425 8.201568475962219
Au 8.609078032989151 8.311682259589261 10.611438019239118
Au 10.881582822601056 6.584707199196176 10.520005169249222
Au 9.312587223991939 6.636139281720658 12.750318946851467
Au 7.303924740736148 8.564200968397648 13.047298743154164
