29
Energy = -73.86042133 eV
Au 11.140381027250115 9.028826266009883 8.765076452852044
Au 12.877724395907554 8.42960489149054 11.245461988917315
Au 8.588268850125912 8.397045530016765 9.784770671614009
Au 10.035289820593754 10.34038087590443 11.100123945814344
Au 15.45852118892641 12.743241877360486 13.306915493247002
Au 12.928978288703266 13.205062196528884 8.499499149954424
Au 8.298404344009143 9.179472051237056 13.02738308236935
Au 12.997398530400934 9.14112860666338 14.081386265513293
Au 10.828198556326054 7.922875356989449 13.037757354736735
Au 6.959915851452082 10.351957901343663 10.89662792446107
Au 14.421418820376221 10.49998395468594 12.13929792545298
Au 15.517879217541694 15.10509259123736 11.882278449743295
Au 10.693553112675776 13.3536199094257 13.648346727607167
Au 8.70204298296555 14.542077719650798 12.148936230204109
Au 12.984672029597933 11.875180204300783 14.248645483143587
Au 13.151536393856622 15.101221983492282 10.442361761582895
Au 10.563288184190776 10.555632523016431 13.963379749913715
Au 13.203481610530417 14.447531428711184 13.266469947035803
Au 8.667851085861319 6.6385706411100855 12.07335624961178
Au 11.094362757368089 15.849160804459636 12.171341662285279
Au 8.32183246242337 11.925275850546141 12.961760601216229
Au 8.388347848205791 12.565427554236967 10.222464524857081
Au 10.574426859807012 14.239369519974002 9.984828846156924
Au 12.032482595020625 12.177646833330927 11.439354518637245
Au 14.773102330415915 12.795985277230233 10.565897377524356
Au 10.54731746350638 11.768641066731474 8.753762423005199
Au 10.842924618521355 6.860782180783611 10.377933265701579
Au 13.41658361823087 10.56535310770783 9.55026442811737
Au 12.43393402023699 10.844268556213361 7.029528996143308
