24
Energy = -58.39128039 eV
Au 11.680270544258619 12.384198456825844 8.763646138826925
Au 13.485800124206623 14.424969198117266 8.768650655154655
Au 14.001962872017929 12.14378011979102 10.293798024229062
Au 10.184954972062155 10.141999007623015 8.855857498165053
Au 9.804692986497601 12.143076758509658 10.83835812837658
Au 14.579722826149032 14.762253319407648 11.234688922691685
Au 11.78343925887253 14.068281688489428 10.99871312445671
Au 12.63884035894173 9.787988417329288 10.160319062247044
Au 13.32385953253361 10.721431668885725 12.614583944499513
Au 14.78227880276072 16.433033748482686 13.416138538076384
Au 11.146310706573649 12.505207926884625 13.21013108849175
Au 10.783324458943273 9.685667295599869 12.367421057554333
Au 8.335301694371738 9.846192609631386 10.81123769575554
Au 6.528348666180114 11.08461859969923 14.812416470315414
Au 8.890297747920732 7.481320465940978 12.091276211212964
Au 10.815419620332632 7.786884450637638 10.213095348088666
Au 12.679026432797492 14.725938524875822 13.453441827672023
Au 7.035092254748623 9.118421690856808 13.119065507332989
Au 15.581371586832892 12.188095222500966 12.477040290538298
Au 8.77110397335654 11.248861178200057 13.409138515323484
Au 16.905829965500146 15.788487080021016 15.046891344274146
Au 13.172178891415323 12.055682063952306 14.984832113072569
Au 16.949343446258933 14.472788406533219 12.670141407760164
Au 15.060358307430915 13.874521635667502 14.710559124935639
