21
Energy = -49.85629759 eV
Au 8.174666823371558 15.056581826013735 13.435233548342792
Au 8.120442308906718 13.827533101953613 10.823359279154088
Au 9.920671569445835 17.001040276598175 13.649129356705693
Au 10.278003943336596 15.326717971492524 11.4541669100632
Au 6.292889034557406 13.27639992405904 12.802918624471012
Au 8.724986519571951 12.348963489720013 13.601148998577353
Au 10.459240212578846 12.523580576439992 11.34642800994453
Au 12.781672640220078 11.200279642193994 11.676768685167456
Au 17.1293443157533 11.392664369164692 10.285127676454263
Au 15.344190511266472 10.425083584276834 12.161608063363696
Au 14.885919308499249 12.881833477346674 10.824749330061344
Au 10.88489438273044 14.460007143484662 14.159329933594288
Au 17.354784156997113 13.200062889231662 12.364733625998218
Au 17.99783895696161 10.551048005855142 12.838995381313858
Au 13.703321242588475 10.592288348447942 14.410398810212529
Au 11.265135128032151 11.658582392708926 13.983532049402253
Au 16.253586613436656 9.546802500110969 14.674639239496024
Au 12.73107391755861 14.133816543024214 11.9777338978218
Au 15.167974521964512 14.562099221703454 13.096180758090773
Au 13.303628201442812 13.387479045425382 14.764659113759231
Au 15.917319878563209 12.288576779841172 14.501864425092668
