21
Energy = -51.32934296 eV
Au 15.277603104515736 9.714756866610292 9.961597043840259
Au 13.111676739379366 8.621777541596437 11.291223202456857
Au 14.116795730946324 11.85198291023439 11.179879346735152
Au 13.727062904598242 11.445140842588696 8.501640118321259
Au 12.991161155845406 10.498288392621483 13.247922070675829
Au 12.956818788124764 8.743658602071658 8.548429264319651
Au 11.840779780948964 12.919698866933016 9.809794432074069
Au 11.181718747445748 10.795886058446658 7.91747006246211
Au 12.141161275890287 13.13086335814954 12.610801261383187
Au 10.661282027795442 8.521409179127941 9.999041974451245
Au 10.327758679435163 11.022663442507621 11.401494460042482
Au 8.68786006623386 9.560455342452228 8.435879591678308
Au 10.838207164123084 8.756570055851716 12.85516239462492
Au 10.62593510204015 11.463599061763603 14.207228804960117
Au 8.917545337584901 11.50209103709681 6.565703297742491
Au 9.701068163945985 13.7071382359284 11.453476508300668
Au 9.093227938296765 12.296204315809524 9.145317565061443
Au 8.181193457444733 9.01774790285154 11.026719232950976
Au 8.470798544009499 9.987624455687367 13.61600566784035
Au 7.620794868676282 11.874527691243388 11.447334414018998
Au 6.023459404753656 9.959039790757577 12.467228308968837
