26
Energy = -65.89383369 eV
Au 15.716930369329532 10.977491658858115 12.640003334925924
Au 14.537382542030684 10.935713370296806 10.16224780253805
Au 13.736247239884152 11.153904187063876 14.624399545265636
Au 12.655196248459696 12.912622985155577 9.420850021860195
Au 13.653356332289698 12.666540980952487 12.207227934084441
Au 13.330402628888042 9.577656596007454 12.360666832139891
Au 13.243039006178174 10.73195911235059 7.784422893468881
Au 12.377714258609602 9.107637877823189 9.809232776357097
Au 11.570527818598375 15.38011432492696 9.21233509973494
Au 11.582249713034978 14.282803925379852 11.787390192011745
Au 11.264296753503263 8.896310663103902 7.211117425421009
Au 11.090968256250683 11.276127528251386 11.19944154793494
Au 11.496130445200919 9.589661700793517 14.571924825120567
Au 11.334815926627142 12.327709037754465 13.79746192667344
Au 10.440858881940104 11.234586939762174 8.349736539661839
Au 9.682062455801011 8.535074991369262 9.537302910751656
Au 10.837385071795323 8.436481270871187 12.047424144138027
Au 9.299496236410418 7.919587913149638 14.224146098532788
Au 9.200499389182655 15.53335599572325 11.310066776045618
Au 8.956041651100666 13.076390560739021 12.449384887100809
Au 9.114443566127154 10.602284780717806 13.433968709353543
Au 9.666424425105886 13.41329983080276 9.673416045718184
Au 8.392284802348193 11.062034747737686 10.487535466446925
Au 6.958237456343981 8.982805570294703 9.376511167555648
Au 8.016404374170198 8.562496526660548 11.852910372203974
Au 8.558877006067043 9.424103662947429 7.203472901987827
