20
Energy = -49.35152345 eV
Au 9.928031014120748 11.955854482131935 8.301266614692857
Au 14.185952694068853 9.887293220106956 8.376543471742503
Au 12.547140506343775 11.969683070380164 9.195991654303048
Au 8.737694137880753 9.475033890739777 7.993873700213141
Au 12.717779529090459 8.06138327985338 9.940591923019756
Au 11.453197618625238 9.697023159540775 8.065113157466682
Au 8.232659624770406 13.93011043526029 9.291084838293227
Au 10.109055580401689 7.488201865878824 9.343709672120536
Au 7.488540870246408 11.304122384141271 9.599276130003323
Au 10.661063745976943 13.456142395534123 10.508928789814988
Au 8.327554405169769 8.939352818806558 10.808257908465075
Au 8.323197427487077 12.7589560448779 11.851605898066483
Au 6.631996170553308 10.625823599631333 12.191997571886384
Au 12.958636223309753 12.770138372683595 11.805165923306426
Au 10.705321361543641 8.208674003675858 11.944217136617786
Au 12.01300123028891 10.364983266560348 13.08090143096487
Au 13.941656955151606 10.322117217122013 11.070866917481
Au 13.399589221008213 8.023198213806603 12.601241603936701
Au 10.639127179199562 12.711409336539251 13.303920162157404
Au 9.276651413380218 10.32834585134605 13.003292404065114
