28
Energy = -71.48854969 eV
Au 10.492592418745332 15.051750411510595 12.496675392986997
Au 11.581987821490952 14.677085531365003 9.953296693092751
Au 10.188981860206683 12.549553946586364 8.729743444561949
Au 8.825263335134382 14.306001666569774 10.390303382023165
Au 8.157865048962107 11.618080685266586 10.439346756140763
Au 8.70313927110952 12.990307446741978 12.934807859654812
Au 7.41879327515975 10.559407908614299 12.900690164577412
Au 9.44756103449556 9.815770908902829 8.771723532163636
Au 11.045274491633007 12.257036213830183 11.521393131736989
Au 11.617315667123897 10.676207284554524 7.3727342059916
Au 13.122202520726248 14.473773474218177 12.474304721352944
Au 12.961364488273777 12.826537207258125 8.401163092143475
Au 14.282076721445641 14.650061752173878 9.996519694491504
Au 15.46324463582517 12.183913354262724 9.524247605423767
Au 15.638569523218116 13.326866969939688 12.103595768805523
Au 14.054193835715044 10.121898769353393 8.525337485284378
Au 13.77161428197339 11.389376067744283 11.597605505139768
Au 11.893236812566427 9.91316809256032 10.330229915068992
Au 11.329977346190164 13.146741377196728 14.271788196411984
Au 12.030502054459129 8.08842623228117 8.35140653209454
Au 11.853632566651509 9.976266642407818 13.01541172128189
Au 9.607743831573085 10.957030320229503 14.511922631085802
Au 7.837510733143294 8.91047237526717 10.779438921894808
Au 9.424738216764595 8.420657491423084 12.92807723634552
Au 12.352316099265451 10.925824981764922 15.56188080051624
Au 10.232086090625359 7.601115364564994 10.399510636797801
Au 10.834040484534519 8.627847672364169 15.244706819765995
Au 14.093573358865653 12.473678470910416 14.205068887264012
