28
Energy = -70.79291044 eV
Au 12.530630908909025 14.418191725118186 8.226543806773407
Au 12.264645194694213 14.602840066316045 10.99037256630179
Au 9.824945517920108 13.715085994120637 8.130734709315044
Au 11.432167492270406 11.786489740742535 7.083872879633353
Au 13.732905091193569 13.40405394606775 13.238919065609007
Au 14.151530409899374 12.242448638016883 7.9932964486367
Au 14.414126605185476 12.74987989224849 10.680087772420233
Au 9.447533034535981 14.00428582903623 10.858059140814824
Au 10.984023119624016 13.779984106634531 13.26232574172002
Au 8.278439695951544 14.276637787076504 13.323466138932215
Au 8.874827504756778 11.56294239906645 9.551680302026215
Au 13.297816574145694 9.75134891637384 7.191557663490239
Au 10.784038676696685 9.666827458111618 8.928856878655184
Au 11.69118767748797 12.18207049833359 9.80872037073671
Au 8.13792338785316 11.75921493553385 12.233036507012203
Au 8.922843046412789 9.318932699593425 11.177153072425808
Au 13.834674564089454 10.150550900663228 9.882700525803589
Au 10.888385775014315 11.071256156637714 12.161552890781758
Au 13.622720259795573 10.763746424779471 12.585231808449683
Au 12.252893066747463 11.772152653906929 14.887814671456875
Au 12.7982836845048 7.707824176449516 8.923974518202977
Au 9.210607548706887 12.240081186239458 14.854071244422105
Au 10.372359940381088 7.174204330967426 10.175451976792013
Au 8.864636080925191 9.661682890817351 13.963868561016364
Au 12.303251081827488 8.538920329510876 11.565686468587254
Au 11.764128295553956 9.160597322942564 14.17344791949465
Au 10.00774309354071 7.387812155270236 12.927522019461769
Au 10.397789973813566 10.22605390094968 16.267658151372213
