20
Energy = -48.94939933 eV
Au 10.065296483096501 12.765530806863525 6.5211157728259685
Au 12.624972937232377 12.124136171399337 7.002422427598882
Au 10.757807446665636 10.391220302883879 7.8968171077062275
Au 8.739149321305103 12.03785440838429 8.97556832813962
Au 10.043947408574079 14.382013071878832 8.82947248158553
Au 13.309222891911459 10.693756976655278 9.233777946987843
Au 12.462730024747115 13.34059026535753 9.491558400668838
Au 8.79353118652044 9.370694155656402 9.403024890971238
Au 6.986123131017588 8.940632493757468 11.361085637855949
Au 10.335535290083818 13.13594821466665 11.261394924913615
Au 12.814049372398967 11.958048595162706 11.791322974699492
Au 11.484531427826136 8.723813834879124 9.958576645712517
Au 13.779948667477754 9.28843009715707 11.486809241600698
Au 8.318220460281033 11.341564954198637 11.599646287495903
Au 9.381728935020263 7.408768631940944 11.211396125026505
Au 10.530474270291826 11.445554682249798 13.3341262999147
Au 13.011850767633868 10.342010825086454 13.95166714373962
Au 11.470699619536349 8.371343750766998 12.68310329880325
Au 8.848717868402948 9.255183656610036 13.35191327333334
Au 10.822585677719966 9.264027292188514 15.236323978164059
