25
Energy = -62.44342788 eV
Au 13.05698189283669 9.754179051339452 6.908669075759398
Au 8.390771676664047 10.585799653731033 6.765799818126006
Au 10.389565534889588 8.741526879355867 6.948849266881105
Au 10.984357334126164 11.477984993747624 7.347368069956671
Au 12.414015832107221 7.013720969354288 7.225984078283758
Au 8.715147031011458 12.414080984102668 8.852411498307738
Au 11.33562810356917 13.424612464810236 9.26633628479617
Au 13.072469153809514 11.16152572146654 9.266646571785083
Au 8.466185997841475 8.835385938994376 8.993541990179626
Au 10.887484512593096 7.76002576898096 9.6574193057873
Au 6.482538450697811 10.795878967107917 8.752321555634401
Au 13.614815593423057 8.383586496961167 9.25365609986961
Au 6.443878774603473 9.075938286807466 10.922983501587574
Au 12.863302558623854 6.80898566627433 11.355602161666353
Au 10.408191517176956 10.59623392401117 10.208006627654578
Au 12.696670496169821 9.608397413594911 11.580090039472896
Au 7.24722483140863 11.720712770582397 11.230778740488367
Au 9.514426025341342 13.275273525027709 11.330353504654328
Au 9.084588333895299 8.565142631502635 11.69069342631625
Au 12.232597988865122 12.303884088889877 11.694557664987233
Au 7.350401045341515 9.859438619473927 13.411414787524574
Au 11.281055001564173 7.975816174958025 13.237128818421635
Au 10.806032598008946 13.47516518331827 13.730064546089464
Au 8.340119965852073 12.3352490772087 13.689257800410594
Au 10.46347524820355 10.593380247022251 13.221990263983422
