24
Energy = -58.62190988 eV
Au 8.18325932849093 6.175234342750991 10.331427235037845
Au 8.478813639476472 7.107787275517078 12.991141178555525
Au 6.769995754911396 10.14474203545553 8.824688169811285
Au 7.284125977531161 8.728870390912627 11.098984646353376
Au 9.211571114411056 8.298137975731368 9.00156326857985
Au 10.662328036690417 6.997169085819254 11.219519657578179
Au 6.819700666170804 11.382779413181193 11.605364154216083
Au 9.787185139249347 9.426571211699727 12.491764043750186
Au 11.411826304714259 8.860574682918497 7.379575078408762
Au 9.186570450710748 10.54410529644177 7.284206819461764
Au 7.626612883456697 12.662928448766547 8.130888405380963
Au 9.101471773992527 10.960009992373411 10.1505546841738
Au 12.69395099002162 8.458178961453667 12.302792335361904
Au 12.722693238211857 7.396264841652647 9.455038342865063
Au 8.260788965571487 13.633091466646139 10.680828627606065
Au 11.444635607726259 9.72552199338725 10.134091557963192
Au 9.320384202290365 12.162635812746549 12.75881107589595
Au 11.716918736381961 11.594234986443574 7.040209379351584
Au 11.95031893931126 11.24431656743394 12.54319294767953
Au 10.303323082565214 13.171048864206941 8.789123693993792
Au 13.750551750222531 9.84073219359551 8.473887624622341
Au 14.210731390607716 10.448755175573147 11.166393792003841
Au 11.23414528556392 13.6459473096979 11.409635116213623
Au 12.72810134890089 12.229416308654715 9.592903477428932
