29
Energy = -73.45761929 eV
Au 7.012757532269606 11.160919654724038 9.773764558086643
Au 11.090571783856666 11.239155145838506 15.07650260212701
Au 12.835253776697117 15.043488750375309 9.829848146733914
Au 12.974555260302365 7.517846339821723 9.838367631236746
Au 8.429465190332506 11.18587347063325 14.169738638608035
Au 14.623798100354945 14.065784532964413 11.874777987556525
Au 14.739175960364191 8.580609085250053 11.857300881904887
Au 8.197345554361462 13.549573061305086 9.23766766863962
Au 8.294795812434238 8.82275504105753 9.237342393503127
Au 9.50606383128355 11.212168729619814 8.322968107266597
Au 12.306141875188368 7.472391756614888 12.681625847257619
Au 12.142004070362196 15.07578505820206 12.674574595111762
Au 14.57824323331724 12.690247007604981 9.387838878986143
Au 14.64887529140775 9.970770587922214 9.385483810813668
Au 10.026446267817636 13.585965648375106 13.647287669795631
Au 10.117625618276923 8.850544871313014 13.650195835805985
Au 10.861271829549835 13.612050196901746 8.569606047005244
Au 10.957785877340463 8.871481338785896 8.562146775544107
Au 10.143774469145301 7.854086847147547 11.03044683460916
Au 9.993662002894625 14.600587810481075 11.033715087245433
Au 7.993901749239648 12.713355346815076 11.863030787930178
Au 8.05633421667215 9.643035993941721 11.862248725414688
Au 12.343008336098258 11.272477267008407 8.325984496611978
Au 12.99069838863556 12.653668122628893 13.687802622779962
Au 13.05726540948037 9.930125790900368 13.680408021403057
Au 14.911616544710288 11.329214063476511 11.945437298219108
Au 10.354128109697 11.222459192321177 12.140716764488086
Au 12.230800162126465 12.6325451365027 10.914374229677037
Au 12.296550959800301 9.9169338419151 10.90501898676296
