23
Energy = -57.26359872 eV
Au 8.84555688158746 11.336560923484777 16.145177735327582
Au 9.079910742065207 9.031654202726745 14.679004524192035
Au 9.262461440594263 11.267995143530506 10.533227372010163
Au 9.699945832208469 13.56908751016877 14.802460446814225
Au 10.967040816956722 9.011249638841026 10.220215496947336
Au 10.699180504935441 13.368215096101581 9.382021072377364
Au 8.788165640400269 8.921950673368393 11.919918833905172
Au 12.44725033845875 14.630614596458319 11.211650914650136
Au 14.223603713539172 12.958728261503847 9.679448166869776
Au 11.29932582215094 11.172326389000208 15.005606734182447
Au 10.624016590709294 10.834497640378807 8.18382247338566
Au 13.465947276989565 8.776856100241254 11.444018858394173
Au 12.721297840444626 12.435309273383576 7.44698621582619
Au 12.760550094416915 14.994321533375883 8.492283038682556
Au 8.82943397021233 11.398769062937983 13.267302667215
Au 13.254297550506532 10.333315211928532 9.133268972992752
Au 11.303473545708943 9.259988128357175 13.036353279808733
Au 14.58746993047664 13.259059899240517 12.44142057949126
Au 15.160630074071662 10.871797071420357 11.21807936643895
Au 9.959887653526277 13.60779494411435 12.045641204587328
Au 13.58573107795613 10.836514058303878 13.530470462809307
Au 12.216078130897069 13.492584687284067 13.73407836345177
Au 11.98999689580598 11.644061661207887 11.38392412027475
