23
Energy = -56.89704388 eV
Au 10.286362938425047 5.5569364325378325 10.289307330989507
Au 10.608564156537362 8.388539151466977 6.8595847750254695
Au 8.921388921541125 7.397569981162977 8.784310376110499
Au 12.80819658224893 8.601685057476791 11.930165302614087
Au 8.428275238279726 9.945917609860365 7.597351453549268
Au 10.264074952809674 7.701330424434447 11.992116631152111
Au 7.771982612142934 6.755502247889493 11.216527310404157
Au 14.09083095831045 9.09808160460666 9.492878198059676
Au 11.677193212507378 7.776850268969201 9.371020028771992
Au 6.9442307055491925 9.037834958133358 9.809945170564871
Au 10.342915952629367 10.977619564382225 5.95639859939975
Au 12.018512071181984 10.419847580536644 8.191213281674036
Au 12.4728391669743 13.08009187932986 8.980308180655223
Au 9.790298404704691 9.972459335707683 10.056798568891478
Au 9.887854848826347 12.375795061261353 8.343722956471439
Au 8.078922056777873 9.29132333328508 12.406546583507362
Au 12.90194594942412 11.122810857706963 10.896802852149635
Au 7.447606736030178 11.731677358302552 9.475923838815312
Au 10.759619012539634 10.391333480777881 12.62156708339047
Au 5.940645770866885 10.913444129889061 11.65425344853096
Au 10.847280114884645 12.823648833985905 11.168920219411268
Au 8.46629449003088 12.004530233323928 12.123150276525003
Au 8.655711588844907 14.115600569057015 10.213465877323637
