22
Energy = -53.51143759 eV
Au 13.593705972434263 13.777710175989803 10.223117113598107
Au 12.17322772245051 13.80076570655901 7.833144849769149
Au 13.453941277035982 15.984112062381657 11.844233177780687
Au 13.789162371423558 13.519712173895718 13.099786364405004
Au 11.957688714380511 16.074625894908287 9.640402754544802
Au 9.788385302907534 12.092347356368597 11.175840744582104
Au 9.86526553989281 14.151212487461846 9.525953133970509
Au 11.29356460678147 14.252789601117104 11.881827081906554
Au 10.412175256648197 15.795441402383291 7.420193344349548
Au 9.424783599660076 10.396948316739133 13.361089258857984
Au 13.193381822501651 11.533434214892049 8.743206837965372
Au 9.014180389727368 9.59403153052793 10.486274767575308
Au 11.747640381448704 9.886419124396836 10.330349394783918
Au 13.974145209454313 11.217298187418747 11.318602312211263
Au 7.798401066229317 8.348807421297872 12.644850727868779
Au 10.677541793912022 7.99918152907736 11.980234747189005
Au 11.486333850858955 12.105206581145683 13.562515083443214
Au 9.6369335487142 7.798330953265525 14.537028815518314
Au 14.152731575150199 10.967584425954472 14.044647202132593
Au 13.332606459237995 8.853110685858743 12.428337099184239
Au 12.215750424636077 6.957254108414961 14.07989953608792
Au 11.79624901011979 9.638965142784523 14.662400229717994
