20
Energy = -49.28951401 eV
Au 9.545684739797526 10.737791959806316 7.248496695644621
Au 11.203558220107093 12.984602225267496 7.342568584351748
Au 12.308525351424933 10.473564909611625 7.796928483253434
Au 13.838056361852566 12.704919876337497 7.678927138767103
Au 8.165717739943057 10.669874512459511 9.559637607758244
Au 8.962062114748978 13.187834827799442 8.800470784743691
Au 10.49549719304196 8.825776912048019 8.94132327983974
Au 11.548535032909284 13.325454740558637 10.063105537654934
Au 13.21209599496323 8.68882749119454 9.616835916954702
Au 13.621914920563409 11.586797036508292 10.191473338922977
Au 11.299891754666012 8.223305627879991 11.50943340544306
Au 8.55900755519499 8.224906409850039 10.72158529460823
Au 9.304513274557626 12.531076657260725 11.408169523896644
Au 7.547925528607918 10.507687128951952 12.14948640331722
Au 13.688708489955232 9.696812191939825 12.101789132387967
Au 11.867484213097766 11.854065044955687 12.32951611247026
Au 11.77521197639761 9.582232444168385 13.970318802318264
Au 9.313008994935734 8.472844399047366 13.323824008857812
Au 9.629082034186142 11.321824158796796 13.848145135779992
Au 7.488309509592683 9.774592446101163 14.772755813572969
