29
Energy = -72.66491373 eV
Au 10.638785068814741 10.47117514 9.12099450665964
Au 12.221739796806853 12.828024811078123 11.935872097361912
Au 10.638785068814741 10.47117514 11.82135577334037
Au 7.676882642962983 10.47117514 11.886080855915427
Au 5.628957498081409 11.825085129024915 10.47117514
Au 10.3851718038532 14.314864093920974 10.47117514
Au 9.455615457819373 12.824841770524513 12.726660409696233
Au 11.344167427379118 9.03800767585382 6.391238102253421
Au 13.263323880842322 10.47117514 7.777278636256824
Au 12.221739796806853 8.114325468921882 9.00647818263809
Au 9.455615457819373 8.117508509475476 8.215689870303772
Au 9.010530209276698 10.47117514 6.692447125555621
Au 11.344167427379118 11.904342604146187 6.391238102253421
Au 12.221739796806853 12.828024811078123 9.00647818263809
Au 13.491555016094118 10.47117514 10.47117514
Au 7.937998073895204 7.8238454037811 10.47117514
Au 7.676882642962983 10.47117514 9.056269424084562
Au 9.455615457819373 12.824841770524513 8.215689870303772
Au 7.937998073895204 13.118504876218902 10.47117514
Au 9.455615457819373 8.117508509475476 12.726660409696233
Au 12.221739796806853 8.114325468921882 11.935872097361912
Au 5.6289574980814105 9.117265150975083 10.47117514
Au 10.3851718038532 6.627486186079017 10.47117514
Au 14.501567479674115 13.002973705914725 10.47117514
Au 14.501567479674115 7.939376574085278 10.47117514
Au 13.263323880842322 10.47117514 13.16507164374318
Au 11.344167427379118 11.904342604146187 14.551112177746578
Au 11.344167427379118 9.03800767585382 14.551112177746578
Au 9.010530209276698 10.47117514 14.249903154444397
