27
Energy = -69.14516281 eV
Au 10.827122691104467 15.126004005329113 14.029551350877707
Au 11.693743005324935 15.268991810641507 11.433075011467997
Au 9.506689900340216 13.51660660835352 12.243884474822904
Au 12.190794593260224 12.811501143795123 7.611045531417146
Au 12.46547966938911 15.28320349281303 8.786478689227772
Au 10.26313067150387 13.764799986856293 9.51265662491252
Au 9.683166469860291 11.644031952103207 7.884480556340925
Au 10.231777312887788 12.596532447420165 14.89281254633874
Au 8.330303385687971 11.93989297485976 10.38228082092301
Au 8.673247186426797 10.961413890378985 13.033836632342519
Au 12.288158861083874 12.981234212761576 13.00697058005693
Au 7.513604628177291 10.030988582811469 8.623494349724664
Au 13.061852844988197 13.061174601919156 10.293047627671205
Au 10.950492781093342 11.171972503226888 10.967957442229055
Au 12.206944954162976 10.595739242026347 14.30952254975018
Au 9.6983726836059 10.01646621290478 15.4728852017089
Au 8.791276973381166 9.181293431348143 10.87862172545642
Au 10.060037243004205 8.91665994912432 8.387263097840544
Au 11.849679199409474 10.287239572578876 6.664284933349017
Au 13.30706832293755 10.6580406854703 9.059885587710228
Au 13.554080445365463 10.783093288582316 11.868554977098718
Au 10.200270959388945 8.600989388380913 13.127525513619913
Au 11.67680454106846 8.098261426578434 15.402094784590622
Au 11.402549940458961 8.178867679489949 10.689627299692221
Au 13.066552350968369 8.26025872779673 13.029289627170458
Au 12.66934046764627 8.133667982049086 8.183453833581977
Au 14.155910052623879 8.431368549170873 10.540693179767114
