24
Energy = -59.44477809 eV
Au 8.796383107674322 9.502214124445816 15.669260098696226
Au 9.156688155059259 11.611212204336681 14.047388135570014
Au 11.334670095475179 10.553539950447584 15.585953997748405
Au 11.258791857305459 13.258070345968095 14.560042760876685
Au 10.34807423511802 8.857094105891873 13.556227708233246
Au 12.70133003733456 12.501637381092511 16.89006282162437
Au 12.702212649339462 14.512046155463713 12.466254857569941
Au 13.78530267003533 11.579324578269514 14.573236248809009
Au 12.966450757923582 9.338922776396183 13.192373418996507
Au 15.01623478608573 10.893329371061338 12.24217994569664
Au 13.817396776698988 14.32293361279812 15.07243766492488
Au 9.888136112507045 13.380115739757617 12.179406267736683
Au 11.16328660914169 9.361426950811902 11.062745809678784
Au 12.23892924216886 11.780291264113076 12.040934011228227
Au 16.735621979704877 12.52418298312511 10.889056595851704
Au 12.454386467630767 11.100402904219807 9.3156672500864
Au 15.300074804354566 13.559946522403873 12.977573531347922
Au 8.990057818495753 13.047231669151936 9.707629076800698
Au 14.230055038238087 13.270885067119035 10.354186990394373
Au 13.399721133847232 13.166324215724158 7.734538404029984
Au 9.852629116751912 10.373106479528246 8.967858791629395
Au 8.260819485650373 11.820157424687276 7.332310980087134
Au 11.597370970605368 13.862750200440356 10.010201481742637
Au 10.797120762232751 12.695957541798816 7.5470985892404
