24
Energy = -60.00599848 eV
Au 13.205781219483882 14.256294929681697 12.893586923250135
Au 13.78350836135291 11.43252835327606 14.825815250810898
Au 9.938703595783466 12.602522920506082 8.837906942799965
Au 11.102463309997093 10.594146438070261 7.173186261270814
Au 12.682313638813685 12.246988174127045 8.666919769572393
Au 15.26544908053944 12.120114689163097 12.632462501261319
Au 14.23348483596558 13.529774267812684 10.444755574314705
Au 8.450330718032763 11.068191916629704 6.994774290762162
Au 7.410528185185564 11.613864632941873 9.447024531772735
Au 13.329367927714488 8.739078246019053 11.82963638990675
Au 11.467262479909445 13.692291436352445 10.805697021737698
Au 12.468048346198604 11.452499437956059 12.187561676470459
Au 10.584226130428455 9.031997120678886 11.711032574279175
Au 14.497777343918331 10.749623705056816 10.333357235101724
Au 9.436275375071967 9.552984871108206 9.199525993176266
Au 12.528589395571814 14.00381656219031 15.54571194731553
Au 10.624371050756551 13.392162079636124 13.534277189721566
Au 12.174582807435407 9.52721461377782 9.441356569737218
Au 15.164402523997925 13.871324489756669 14.77735194173591
Au 9.490159461297702 10.844234378314594 13.651431866411063
Au 8.044099999321519 9.979753190528054 11.533485049311702
Au 11.200215047588191 11.621700726006356 15.679075969471373
Au 11.929961411005902 9.472449661701647 14.084795730277072
Au 9.015815489605227 12.622553746309055 11.502601801623252
