25
Energy = -62.48680105 eV
Au 11.64627825136005 8.902197774558836 7.062859934169563
Au 8.846899584779365 8.363446891965792 6.954266194187357
Au 9.930492266716712 10.55647764462591 5.7644439620869825
Au 11.413526380673046 11.53135124476832 8.083944709427543
Au 10.693234830317175 7.451149181460819 9.146832852661909
Au 6.498487880058168 9.08905012325358 8.329525112495372
Au 9.231643046621228 12.589816427755432 10.196196662006102
Au 12.825696561080093 9.294535989839092 9.46166296891483
Au 7.98472108850498 7.042540755609097 9.159552208366375
Au 11.346268637539968 14.030660822442952 9.252556876881489
Au 8.642267546039824 10.947472359123447 8.122820939534757
Au 13.234684324585563 12.026728221681811 10.060186535499193
Au 12.001828974855542 7.65440573323965 11.571368711307693
Au 13.419476743742177 14.68287806522549 10.893392667225115
Au 7.488381283867395 10.446892325516393 10.557003196522189
Au 10.311924275162779 10.003199694893478 10.56393031080602
Au 13.764610006001158 12.702804318306608 12.774915724865375
Au 9.17549927026607 7.489724886762647 11.535215304442596
Au 12.981288249073105 10.137927866251786 12.138902533841788
Au 11.130970466565921 13.497156737618898 11.993836965886773
Au 6.324079110704834 8.00647497210396 11.137919368922162
Au 9.282999638671711 11.59453517343706 12.775244324724552
Au 10.558317045293032 9.216016604362547 13.407972083618876
Au 11.688517178590383 11.641586350603074 14.171967587751201
Au 7.792114171529503 9.315176647192812 13.097689076453227
