22
Energy = -54.43695019 eV
Au 6.977791333012996 6.745795016810754 7.972411865157656
Au 6.861451837323426 10.655025518163319 10.449889592899217
Au 7.447451051023682 9.499139549425943 8.065981119515618
Au 7.153216531191544 7.9358741663881 10.442853364291325
Au 8.736887670539122 11.889850367923284 8.798456992889166
Au 8.677509459664911 12.268636214564978 11.657438010872555
Au 8.48787839247106 9.56774918007451 12.421767650199273
Au 9.472859008710847 10.571294512741632 6.481015324153619
Au 9.48953152479105 7.048308726266888 8.946717674461052
Au 8.929706966961822 7.889981871938021 6.340389841754335
Au 10.732881764456277 13.282914790580605 10.135634928034971
Au 11.465904940480828 11.73249937149801 7.959610636376298
Au 10.483981601309774 10.405052019166549 10.460757353152966
Au 9.422311309496429 7.037105516895375 11.712181504173707
Au 12.073198163102019 13.402411378964546 12.555297624561554
Au 11.227465640988363 8.891988498055786 7.760988503034018
Au 10.51402670578685 11.387512607239495 13.508975207955832
Au 13.43461263333389 12.707506821949675 10.141996620390954
Au 11.715275924575462 7.885608272597606 10.309438752499888
Au 11.154220274915986 8.771897480877257 12.878161965250346
Au 13.149131020917661 10.060842029455008 9.371051625399412
Au 12.821831305849978 10.78021304236099 12.041471515193265
