24
Energy = -59.16864222 eV
Au 11.37657276618612 12.008598520241323 6.882363367635687
Au 11.908573119112164 9.41200735669622 7.886190732255759
Au 9.212481497089305 7.926612562430137 8.206389396866811
Au 8.371241174994143 12.471805426543945 7.25972232581237
Au 11.670766462346807 6.940072638614108 9.118786848016784
Au 10.365179852295448 13.606122273830403 9.038768167164895
Au 12.590105932292213 11.671838296187241 9.459053402930861
Au 9.869579802178114 10.86907849520711 9.081559731371296
Au 12.91752114812174 9.145624193803307 10.484437610396888
Au 7.304572492088139 10.04102217876908 8.183524327781575
Au 9.48452793826292 9.972379324494966 6.409000177773113
Au 12.294580559828251 13.92100511248639 10.99443613501568
Au 7.743790760823099 12.38525959682724 9.99759110483342
Au 9.266085687176465 6.193111512054256 10.403473875522991
Au 5.788703247417554 10.487560083084508 10.51133318581215
Au 10.171012693682508 8.863827690024536 10.795011447655174
Au 12.729993636328171 11.497737942561423 12.2824860073048
Au 7.390590926608344 8.233340404313829 10.335232351109857
Au 11.732223977762994 6.891861975737957 11.960919190362047
Au 10.10955160950538 12.343709733513261 11.576812847575306
Au 8.04471258579925 10.487358944655808 12.046229906877256
Au 12.889425148907973 8.951385536572918 13.262145384446882
Au 8.72677710079758 7.880870057542657 12.899596664263743
Au 10.453324946309587 10.152139028116075 13.284953202103637
