25
Energy = -62.38424543 eV
Au 11.077141887996294 12.54276177352998 6.406473501105947
Au 11.968299324250836 8.064843758763255 7.911895395725265
Au 11.260882188360467 9.77313368812601 5.956283037629475
Au 8.846735907991425 10.925522414693498 6.411944565263178
Au 12.26607133787078 10.860948435481916 8.304479953515898
Au 9.677316251420178 12.321568468618858 8.828599008033816
Au 6.741406967736632 9.275341107801497 6.684161641031173
Au 12.104810444277257 13.598711304889779 8.739781460013436
Au 7.626417946185578 7.890685689834016 8.86174087332042
Au 9.990042677163588 9.42557059681421 9.335090891955652
Au 12.723034584393332 9.15295999355477 10.393679767934037
Au 7.480794574281578 10.669227448318795 8.890286987593523
Au 11.86806510241747 6.556553932692987 10.24748958687521
Au 7.464206818726084 9.187156165945357 11.324479426203936
Au 9.285035508856506 7.178852021322108 10.904853659676283
Au 10.732285720463803 13.425053408340286 11.172040315787655
Au 12.996875321076336 11.842014164501263 10.790557098487033
Au 8.402249467998944 11.819289048341526 11.19255807736037
Au 11.407567325032876 7.94688140776319 12.590808252452437
Au 7.902314362945981 10.56456415542488 13.610791309229587
Au 8.864919665745465 7.999769437422388 13.546706953073013
Au 9.459327679778674 12.72653646032428 13.603951725504086
Au 12.093688578833437 12.335310911327566 13.321307947071114
Au 13.233202537181583 9.935372524730653 12.951048450395598
Au 10.64123931813158 10.09530318055346 14.13292161387839
