28
Energy = -71.44681859 eV
Au 6.340862086477327 11.51749459074587 10.909180876941138
Au 8.345562216063072 9.865878668601804 11.64193180305235
Au 11.903942726401384 9.0636970607839 14.751506018049866
Au 7.452547567894552 13.690332928810601 9.709444973095483
Au 11.089210701807982 6.049255140641772 11.057988038318829
Au 7.2934352994948854 9.593161421603527 9.04387677342472
Au 12.77313241468066 11.613665361993013 14.186369663089637
Au 11.178940895971555 13.35683382173573 12.713468213737043
Au 9.085812831237906 7.729983187678009 9.99592296961969
Au 10.197815841117022 10.85561986590022 13.463688544878979
Au 9.605009034637051 14.872380432508427 10.986522473793544
Au 5.8200634946630165 11.852496530060241 8.219449822458898
Au 12.580919951021386 6.806847991730277 13.380525132289275
Au 10.407704585865208 8.27757999147262 12.496851115262347
Au 8.525431487355199 12.60747015800637 12.103585582713848
Au 13.769800163660474 7.089878830921259 10.93048713939806
Au 8.427698417124516 11.909229256997328 7.687956526059991
Au 10.976622450657729 10.483666091646185 10.61036768113581
Au 13.660937570501288 9.343752563044395 12.645402273273836
Au 11.781308201910255 7.900402460634822 9.199634891461823
Au 9.912219570570764 9.639158698030155 8.084846292601576
Au 13.304713727961714 11.816784858056497 11.509240691341487
Au 11.677350507368535 13.454177703608561 9.982057075064747
Au 9.704400063479834 14.332111912377268 8.249860968305772
Au 13.96226514079454 9.578210408162924 9.919422992691713
Au 11.116064375938281 12.102246141241737 7.5474741206072995
Au 12.652743421128939 9.814637619140907 7.485262845264563
Au 13.64821922358111 12.065326133939902 8.726442288737198
