27
Energy = -68.06033338 eV
Au 13.175311173436828 8.452495258652668 11.458881268462854
Au 12.194503475944247 10.325745124675658 13.295055332750428
Au 13.317765305673662 7.126672092308692 9.052166711465926
Au 11.171666299053866 9.92039980488402 10.034137773946284
Au 10.900223194644518 7.0652743100081095 10.365943365434546
Au 10.886160646363736 7.906261189689747 12.98788634176789
Au 10.886500873263753 12.38376076192281 14.582206823815019
Au 8.835750166551428 8.948334929420811 11.409170452844645
Au 13.9598314495236 9.888637252443353 9.09871817306302
Au 14.082983687182015 11.145694699869011 11.492395335160998
Au 13.556370869073238 8.589322993532122 6.701678748225482
Au 11.051984634648516 8.073941080411776 7.669354424127366
Au 9.44163812220025 10.00600840338237 14.012821788773001
Au 8.653566855131189 7.683081123694643 8.850610670143295
Au 12.367170745095216 13.101484249272982 12.312393138030902
Au 12.51378191527542 12.389834011802765 9.575387854627621
Au 9.964253702493012 11.644821371493233 11.743150263963544
Au 11.994928993162995 10.78604569544475 7.211683155144319
Au 9.336669092929164 10.292477780307081 7.894819693794459
Au 8.224085405987113 12.497224165360807 13.939303889472807
Au 7.140799004199799 11.206590694292007 11.785375496608076
Au 10.108997044093813 14.550207231828175 13.077518507525127
Au 7.055074757284315 9.811551715147381 9.448339385485703
Au 10.383358495151956 14.105960102272725 10.331279022567559
Au 8.284770960393676 12.343314746647064 9.436574630845959
Au 10.455120989849648 12.938604456132941 7.852375490018953
Au 7.845432801654969 13.979795980692153 11.619851134349544
