23
Energy = -57.43269109 eV
Au 10.715740503754276 16.488527206717922 12.668285414681039
Au 8.746338270250986 14.628743033903538 12.16316663053686
Au 10.92342112009189 13.882500650733634 13.746538290398941
Au 11.887509043989972 13.88748252509434 8.903149950806716
Au 9.22820545521816 11.990934209814219 12.647428277740397
Au 13.597002151890308 13.08001765742795 13.254788127291546
Au 14.124536211003521 7.8821912779608825 11.863912062116817
Au 10.256409706877365 15.704415570254339 10.07450149486038
Au 8.844573520977404 7.731250982588545 10.988462546277663
Au 13.986381561670557 10.541513239128312 12.556122022984656
Au 9.40065966440472 13.023177831505468 9.992815117643953
Au 11.317241050507393 11.260794997877174 8.947635673934625
Au 13.464015813702234 12.335262489458525 10.506875688233595
Au 10.852164966035357 8.592118993910098 9.213928254433895
Au 11.423819563846253 7.324369898260058 11.686030062486822
Au 11.61783730569001 11.254648844455332 13.96598782076126
Au 13.012292538031604 15.704404495496826 13.919751258737914
Au 9.055817543780632 10.392820687906728 10.386119205681357
Au 12.404110395925052 8.663484748246717 13.891953826635
Au 12.660077897994787 14.873797275491679 11.330476858259395
Au 13.382851209575865 9.714729552477037 9.888442965132816
Au 13.072200464582226 6.982651619931277 9.485293304482559
Au 9.882465023393353 9.387579531475925 12.927160657504771
