29
Energy = -72.96771319 eV
Au 13.50433357253645 12.066709525868784 15.410879680274109
Au 10.836574193572678 12.399239220757053 15.619407322085102
Au 15.146217514878154 13.312172175964939 13.564828399231368
Au 15.06401685486678 10.555412177252286 13.812021603321476
Au 12.383257447083217 14.14495058827003 14.099450794843618
Au 8.111337081549738 12.201143192542313 15.328138192706113
Au 12.38054113748999 9.727873533671689 14.613643576470793
Au 13.781171566144629 15.01487399964797 11.960720296393504
Au 9.466742120486554 13.830514186068394 13.634994352221177
Au 11.091032645229465 15.602184388936129 12.122582880088112
Au 15.491651103372268 11.808674115104068 11.19083090110074
Au 16.0049387340893 9.19041515655303 11.601934708676133
Au 9.602648883312073 10.192113872883889 14.324618579499305
Au 12.879535002357832 12.486717905710208 10.515000894130718
Au 14.996773900095942 14.038009913085707 9.726408504562706
Au 11.434407877276774 11.648240435817618 12.800236054635354
Au 13.328081072047034 9.873469734121464 11.363886597146891
Au 8.450154043139062 15.215160029481435 11.528064532407218
Au 10.181934162897212 13.209066422949617 10.881028250733353
Au 12.352605111720601 15.124238939633772 9.637130020263816
Au 9.720046397683921 15.119639464444473 8.955728513896581
Au 14.142442282351954 7.996942885937112 13.378267156746809
Au 10.88654944942241 8.686299264417118 12.523511611921446
Au 10.801879422710897 10.617986544868629 10.236330102872971
Au 12.696797522009426 7.101748566205042 11.254396993073803
Au 9.449923032519894 12.46114543098763 8.38303418534425
Au 10.561852367658583 7.981794479287749 9.793139286688493
Au 9.37596438593958 9.693235812352183 8.124237052181641
Au 8.380891519885962 11.318063493012346 6.271716340714145
