22
Energy = -53.9992209 eV
Au 9.461716932142732 13.45604351890567 6.428231610833176
Au 11.990247165479147 12.930377976829169 7.297224748672194
Au 10.464404083222973 10.708145787014116 6.51629531695625
Au 12.751510197489056 13.300158273966971 9.818838466301157
Au 10.145820949921141 14.428672395104508 8.880702933796556
Au 10.972866677123825 15.020655119576913 11.314516938895446
Au 9.157794381783487 11.76925111660425 8.611683101908541
Au 11.918806658797651 10.653839578160309 8.830424126225726
Au 13.151787345267476 11.073722045893179 11.31601143757514
Au 13.05462127719666 13.606538466645288 12.488996869382962
Au 9.261105787293369 12.767177334407105 11.097328539989345
Au 12.318964088962769 8.59254697960466 10.451608668572531
Au 9.439008421273018 10.012053737508364 10.57866780754832
Au 10.206119166948731 13.587221417202914 13.539202876646838
Au 9.906657618897263 7.362648398189644 10.254274736961058
Au 11.826508390084571 6.459063745416919 12.14843156376324
Au 12.060036398132391 11.538594742570647 13.869705897814981
Au 9.268577260418908 11.033221361838933 13.200735443440012
Au 12.818032994347144 9.022068094888752 13.123813360687786
Au 9.937530713756331 8.41400743038542 12.805070400319751
Au 10.684762280508595 9.638505486250963 15.186116747597314
Au 11.719665070608434 7.142030852690478 14.758662265766699
