20
Energy = -49.1259134 eV
Au 7.536893280849225 11.032527664720087 8.192469260140498
Au 12.286474403759229 10.285211847484975 7.2360528566922175
Au 9.096059767673239 12.831796212000597 9.48709291022321
Au 11.690697883097297 12.41115278408621 8.849302993924665
Au 9.939761212649929 9.943357960819617 8.566861039178253
Au 10.929192307612396 14.057999693899616 10.987366742091364
Au 13.878117898801912 10.799361927216587 9.452996924914373
Au 8.157780541830855 10.436050134323745 10.822549113457235
Au 13.466969755286748 13.045418300305544 10.965621357136055
Au 12.1269246521929 8.552545837256751 9.38356666486074
Au 14.527510663241172 8.448457595700802 10.765846538853708
Au 9.724017446412153 8.226806825794496 10.748511814448326
Au 6.801263092247492 12.822952898665655 11.034463354829523
Au 11.835878133522431 12.500494980984815 13.10484715279995
Au 13.774374285292515 10.677809472083128 12.25372612113224
Au 9.066809488128909 12.618873611439684 12.476174889288082
Au 9.767216137296462 9.807070715917073 12.981755636664987
Au 12.087959135328854 8.444862040111854 12.148082143969617
Au 12.14319869471892 10.047174486693297 14.386710181842114
Au 9.907096585051725 11.754270375490089 14.90019766854734
