24
Energy = -58.90963903 eV
Au 11.013621340532449 13.717383699363813 10.935958791477074
Au 7.349114402686664 10.713457940497324 10.717606546938699
Au 11.619575598154348 12.233899993918623 8.620968337483383
Au 10.189861521412263 11.18613063808021 11.560460924127831
Au 9.97836583864614 6.601017420037191 10.194626310568088
Au 7.861956557546605 10.709362956021723 13.401958710422862
Au 9.54820945874311 11.923644626059858 6.831185456221071
Au 12.391584524909808 12.059165842474407 13.200949716663558
Au 11.414939295716295 7.4599418725480975 12.422175667481175
Au 8.899147518840055 12.710187741077627 9.39427400751465
Au 12.812327536227805 9.741050333456895 11.645558198691294
Au 11.596236809097435 9.991754422235873 6.902616189799838
Au 13.463612690412866 12.317572596822783 10.693435929369766
Au 9.94488887973521 12.255565203773239 14.374254936637168
Au 13.413926551934294 10.1155819394391 8.959415896287005
Au 12.61362945722963 7.545271194932051 9.830528530302539
Au 8.944161383946124 8.646439170263283 11.822654788448919
Au 7.327515944324032 10.836748006746816 8.004307926765254
Au 10.727893856899739 7.462740078497853 7.6584497451444395
Au 10.654096280168842 9.510392890920253 9.54702456603954
Au 10.91385637536728 9.702578513928437 13.827718490588877
Au 8.425835967471235 13.176797668839416 12.095993518354042
Au 8.133207192906433 8.464615398284863 9.103393232981436
Au 8.95739562708241 9.179348427722095 6.455709304289085
