29
Energy = -73.30245389 eV
Au 14.76702574976396 10.00822747820011 8.520448907763145
Au 14.515340626677117 11.047328971291284 10.974044793729547
Au 14.42585492080104 11.971259875441325 13.489528010903971
Au 12.955694075694149 9.632137917577083 12.919042834184618
Au 13.217345926024327 8.53206081923367 10.380943835930408
Au 12.95988710991135 8.181910710108765 7.6355457447399875
Au 12.378911195246047 11.518378796004043 15.189564479262925
Au 12.935108602013626 10.903037006473657 6.629645545885103
Au 13.227249620662626 12.463659333438288 8.813660805224183
Au 13.387868142731365 13.66015344604028 11.292591875458102
Au 10.698213118272799 9.366738207099479 6.507454949248624
Au 11.35497761315507 10.607842928289397 10.089488528920777
Au 11.506233707688223 11.988938203626759 12.481519884331735
Au 10.670857533093939 7.949005842630126 9.039849087876556
Au 10.794939012004827 8.313420295725386 11.84667095284556
Au 11.154748292274753 14.769907156243669 12.609811945341143
Au 8.34444821164336 8.18939118849079 10.489449480194008
Au 10.883853718492992 13.504212467509458 10.067550948555532
Au 9.051541561434226 10.626881871316767 11.611269052934441
Au 10.055447425003317 12.959591122456148 14.637905307677634
Au 10.574495116459177 11.922397082051388 7.731333789902966
Au 8.658262807598748 9.833870847201332 8.179801295474247
Au 10.368637191520735 9.964132018704415 14.259202504374315
Au 8.311072864510518 8.481020062408355 13.270197814353036
Au 8.814648239084098 13.450421548632434 12.198370527645599
Au 8.460127095183886 12.359949907245339 9.498859697227969
Au 6.500185703268539 10.33587264193468 9.688768046924842
Au 6.5407843512150405 12.045381645793565 11.769753966313381
Au 7.917111456459876 11.268167439523086 14.065927880429504
