29
Energy = -72.78129982 eV
Au 12.903054425328182 11.202413991944958 11.435167909716228
Au 10.582980471078626 7.102350239613601 8.922771233939853
Au 12.630390048924143 14.341711821791 14.83919425213898
Au 13.156617127763392 6.697303384638748 9.25007027123176
Au 13.137865018982042 11.604783654776606 14.390900020877458
Au 12.7460118672534 14.288694302419843 7.791486303107227
Au 11.655611028203518 12.463836819921863 16.559147346400565
Au 8.731823522088053 8.87329996653955 10.018183467325812
Au 9.056255994804955 13.509590821078636 11.732581940821293
Au 12.44246104982711 11.796447128135812 8.7530146068628
Au 12.089359503427234 9.16165823747127 13.358900060614042
Au 11.513607906286646 14.486787653161437 12.351423939514039
Au 7.617102234871145 11.070832540850862 11.079063560439318
Au 16.117445864709065 14.703558502927825 11.112373367125187
Au 14.820642704107998 9.956797055666025 12.933525543105395
Au 8.046164180675953 11.815718283298715 13.776873740177887
Au 10.283275280797096 11.199874864598753 10.349258785618836
Au 10.4388732831595 10.82829437800264 14.745950592723661
Au 15.016383596809286 12.655215395024618 12.661842438329206
Au 12.162109483209873 9.233784461724799 9.642748999468996
Au 9.999079642831667 13.570662397733644 14.49153758378246
Au 14.114770552204039 15.297609927542691 12.866875051984564
Au 15.29980319850907 14.810722404659828 8.536447754621861
Au 10.819116024460557 13.933641817397143 9.741523015213735
Au 13.57258229580482 13.860053122692909 10.436933893324436
Au 13.722405188944078 7.9259972957818805 11.586496138952674
Au 6.350715992852036 13.190780848211613 12.096627713022114
Au 8.033656400359735 6.876784952131493 8.426708986119422
Au 9.513133150385835 9.612127557520203 12.534071217866174
