20
Energy = -48.82319179 eV
Au 12.338889477250795 11.130733252088952 14.112715497181266
Au 13.710407533538676 13.472348351016537 14.301664270990312
Au 14.535459574496794 7.729006089549253 12.468003321505956
Au 11.96545608860079 8.82100629701785 12.831059023450972
Au 9.98164603972493 10.649520369593413 12.85795713630883
Au 13.831340659720835 12.241030442540879 11.876134512952053
Au 14.87315408090942 10.184294398338436 13.445507943400681
Au 7.284621493194296 11.133507340489835 12.751779535978969
Au 11.459257193849568 13.51351539247666 12.783431992200939
Au 9.02618354066689 13.112823154147215 11.779940227594698
Au 10.284515533097734 11.500362530675488 8.496536390952064
Au 11.82389860163873 13.516066704081275 7.511904892714893
Au 12.520076562580753 7.25883825890445 10.624290432607552
Au 10.991138839749258 9.499971010913946 10.181277554457983
Au 8.551881887236918 10.648894931879832 10.335604978460749
Au 13.005734609988746 11.874159183737127 9.3194508964986
Au 13.772794776262456 9.769986984180198 10.773317750408724
Au 6.59017365593064 12.670642285162813 10.571822449901028
Au 11.066181793371662 13.790734587215816 10.116287179766442
Au 8.518024426406516 13.613394804206271 8.992150380883423
