24
Energy = -60.34427151 eV
Au 12.785547625563517 9.999591584964318 8.672159847932948
Au 11.949395616048355 7.721663477660935 10.046997585715028
Au 9.969447559805985 8.125600975025652 11.83202025607272
Au 14.139755674174571 7.584660887799931 8.370556614986567
Au 8.381811667405085 10.314198455053875 11.882762623429578
Au 12.578337507779338 8.684004223355778 12.702655346603718
Au 14.040108175619906 13.225940107259536 12.39872439522548
Au 9.390862781449979 14.348831507406993 11.848426601140623
Au 10.959944997559115 11.97797204067537 15.571750604421165
Au 15.49745678563154 10.108580065976017 9.332339700485727
Au 14.600198829825692 10.565174077754161 11.897635327899128
Au 8.994488511034593 12.355902255658815 13.724683000077793
Au 6.966973165789124 12.690289045466223 11.998790496606448
Au 9.87232592541616 14.585073414254056 9.113283733052555
Au 8.685813283867246 12.151969345987077 9.815914067719508
Au 7.291610695770374 14.602570151131989 10.073238271942472
Au 11.484056381772525 13.557112254736584 13.378023687358459
Au 10.350147896186254 9.873538459479509 13.883879882006042
Au 12.036652246907638 14.110448020533655 10.733292271744206
Au 13.905360787074526 12.314462741276026 9.772169333940939
Au 10.180500474204825 9.883207863035953 9.749309316534106
Au 11.294663744420953 12.240794233604406 8.82716509726746
Au 12.90177398483857 11.145298008339616 13.884817991302175
Au 14.582544793275439 8.042128783136121 10.988894975183953
