27
Energy = -68.56801168 eV
Au 14.358544241461512 11.079792568398316 12.33739715780037
Au 14.499671588731175 8.495632133227673 13.127812319951918
Au 13.791154434637939 13.683087289516285 11.65846646561512
Au 12.401765787600239 6.957876030895161 12.265087052654083
Au 11.719284377586394 12.150963104096407 12.605672736220667
Au 13.322443448456017 9.083392182152963 10.641098531407355
Au 13.427891650510357 11.654998466294124 9.76043898572183
Au 11.980307068660478 9.54281306354436 13.363518793530433
Au 11.439420807310775 13.628946435919934 10.262928680150324
Au 11.844113068801958 9.83754603880443 8.38671253566081
Au 11.162404493206482 7.502209684238139 9.848990934262616
Au 9.481910003181618 10.624423465012228 13.373459004164769
Au 9.831951101382646 7.99350703580407 12.265983906223164
Au 8.38328268713243 7.319557492620263 10.022197584068065
Au 10.402021709787439 10.401763187699096 10.67648324003614
Au 7.6226618191590285 9.499228042740222 11.543665846907967
Au 7.05603863031391 11.825136066085232 12.977034163248005
Au 9.155176755042458 12.903558927164777 11.587157677069683
Au 11.806239456965422 12.544664126637345 7.7089738682152875
Au 9.682081224778303 8.29684245167632 7.702860511099988
Au 9.772593152794464 10.927821430865054 6.865575180457251
Au 9.235175895301351 12.939612494225457 8.796037209395115
Au 7.242470336941334 6.977063586581933 7.567730541442082
Au 6.75511968053656 9.365807992680175 8.928254342108632
Au 7.013186261664012 11.791627736127765 10.166538568400739
Au 7.562051403024981 9.367046651268792 6.224398501705242
Au 7.177248634748546 11.783495771356186 7.456834541000478
