25
Energy = -61.94322954 eV
Au 10.801531116728139 9.623319973186296 6.314996159278245
Au 11.027815031937754 7.792626834228797 8.357107743689443
Au 7.2634055792811605 11.425861055783972 8.94668629724937
Au 11.199716911680431 13.922629884658663 7.930586023125557
Au 12.183748632324956 11.940195304250697 6.298360534932048
Au 13.008068257438815 9.872943769476281 8.122049539181472
Au 6.81920870180707 9.029599902056235 10.25411150649815
Au 12.65262690585902 8.351403715432665 10.466251054791686
Au 10.730504052732542 6.766966285332729 11.608723624815006
Au 7.800748331899549 6.808266887139992 12.193564052199966
Au 10.639884867725733 10.500779374870188 9.490504854693608
Au 8.569849191602799 9.213339956278215 7.955347338067085
Au 9.671643684361861 7.774501955121977 13.990724063716232
Au 9.309047444141216 9.162654274950135 11.467578234043817
Au 9.466706881830158 11.883269470516371 7.266298063716062
Au 11.719804951355473 9.44330886200058 12.84864152635063
Au 13.582622491638691 12.499513955013773 8.595071809704647
Au 6.827691928687367 9.24427140866595 13.027268039522266
Au 13.014900467010836 11.041637085867917 10.937750552015101
Au 8.747411532781035 7.030994711293629 9.629351119921594
Au 9.146490448382416 10.45717090609122 13.98660933349287
Au 9.323136547879155 13.054458932590103 9.859875244639287
Au 11.992607361607266 13.637250886480954 10.541895906864465
Au 7.822292822615158 11.558078197769007 11.658979156324481
Au 10.57797739949471 11.92157422009906 12.125347520757023
