23
Energy = -56.20095807 eV
Au 9.864276566397434 10.415124444719249 14.305739809040166
Au 12.076495357024365 8.749426909077036 12.827520061519206
Au 9.354434568581423 8.28754858455775 12.636185410366247
Au 12.593499060612196 10.513616660829845 14.86389297186139
Au 8.11811645700737 10.672148495314417 12.025015439388177
Au 9.107563391339838 13.017924938361695 13.148167243968485
Au 11.37065014316017 13.066816255082031 14.756312297811851
Au 11.497425167209542 11.556136210869573 12.45371217477223
Au 11.059338562130224 7.408763578117452 10.632470926932669
Au 8.295586108800553 8.634425525917942 10.021999303145794
Au 14.18985946954747 10.603847254972496 12.421634476788801
Au 13.511228952986121 13.394664311240524 12.675929486506124
Au 10.464972589970381 10.196875593498413 10.383855456107412
Au 10.411311320464696 8.342109958679206 8.143231118862857
Au 9.031505388436546 12.654278726954747 10.365251179164698
Au 13.072896448856733 9.350250305053896 10.176499019587025
Au 11.114532669161676 14.149656119940557 11.47365181195392
Au 13.087471145818844 12.138373618014986 10.214073922574425
Au 8.929497051276098 10.937067712359417 8.192125560339587
Au 11.184518726980237 13.572313983416421 8.824942630472465
Au 11.987677216831287 10.868606212096548 8.02743642246033
Au 10.26763668952808 9.877337982722759 5.967310425850294
Au 10.38950553857914 12.574442036159695 6.470912437169357
