22
Energy = -54.33002993 eV
Au 8.895366088394326 6.460559184069065 11.977962053708671
Au 8.508327391837842 14.062742980576328 9.057264569691478
Au 8.67852352918922 11.544514327862991 10.122667120209861
Au 8.240978808144696 13.645713287788777 11.903494193958657
Au 8.532488064515817 11.183241495407799 12.938104066668336
Au 11.23444976014903 7.680679831514044 11.363187186630087
Au 12.989963160536824 13.57436565309296 9.28837269412239
Au 10.657671842659225 13.110983012736224 13.195118660948875
Au 12.92246693160151 11.105198577506744 8.135885278198183
Au 10.605097489078998 9.841941902754186 9.061159655779297
Au 13.079119222684438 8.746863186254409 9.731513015892318
Au 13.062341307417558 11.666017841703827 13.52943736870564
Au 15.275813002102897 9.967715273661 8.860992991435513
Au 9.445776745444238 8.615928386768582 13.541552187442822
Au 13.936413200380832 11.41318957152128 10.870953405443768
Au 10.735591587948461 10.693744096178044 14.643279993229545
Au 13.374686850795703 9.164483340664098 12.451492980454388
Au 10.682636168587113 14.355927649906505 10.651733584816167
Au 13.00605916184964 13.900995413132055 11.963918650074701
Au 11.045112807434707 10.499794787251695 11.77752447624477
Au 10.643179836124814 12.534488095062025 8.30083471828517
Au 8.691961897109021 8.941681699745581 10.843809047123559
