28
Energy = -71.87004701 eV
Au 10.215239948013231 13.90285268747509 14.181718677177114
Au 8.952997251641277 11.45796115219156 14.368209680191969
Au 9.181731979062405 12.784984580915145 11.883396504727328
Au 11.551101926025035 11.621693373585805 13.328619671005491
Au 11.700170669189582 14.12262032910311 11.873780798471097
Au 7.766048342891692 8.995447401215724 14.513018275304281
Au 7.834882749061341 10.260434717415325 12.045036814672201
Au 8.264539432687158 11.451573927422322 9.619616161177431
Au 10.37471171592258 13.395291431834362 9.496452854906462
Au 13.536345164266137 11.995145403669243 11.583800402336028
Au 13.108720006919137 13.946491928841684 9.536791441198599
Au 10.255094204576723 9.12344135602342 13.298651867693119
Au 10.712586017163334 10.61694020150295 10.70908652645764
Au 8.15012603471316 7.478625232313595 12.26832714672314
Au 7.408979772821504 8.763439684017357 9.835950815541914
Au 9.174340005122916 12.383181005927357 7.183468765631743
Au 12.729309217093009 9.281930475288194 12.145421846783744
Au 11.879698564449036 13.078300322909394 7.219133846483485
Au 15.523316589861732 12.565633651343465 9.832988226864128
Au 8.674106265207582 6.131031652766117 10.013997902067272
Au 8.260208908709894 9.815074012604892 7.375262959230396
Au 11.028347198595904 10.41924681156455 7.754187716585893
Au 10.859870513378068 7.394179077877296 11.196294233620476
Au 13.482395034722927 11.27511008151137 8.5501777199955
Au 14.87169962925328 9.803950983308825 10.498837436874648
Au 7.653460439114313 7.133007592348317 7.6551801651130935
Au 10.148660814042366 7.936406238802323 8.50272644929975
Au 12.577922568440146 8.744763306831103 9.426421671419131
