24
Energy = -58.51834593 eV
Au 10.665230770034272 8.328114772549537 14.68249986404185
Au 10.041399028235626 13.09710824056974 15.379135018113649
Au 11.565168625810895 10.892164171180891 14.875284236374718
Au 13.241765856523495 8.5393775505938 13.978719309485955
Au 13.963289728589611 11.116022257248952 13.359408168999748
Au 7.539505886946366 13.341793269991353 13.599120336866358
Au 12.343737738388153 13.297675057438408 13.825404480116665
Au 11.19538893513904 9.568795596596216 12.296121822120034
Au 11.539459118872992 12.11413873973031 11.261257279748468
Au 8.287143792999993 15.203546357075892 15.494020824432628
Au 14.184378625241008 13.42190065845979 11.739294641462514
Au 15.733104965337025 11.217147165215618 11.205829432820062
Au 15.150009903363921 8.711245487377248 12.163008484888168
Au 17.85614023485447 13.516018491391074 7.96744888294274
Au 15.498008068073228 9.05045468708222 9.409685629000565
Au 13.19183958699526 10.080399537968317 10.582490600997414
Au 10.4087018264732 15.364693735901495 13.783993121641752
Au 16.761645958452316 11.227010852176225 8.614348183999093
Au 9.390193688276154 11.484845647259755 13.05272094132917
Au 16.2902575332255 13.605101984125225 10.11752802117712
Au 7.744427335441218 15.984346560945438 12.868727967310031
Au 11.991326689739635 14.921869598838445 11.537423299866937
Au 9.333339100739762 13.853146244913201 11.566041120565094
Au 9.848657816447323 16.586344475906607 11.277128976011719
