20
Energy = -49.43239345 eV
Au 10.036202060780575 6.983755626773322 9.146449723053598
Au 9.99778983549692 12.98286227525224 12.178639154502598
Au 10.12723550045223 8.70492509870217 13.587097483340363
Au 12.436324010978492 9.452238381494718 12.382782645883001
Au 9.585372451395692 9.660899835634538 8.603626100666252
Au 7.4735649919172245 13.053860299988012 11.222365952945928
Au 10.494845506806122 11.309712110951686 14.38408174569622
Au 7.332995400395982 10.49136455673156 10.182272739787562
Au 12.532753686124135 12.164680716779758 12.791602632232864
Au 8.454869256086285 10.699315142471384 12.62246380148326
Au 13.682018440663464 11.059990302869817 10.627772402366976
Au 7.605019612235386 11.346575006506512 7.658274921978549
Au 12.068235194115658 8.872457194004042 9.631940141018607
Au 14.031762669012943 10.124175579096894 8.087394694530246
Au 14.077608094289943 12.871603319257424 8.603756972383382
Au 9.42770566174652 12.444513487172488 9.414036505594364
Au 8.83484657680434 8.442129151351622 11.10982189178081
Au 11.236716365898051 7.096004286737532 11.635830480106758
Au 11.652050826237177 11.386000425123731 8.310946253911625
Au 11.914370532736392 13.3305409851034 10.261984140030929
