25
Energy = -62.74848089 eV
Au 10.331698417349642 9.721067065884629 7.96047328829683
Au 8.221915362978676 7.953777480736127 8.2349063740632
Au 12.692619997743696 8.701192104873954 8.85276932944806
Au 9.962017630795579 12.452016768764679 8.398796614959544
Au 15.090118822330101 10.073640699140133 8.777616770075841
Au 12.598109215248849 11.394376628999103 8.504689526567603
Au 7.7787025899170095 10.660674868960191 8.486292759623971
Au 12.142194936769076 14.085427727849945 8.721285627764965
Au 12.64035529909386 6.279796734312766 10.057419809179416
Au 10.314060712845242 7.790724737935227 10.166606185753169
Au 14.807446222545178 7.94127966908795 10.548009997340742
Au 7.698609664867885 12.84525409312888 10.050029353992882
Au 9.981853734056351 14.234588544231475 10.593930642152067
Au 5.924352651423736 10.888228482167479 10.674217121634065
Au 10.254763638159996 10.746274843653135 10.643880650194545
Au 13.85938832817137 10.473680703542952 11.163742452755745
Au 12.270699941410664 12.703173007191676 11.100589727972958
Au 7.912637533492411 8.995014883524274 10.792333312267344
Au 7.763631696823394 13.970874538529532 12.479178130873658
Au 12.440400714430872 8.19031162525259 12.091422380340884
Au 9.82863026225802 8.912863064769855 12.74299289287508
Au 7.9269175690124944 11.154508496674802 12.594397843622716
Au 10.21200163608511 12.793964935967432 12.950133803330212
Au 12.006269693363251 10.711476625948722 13.108547341033118
Au 9.78761909941822 10.77282703946317 14.752753434472062
