28
Energy = -70.81524009 eV
Au 14.36006618248511 9.4911078398067 13.641914477788294
Au 15.50252291995515 11.298468859241423 11.822826789547642
Au 15.94721720241682 8.573642648240078 11.577378404170542
Au 13.530084965674332 12.190998954033493 13.514329055598814
Au 14.544102211137146 9.69864828443455 9.450112430392785
Au 14.23727132093844 13.62719869599949 11.130734951632368
Au 12.278097467417878 7.553289197515361 13.76906103188776
Au 13.177561433010151 8.249266446700052 11.316901190660296
Au 11.935667198496947 13.506659689288876 9.31397503022397
Au 11.821108751623923 10.206971392770631 14.315795642408158
Au 12.757108160000689 11.285981643832374 10.896314014837934
Au 11.585988573560337 13.717997765856234 12.056962722453079
Au 11.051763478153056 12.848984830281056 14.646275644852482
Au 11.618294873656694 9.31940994419553 9.265698205961277
Au 9.752266437079935 14.22848888666034 7.654302217980405
Au 12.992259220369576 11.326894979693357 7.907879654086584
Au 10.028232380983656 11.471497148854718 10.94113943330459
Au 9.361870801608589 14.189594643949905 10.360336069781244
Au 10.613378962870756 8.947167135122651 12.000607926277514
Au 8.945759455139536 9.364280528171138 9.16669566088126
Au 8.96626637355164 13.781537574792385 13.074412718433278
Au 10.230564898523014 11.494719874398484 8.012188664000446
Au 9.250833269028131 11.023470138098128 13.62119193266045
Au 7.7285096664973585 12.66024726438633 8.565322097475544
Au 7.387170970696954 12.383313054853533 11.356688984342746
Au 6.787032505190273 7.8926610436521845 10.039466091475942
Au 7.909283049265614 9.536302926551807 11.840515227632025
Au 6.443963014420403 10.545179092859913 9.503973309228032
