27
Energy = -68.14823065 eV
Au 7.977429650123605 11.919241753467094 14.575477829632092
Au 8.362760603478112 11.440952334924694 11.856130999405371
Au 7.384177228006935 9.523248017450904 13.609007835657007
Au 10.382659830465442 12.693410170600098 13.605075748901337
Au 10.210477893865251 9.992350990625017 13.796142371835142
Au 9.277880849382859 7.617822975567866 12.773287293747831
Au 6.593327010133428 7.414860220479136 12.219245020569158
Au 9.52851238152946 11.110172543741424 9.403655968050977
Au 9.735216717817982 13.48677483108169 10.7504816973297
Au 10.211646232422945 15.289138453092034 12.767648857513045
Au 11.63524589288152 8.597622668769064 11.82397585138795
Au 8.148722813982253 8.99916865646945 10.531826416763492
Au 11.717790758133049 12.793176958082293 8.93696134068257
Au 9.651582633058139 8.570158499047748 8.263646469463067
Au 12.8142804979996 13.724244442574404 13.119238300761387
Au 12.044676926653677 14.914313351739338 10.580754997532827
Au 12.493811957673428 11.064162370613587 12.607423365994336
Au 13.52026670290854 9.966501965687364 10.309122780145168
Au 12.613473859283577 16.493125698943203 12.850509929465293
Au 14.0577251417015 9.0331589468751 7.600058327060494
Au 11.611708510824084 10.408337841135708 7.7205303266495315
Au 14.14498582336935 11.674339271356176 8.176337801935615
Au 14.637926927667584 15.158022189127323 11.56270886872645
Au 13.95327124132536 12.641827713494543 10.74842584448986
Au 9.967144908169594 6.751691318979298 10.31424815672807
Au 12.316300398517871 7.704644994497352 9.34412330971581
Au 11.770409402189612 7.820476313351924 6.661471003856094
