23
Energy = -56.39191159 eV
Au 13.56836669099398 10.340115838058857 7.560769014023029
Au 13.583542956144864 12.872229625956303 8.470642944052601
Au 12.476979963436035 12.628307973513797 11.000184325858193
Au 11.048658462375974 9.542102434545864 8.299809606531866
Au 10.960519050748099 12.308215507941611 8.482494960106044
Au 13.346967476453129 7.9868309500324575 8.918696950982385
Au 13.620098015778085 10.345447866851835 10.280266062892029
Au 10.21475780205763 14.092434338682743 10.761692621008772
Au 8.67594766116533 10.868443607495063 8.283520483328047
Au 10.395098929369384 12.36757495792327 12.906730673434652
Au 13.10108735191433 6.264935306777806 10.979986352095471
Au 12.072241715882463 10.283740323567015 12.436705406807917
Au 10.844343188642702 7.078247291211429 9.741273324358195
Au 8.418009661136857 13.56324429722189 8.822427641360017
Au 6.2892800093949495 9.421857339133712 8.158180692951868
Au 8.62299881723802 8.160419512746735 8.749028727935924
Au 11.26383667117165 7.730738368087865 12.431675513619266
Au 9.32869925725829 9.834505667065004 12.726504709769126
Au 6.3169658135568545 11.927882130494133 9.413043084608685
Au 8.248900893298478 12.123012167016347 11.320907359758072
Au 7.060089569017265 9.656178326380777 10.841022500191954
Au 8.70003037369515 7.393141551675939 11.382011214653739
Au 6.98845131439023 8.357296169100666 13.192122589589905
