23
Energy = -57.02559552 eV
Au 11.095671976002517 12.951669169967385 9.421380060684863
Au 12.510885234455266 8.183868952426181 10.430878869779306
Au 13.04603137982111 10.782086159356153 9.60495499747519
Au 12.163991909483624 11.799677130513182 7.134302087562734
Au 8.422681539099884 12.405363564340826 9.925028626723275
Au 11.82572764815754 6.027817894921465 11.905440275193948
Au 11.933114142260333 9.015174603875536 7.847882219786432
Au 9.420053809340482 12.670566559951888 7.320317798008892
Au 13.000577755144068 12.949414767416632 11.342282126340283
Au 12.199144076449883 10.453184540395167 12.184236956108647
Au 7.840191176147315 10.472938970284252 7.985242245732674
Au 10.394693625765582 8.346785935117731 12.43736641789349
Au 8.324386234404013 10.273715016230026 11.91810718638866
Au 9.378767286258531 7.915611469928345 7.6472092312473485
Au 10.254820436314532 12.64416738984018 11.986799236448135
Au 10.181799243334622 9.787952080929866 9.89907007867361
Au 10.198340262611387 10.566447524593897 14.007150453767004
Au 9.809042623618557 6.745952334867872 10.287589532472147
Au 8.15154164393992 12.371716384387147 13.695170783541464
Au 6.199843506275089 10.76289779972971 10.158699930363781
Au 10.00126796225844 10.18692756986376 6.339788695607358
Au 7.65091821927008 8.410521038304664 10.004586018591935
Au 7.771825666729081 6.008771840118223 8.659116899805486
