25
Energy = -62.57837874 eV
Au 11.241527337034354 11.117801311220939 7.318893953671482
Au 14.028381829590163 10.783312041004685 7.394092133887498
Au 9.904834916131055 8.920045521538567 8.115235648036386
Au 10.65522392607872 13.76038959255297 7.0831424204466344
Au 12.504586709589804 9.354986750163437 9.171599237119676
Au 12.924110155607098 13.071230910308252 8.436179618653906
Au 9.458848487798928 11.295048018216718 9.498561015090305
Au 14.157005368979915 11.348328931405591 10.199436521808222
Au 10.48198915305804 8.76683112798051 10.848032216741695
Au 10.62321005475463 13.821850993213124 9.788414331781313
Au 13.089903479055414 9.300591166998686 11.906539139733818
Au 13.230769520589098 13.918614949455934 11.048940851717612
Au 10.938359272196001 15.076152950286042 12.193911438514652
Au 13.175669502486489 14.5310330872657 13.720523992289477
Au 11.528349085943443 11.545273006377197 11.375878272979802
Au 9.165769394260256 12.928605406067605 11.971778892089349
Au 8.421666158468645 10.276350330472093 11.89455923185156
Au 13.983348174754585 11.907677537853091 12.88518487702879
Au 10.71421558011208 13.381763289066324 14.379608418067656
Au 10.660584479608415 9.565643754517874 13.45190197566794
Au 8.721747875847461 11.484431848209063 14.3374540108637
Au 13.193704312981327 12.624109115033193 15.547280979938176
Au 13.207776413754258 9.819458074352255 14.540528639651422
Au 10.901214155986779 11.030498064239463 15.832956579202806
Au 13.198500404752858 10.481267971620056 17.170661352585782
