25
Energy = -61.78151761 eV
Au 8.806244184746127 11.471168118610029 6.425586267188585
Au 11.397105312098562 11.176620879400234 7.010075547616145
Au 6.880998465289494 9.505408133755509 6.97531436210357
Au 9.462565826822829 9.227313808149974 8.053782527951665
Au 12.185102249286277 8.911477825614226 8.558584016271174
Au 7.204812019904874 11.702639943257847 8.700180714971157
Au 10.4359508262087 6.538086843158835 8.444738847082755
Au 7.769069289813063 7.032196547451978 8.012797250908138
Au 9.908120637755115 12.825826440083045 8.615003704373157
Au 12.938756600371457 6.616978485530488 9.779695680502002
Au 13.989176805249134 10.683678717084646 7.5726270520715815
Au 9.762979182462994 10.640804351800565 10.397278988609184
Au 12.437841506355698 11.524259242317525 9.670961452112653
Au 8.1851855590931 13.367697495970267 10.67911904777757
Au 6.812759354921223 9.079130042338129 9.709664055794418
Au 13.14672303713818 8.989043630964026 11.320857617001153
Au 10.643769642620107 7.968688962230533 10.727662250173534
Au 12.786247374064267 11.462840502890472 12.41525489235705
Au 6.561272591511947 11.275475523289888 11.355795524876216
Au 8.119965197162708 6.840935695863576 10.71999166464123
Au 10.887887518531489 13.113962149385594 11.306202279328273
Au 8.962247412541197 11.75610761924815 12.903313567416891
Au 10.846133189052047 9.637273747415836 12.950025524130535
Au 9.555434525889797 7.140686043985492 13.105485255479275
Au 7.994653971709911 9.192701530803403 12.271004189862078
