26
Energy = -65.53375104 eV
Au 9.94081350241715 12.04769889564732 16.201182938739716
Au 11.203508820204192 10.16113625487038 14.651016172883779
Au 11.699802612960756 12.991712696697734 14.32938239705839
Au 8.319521616199626 10.420300337857668 14.628776696738955
Au 8.954116921052192 12.92726189425945 13.694639737378843
Au 13.563379466140276 11.246507607102265 13.35188365330508
Au 15.030336030069297 9.200382823610742 12.208652335124512
Au 12.334215394439228 8.826691375715757 12.486185313984775
Au 9.625134792490067 8.858969997884605 12.657950649792745
Au 12.8253192220712 13.472665869437957 11.750179422412982
Au 10.936731039050871 11.30565627341881 11.97313281306372
Au 10.53692393877302 14.872426720209189 12.63099910949249
Au 7.885434444149346 11.010974593891254 11.992708316178296
Au 9.197756502111242 13.288669051087046 10.826265401710003
Au 11.739123067565965 10.972581594468917 9.388741783323036
Au 10.695878125415764 8.510896405874526 10.057032231062898
Au 13.486247276579086 8.788326713866384 9.95375655589769
Au 8.927188928167148 10.930366251401933 9.433766866770146
Au 14.412811766574274 11.468145274316655 10.71758447832075
Au 11.293314378035848 15.003250243557023 10.004193620068369
Au 13.204938315423572 13.250564945730027 8.914636049599036
Au 14.3671990829845 10.75972831215575 8.067717236058943
Au 7.954315188084412 8.625187497070804 10.473130974669258
Au 10.307589916820389 13.075717620307152 8.26301986880689
Au 12.183491868065348 8.968808402531982 7.538136867593584
Au 12.105670663997852 11.74821050578883 6.700022502470465
