20
Energy = -47.50835763 eV
Au 10.232114996050086 11.822946032050877 7.400190718474498
Au 12.58668497563044 10.41064868642268 7.598647033984596
Au 8.845406195523507 9.641071047490051 8.233734443158985
Au 11.2003353850401 8.243533878323005 8.460561956457266
Au 9.373920952248433 13.323459315428009 9.477074670589785
Au 11.882767298158257 12.217652343819339 9.553351379361612
Au 7.830091415239481 10.917776850284111 10.381334131464842
Au 9.988315745919541 9.255370552704244 10.701783105574703
Au 14.025525611823813 10.548606069504153 9.877130793433707
Au 12.48360352366508 8.13415054159498 10.833646826698049
Au 8.41141788060154 14.62326062716958 11.568614471068457
Au 10.825734310237266 13.43744973277957 11.823614336854309
Au 11.514074325395834 9.515636121501657 13.018834287994341
Au 15.346322821607307 10.473583019802566 12.163879854481694
Au 6.970791488086191 12.405274440583762 12.388581306342557
Au 13.16007091680339 12.055045147257902 12.025084239419966
Au 9.164428654235827 10.880833420098023 12.798160590692683
Au 13.918244695394806 8.27283483812704 13.0468518861146
Au 10.648495625031865 11.079552172302124 15.00172356637838
Au 12.10430279871503 13.253964778163114 14.159850016862737
