20
Energy = -49.01464464 eV
Au 9.197693541835038 13.291310526993714 14.22123732447312
Au 11.565718553535344 13.451955052235434 12.59959467704739
Au 13.641280883094094 13.189898379181521 10.716508459032315
Au 9.032074949661936 13.920892655433702 11.538497376179707
Au 13.492638071854175 11.591989267127758 12.94517100882789
Au 11.0598235343486 13.257296853888977 9.862780015649006
Au 13.172891642633573 12.443560470234607 8.117068775376735
Au 12.06434822269112 12.89459297528729 5.759593452088052
Au 8.577987965978325 11.28829548153896 12.548885844858727
Au 10.508623292207997 11.747043626245663 7.621349977332178
Au 8.691590754024086 11.859849872752022 9.691285469185594
Au 14.716318976312568 9.34528027786023 12.072711763626641
Au 11.030546226925544 11.31744869574592 14.250651901185002
Au 7.914187614988034 9.42894614351573 10.725282151816419
Au 13.296201575808054 10.549204869453336 10.01315152536369
Au 12.532160779910587 9.0453117224895 13.638595707174215
Au 12.317418904372452 8.190313713111376 10.963720638282272
Au 10.57667593633265 9.873044182303731 9.683168392773679
Au 10.034222815091349 8.880363043734784 12.316933037447795
Au 10.229288809207485 8.865511970163725 15.030010342274977
