27
Energy = -67.86852031 eV
Au 12.082645352644255 11.080211640120021 7.054854555538006
Au 12.15193661536776 8.38284280227542 7.694135983832759
Au 9.687504523842227 9.564557887931157 7.312489987560239
Au 13.620549353184499 10.254072128362862 9.238721917186542
Au 7.280081727641397 10.96499941072752 7.636036791906439
Au 9.717618526677356 12.351006778458256 7.80032318639125
Au 10.037124760100262 7.357750210481364 9.276480450216615
Au 10.736945724189741 10.060434585801518 9.885102163212105
Au 12.711679200669534 7.765654207867343 10.292708042795187
Au 12.121917465565 12.654252601643515 9.286299266354382
Au 7.613050064868367 8.543976377946747 8.866090309308627
Au 7.163291970188871 10.813891424552573 10.43103267940587
Au 14.625849261024351 9.29731007085954 11.585376820352726
Au 7.431778339205617 13.248251741988309 9.084995929555737
Au 8.591955427946175 8.542319750249359 11.40175959410159
Au 10.625071876075518 6.789482123464993 11.91296846374356
Au 13.250016475496315 11.682602641080951 11.674251381425346
Au 9.875600981257513 14.210803146414095 9.89138054348188
Au 12.13225271234299 14.243210364374223 11.538732594459711
Au 12.960343082423256 7.569997466200519 13.053819507132157
Au 10.364635812045906 12.111826409910243 11.657740525675893
Au 8.31667567833918 10.735515353895211 12.938057615998071
Au 7.756341994353272 13.260672944895777 11.769945447608398
Au 11.038673568242038 9.589681085104269 12.651718058323041
Au 13.528175903971622 10.114841000138052 13.996116401184663
Au 11.719592025408513 12.109356176171906 14.10116569561251
Au 9.162655162362741 13.054940104746812 14.13155068715539
