20
Energy = -49.56187853 eV
Au 9.680786514483607 10.855384240717942 7.347796278122497
Au 12.172605648065801 11.609922066750423 6.399721513620871
Au 9.524051807966469 8.085297339405226 6.9538666135241485
Au 11.925259789534664 9.179098016348888 7.750340921203032
Au 13.572988673535319 11.11949143939134 8.71560582097261
Au 11.198815849169947 12.64457341577312 8.827665031466701
Au 8.62658876277576 11.922788444810388 9.640802794836391
Au 12.535590207680501 9.23941477614941 10.509485116124901
Au 10.486620359279678 7.6352859226188405 9.486274850286435
Au 8.085370722121784 9.280280014509914 8.950498830651298
Au 7.849755916396111 12.746958950847867 12.15223848354125
Au 10.453039814396348 13.120896255844693 11.353801294382919
Au 8.17946657270702 7.466740524575388 11.060233890531697
Au 12.9247939801638 11.957956360058436 11.14488470400255
Au 7.644419129710774 10.101341914119242 11.505329852402689
Au 11.908412143122296 12.73815229271049 13.628125192662921
Au 10.581920605065118 8.19977288063424 12.130819360110298
Au 12.255165934222017 10.051315867566641 13.134239260037422
Au 9.699754186850544 11.07841653183142 13.30107227459325
Au 8.447847015492233 8.720166378075785 13.760451549665671
