22
Energy = -53.07200356 eV
Au 11.519935042499977 7.554879179121481 8.115115185785605
Au 11.112620592521704 6.348982300570045 10.800004176181234
Au 12.85203418413012 8.533323119309856 10.331531046302826
Au 12.427579046935657 10.15674224825275 8.085549731434579
Au 9.459305569613347 9.10186067487402 7.1181480146872005
Au 8.972638781805461 7.23197863943481 9.134313957072745
Au 11.77768038387168 8.137878683290772 12.922272510333043
Au 8.586311675927778 6.974456395094798 11.90018304569162
Au 12.7054441731749 11.252430991165264 10.640649034120507
Au 10.694686007505586 11.494142410577286 6.336490117406774
Au 10.13940139700658 9.10976479640726 10.901893026443398
Au 11.831934622365777 12.960959546662396 8.497143594838734
Au 9.950865674327092 10.990940251906988 9.11328219289353
Au 9.191987007629919 9.054455141476348 13.69915292632746
Au 11.145352340623004 10.901434311195073 12.86313665364498
Au 7.406140034172717 9.500481632922918 11.55203935664916
Au 7.24504522928936 9.342543172539694 8.82178336203034
Au 7.986011895396358 11.60898675979149 7.222093109793254
Au 9.085517578704726 13.74399624731041 8.786590595074829
Au 10.500188355780416 12.93182154148661 11.064108679898753
Au 8.532831027835366 11.791805703487684 12.623136024022843
Au 7.4759328877580185 11.849830901198748 10.073869062738755
