25
Energy = -62.49453206 eV
Au 13.891822313690788 12.25118532903421 8.19074745841823
Au 11.105466700002962 14.32453591539668 10.650894051761513
Au 15.278148871212748 11.63781504902618 10.500307301939122
Au 13.736876047395793 13.937722887226075 11.381727411351362
Au 13.762783656875706 8.931336745115466 13.213436928157837
Au 13.924561599833668 11.604391295039692 12.82673914384855
Au 9.313045521257013 11.741799634620113 14.18492870235211
Au 10.596739954377705 11.2441505248489 11.622706171593752
Au 12.211971632946375 10.222875639330503 8.000719134213398
Au 13.032713206865361 14.860055598512254 8.792778971821528
Au 13.08165747381217 9.938402240179407 10.67434140747977
Au 11.858849229853442 10.70302351655138 14.40747581050735
Au 10.528297957317605 9.066334511777631 9.89326583431621
Au 7.921763955766764 10.178386693141915 10.125545406204447
Au 9.489630197754838 10.743800014478007 7.961514834756611
Au 11.1953092979428 12.889274414432077 8.239498775069617
Au 7.2805790079652475 11.83932430603466 12.216734381435009
Au 8.378032225639748 9.371125323252768 12.661938198754607
Au 8.961197757629941 12.771687700214631 9.858440730507738
Au 9.59321086591902 9.130461743970294 15.054605733706499
Au 9.115559134711022 13.868011292980597 12.451742984550828
Au 11.731559698924299 13.243569863479422 13.185473738084454
Au 12.010635722145013 7.866382090082917 14.992841506769611
Au 15.61748289006067 14.088959167972366 9.285870800871837
Au 11.07475198512034 8.598601037244384 12.51097125143434
