24
Energy = -59.19925372 eV
Au 12.87354492342236 11.483137244094404 13.490313282314439
Au 9.075740971966484 10.731721471368267 15.06662335586196
Au 13.473958902890537 9.00557551252174 12.42357299190735
Au 10.538589506776557 9.201971472284235 8.85362889530561
Au 15.829932697761153 12.197322747127071 9.101381830428322
Au 11.289113295094628 9.311658439764955 14.156306266360799
Au 11.406151616348456 11.53807945870055 7.636374385090733
Au 12.23307334976772 10.878951964538478 10.611994849050081
Au 15.196959512785794 9.81666151290613 10.403144406154727
Au 14.639416006166485 12.34978076283085 11.572045830498714
Au 13.058750425254123 8.335195147112234 9.623402732773185
Au 10.891641363002346 8.423507154459061 11.491040034397725
Au 10.40385534216745 13.233288082279538 9.653633719906136
Au 7.8704532870448745 13.05558628119474 13.855313031953767
Au 13.17889031585066 13.091831306788167 9.193271199442755
Au 7.9702360622188815 12.31266476704797 10.901839405407276
Au 9.474917278229723 14.301740903751542 12.04650326952582
Au 10.040252036993229 11.052109722076073 12.398347470729618
Au 8.791721034338867 11.337364386014382 8.42833663880917
Au 10.682803847579619 12.96447448726771 14.244452799975903
Au 12.114959442747972 13.540132778727413 11.790473681762231
Au 13.873615278149067 10.532422584589357 8.039678413172915
Au 8.467293640388426 9.553615633150194 10.632828085683297
Au 7.289582529821592 10.537121025020966 12.920235556341128
