23
Energy = -57.37997409 eV
Au 9.885712642990908 13.868343495389258 8.089716736396142
Au 8.615136387421076 11.50036859956792 7.854438038439227
Au 9.858014784312184 9.107875434408115 7.462939580615014
Au 8.740707126458 12.936105696033337 10.424261906042078
Au 11.383898374676633 11.476333686254893 7.7083072420823
Au 6.407936793797587 11.636952261966666 9.412871392516324
Au 8.102126663109557 9.361763898927446 9.525544045347253
Au 12.527250983422398 8.973088336269427 8.11530505211613
Au 11.616329569367146 13.007851042121167 10.001058540094872
Au 10.650774076118283 8.261441308749594 10.03136912488352
Au 7.36805183782387 10.74628597049799 11.782695764087144
Au 8.720316883800223 8.343114608858563 12.008158356030348
Au 8.09752335930134 12.991376314615342 13.12933967402149
Au 13.611123682810318 11.210241907563782 9.295315824038545
Au 13.317059168636364 12.073454286267413 11.948115999904429
Au 10.715632533923465 12.741364585721037 12.52165454307246
Au 9.372975166217586 10.524539496653418 13.644599405070016
Au 11.33895735304785 8.836874305723773 12.69240397959729
Au 15.479466964112516 10.479835508563767 11.131312116268699
Au 13.280022954992148 8.729221076643208 10.7190174203213
Au 14.495755147796428 11.866360517757954 14.467028785803592
Au 11.919356995466131 11.054303588859149 14.364654040004764
Au 13.967603379027127 9.523474961315127 13.215072930374204
