22
Energy = -54.10001825 eV
Au 12.785925532307422 8.223449882858795 11.559516090008877
Au 12.754143307774399 8.839395455306967 8.954720488705268
Au 13.006423172150603 9.612783112055816 13.825249206225042
Au 10.380932319765709 7.790658439029216 10.280925564965512
Au 12.001671657418 9.585900645142182 6.421549002833228
Au 10.459970002640247 9.039077733209133 12.795225456371728
Au 13.37705147113154 10.775455613445589 10.901522604805058
Au 8.670071158875794 9.910231155407741 10.663365147523068
Au 13.293389976325168 11.538050311976193 15.757306540491571
Au 12.273898951546597 11.580366248068923 8.281828248107914
Au 10.149136422948052 9.775603782130803 8.379585147179856
Au 14.365707944619913 13.340110308860389 11.03767240273395
Au 8.558522024086834 10.927304557811816 13.433879490509431
Au 13.041978125333673 12.374210309594178 13.160468832626949
Au 6.329161548513069 10.448689351422194 12.009724971153878
Au 10.877836453280924 11.215641476220316 14.661853261745788
Au 11.775385173369093 13.341083487529607 10.440548665381494
Au 9.575469329689094 12.267679937500963 9.198120287985713
Au 13.613207646054429 13.892301316654875 8.442956185467985
Au 10.28511153302981 13.040819764392317 12.723639992550856
Au 7.82951427759233 12.554344931751967 11.28017516662995
Au 9.422555484560082 14.690644669962662 10.695235591817381
