25
Energy = -63.00637173 eV
Au 10.734764430917934 11.631829961071857 7.320170793993896
Au 13.192073871662359 10.571010745465161 6.7558973989683855
Au 9.04531263288098 9.425277406203216 7.87231342556877
Au 11.624889291025223 9.271167311678399 8.660641848609894
Au 10.58691299040617 13.882387425996402 8.859419829268212
Au 12.97956094190513 12.400059722728633 8.844416095187526
Au 8.938555883393512 11.703196853794722 9.3896266813623
Au 14.147972387169943 9.887550498370867 9.376113723187252
Au 9.721394592415413 9.180111723866663 10.579024981461734
Au 12.450830337109464 9.211361439667794 11.414658867603888
Au 10.532887531707773 15.929244885549158 10.65455707304009
Au 12.536292273248112 14.05647472260163 10.92705093423355
Au 11.491557681334239 13.659232417367342 15.506420302175595
Au 13.838992596374215 12.438299891232646 16.07173024618138
Au 11.530300723697485 10.892806507875958 15.319519684153121
Au 13.789742842281862 9.68445843303928 16.333843287066163
Au 11.048236938870716 14.860291441534818 13.13921267996193
Au 13.490189358007965 13.465777211485136 13.489845930102627
Au 9.760546193331505 12.380238976543277 13.845557659761367
Au 14.231724761094272 10.821880606010867 13.815167838063523
Au 10.319096746018182 9.704985258046365 13.151310871009448
Au 12.670623759928661 8.603111325974563 14.063227799813959
Au 9.260980262167733 13.574802817941139 11.360014166721525
Au 13.897616112851486 11.738648568598576 11.346767531945355
Au 8.246590806167331 11.093439793323528 11.97113629652622
