21
Energy = -51.91749899 eV
Au 8.813231309874418 9.595775755060531 8.238025055565915
Au 10.64930956407929 7.770005930589201 7.341455005835993
Au 10.348802054800661 10.239007961290607 6.111576654278845
Au 12.2894435518937 10.080517007125263 8.076692893863063
Au 9.979407322759664 7.855238861053018 10.151081941551567
Au 7.806010397031988 9.416617039886278 10.72189640841631
Au 10.070634844218645 13.395283346783291 10.427880831196093
Au 10.452174609432534 12.133716935703179 8.07905881866264
Au 7.976995220597184 11.934798979822038 9.373668174233849
Au 12.473982208406595 12.04416892651604 10.018521619101485
Au 12.570739934253853 7.4983661915081745 9.200361777887071
Au 12.011818023697971 13.281156189067177 12.383218628033342
Au 13.823065331355412 9.68443750745211 10.287380007376822
Au 9.328162001117512 14.071243175845007 12.974867777069658
Au 12.166148151506897 7.91230747618327 11.876483405487944
Au 12.608104416505792 10.511891353499783 12.571277769267805
Au 8.432856558171686 11.665499277261434 12.072457708201107
Au 11.088388962674534 14.08369230968183 15.022320037865127
Au 12.951140749047825 12.124218179742188 14.734950731306935
Au 9.933808517196761 9.32804048737954 12.508337677039831
Au 10.333824139326186 11.53557083201876 14.036152038005351
