28
Energy = -71.5797961 eV
Au 12.425985982549951 10.271495877937605 6.6805737413657456
Au 9.880925682863937 14.177521221288215 8.741116580699298
Au 11.570944547693893 16.317966006496956 9.72950486763265
Au 10.782258010957245 11.55004520509079 8.429838025070937
Au 13.800096840771507 11.477513033997417 8.648489083453862
Au 10.50075745067893 8.616902654098336 7.661072048728359
Au 12.779439734432811 8.988721369705535 9.237890126112198
Au 9.152604506963344 12.32210147351061 10.577670318042644
Au 13.085821559958875 15.05261664281557 11.61189883947932
Au 10.279787952057005 14.634553132324413 11.482418084831819
Au 8.876412635035505 9.733242955880813 9.638785183135127
Au 8.455443668225811 7.130960299785091 8.81322017064287
Au 14.71953891575065 13.13358173264196 10.610577288486645
Au 12.576601817991426 13.855197998813692 9.024132077760719
Au 13.963320580698397 10.58789409083926 11.330441657207958
Au 11.114155943547194 10.428988962483995 11.220595518245519
Au 10.713251210526247 7.400096205284438 10.31119991678828
Au 12.765826691893226 8.184462825470114 11.874148204781836
Au 13.468165623603944 12.652619574123726 13.068003238478806
Au 9.776939376810525 12.625419357601048 13.263961705775499
Au 8.089775513075475 7.687899770096097 11.47151426576723
Au 8.448189621530219 10.335665092495177 12.351259415120177
Au 11.677198558635983 14.578626004855805 13.909589500676585
Au 12.412648461517453 10.15447494352363 13.752913922167716
Au 10.390039418607023 8.10152438718355 13.143107658549404
Au 11.60905813473879 12.265659579000443 15.32720694752392
Au 9.759772930305841 10.301494629825605 14.857495337344439
Au 7.855215513749523 8.38891256280427 14.155823046188129
