24
Energy = -58.91965582 eV
Au 18.509180416842867 10.107390773147742 12.702024540686093
Au 16.41510777420142 10.03490583457154 11.053008029468756
Au 14.348370472590634 9.28088415437621 12.645172469937707
Au 16.239329905037387 11.113732058185871 13.607119991581447
Au 12.465784622266794 9.488886487887797 14.512475811459055
Au 13.727133075443486 11.938976223463674 13.76531309164119
Au 13.942057211040693 10.632449833585708 10.292953118537373
Au 11.771912468753278 9.260366098102796 11.690504848553738
Au 12.703554695572752 14.546305086555169 6.876531550074628
Au 13.422231047037195 12.62772356409471 8.631579503366616
Au 11.588057926532338 14.593620110902096 9.408040038399596
Au 10.809685037629468 12.66341335058494 7.554596876330995
Au 11.297277968668052 10.825762979221036 9.522342565060324
Au 12.96477868431775 13.164057351275549 11.376340126905962
Au 9.26576727929768 10.384794471232636 11.288742807436488
Au 11.111636352030423 11.804998472698468 14.98229095120849
Au 9.23433358809954 12.702345407170561 9.782950277699197
Au 12.134017521412309 14.112389125710386 13.87095927442145
Au 9.903421084903593 9.54351977081466 13.747759588040163
Au 10.380607079510026 14.309779736923087 11.744909471948233
Au 8.358138986889507 11.437795689814989 14.7226439496719
Au 9.491305582013453 14.026646615134892 14.342961572269397
Au 8.032187995132523 12.671922087609076 12.203523564587991
Au 6.823621129979257 13.624286958023163 14.509458472905363
