23
Energy = -56.96058784 eV
Au 11.47741075135712 13.794974113560235 8.789907890234279
Au 9.534281973687596 9.472629060172347 12.885710612344152
Au 8.869165529022542 9.246226123697582 10.09270672720552
Au 9.249917152105516 14.12394628140056 10.501233306756514
Au 11.790802774655884 14.859212302636589 11.266875636041144
Au 11.179230520871151 10.667236732144126 10.995845962351234
Au 9.506353701782027 11.869326176521533 8.893830646342266
Au 12.928029024371526 13.589971413034636 13.361460834281212
Au 8.25002334725427 11.547203686847146 11.348293663450166
Au 12.333112021276603 11.208619071689757 8.494094213168966
Au 9.868518804656217 6.999922295474699 8.727776102862629
Au 13.334188109057306 12.620369080826142 10.679104924008193
Au 12.369249292232535 8.917801530784539 12.99366775178789
Au 14.026424804294049 11.11625133360091 12.971082684884534
Au 10.225346962913818 13.864444583725597 13.279106693843291
Au 13.652355211627446 7.237870003463444 11.163496411516658
Au 10.294765435925452 9.547613751070056 7.702712994060512
Au 11.365664947986968 11.320320381233536 13.904654106967614
Au 12.359036601703608 8.271794211099872 8.967839190957589
Au 13.891149574185453 9.916617955993056 10.487257803897624
Au 10.794277665688647 7.558220242144163 11.265401805027736
Au 7.601211787221033 13.905318753522772 12.66228914325996
Au 8.597689301921438 11.722943830259508 14.12389352767046
