27
Energy = -68.31397448 eV
Au 11.367673309592893 12.114043958350024 6.189740592235804
Au 11.47121953575078 9.430928576187675 6.784428490204328
Au 13.069066096447353 8.014072505002467 8.405271268945764
Au 11.78571126675628 13.497490080244239 8.489295289393802
Au 10.006977236193062 11.280458986427861 8.460284704048158
Au 10.757501643466252 8.89285352846045 9.562788266032422
Au 12.652877888736331 7.27228746379498 11.001451997638133
Au 13.09885190668965 11.042213285159205 8.220227933771813
Au 9.74180870900593 13.285540995417598 10.34981033605023
Au 12.096432383264126 14.844051200069176 10.7885189418428
Au 9.193109843944546 10.641970988553046 10.986173997288594
Au 13.83142148468725 9.729619850126717 10.493948741920045
Au 14.598145768700338 11.238112082162418 12.641739666166206
Au 10.415237362310423 8.425818939794226 12.220471144600177
Au 12.024966642464925 16.14515157533538 13.338853793930038
Au 13.565417777038313 12.506465222494105 10.448511126549267
Au 9.728465267669145 15.18399680202912 12.307757262538148
Au 8.599603110257767 10.006030740940854 13.562458709615568
Au 14.337414281539743 15.997634598967752 11.931207835219743
Au 8.977379400285734 12.621422202058602 12.913723518297035
Au 12.98925502024286 9.068554737312853 13.085610275541091
Au 12.385687489429019 11.502657682216007 14.315550910647168
Au 13.503347331665465 13.689030032670866 13.088984999772457
Au 10.985121283451043 13.922556162773299 14.503361789508974
Au 8.628687339954713 9.469521912431139 16.251266212506536
Au 10.9894793103459 9.140992588014138 14.892769081471037
Au 9.883515841567139 11.707899378134162 15.472808151350115
