20
Energy = -48.97820596 eV
Au 9.78404412568109 10.904497139396526 7.653069485455959
Au 10.598746214599016 13.520296781034602 7.372876524802072
Au 11.7763780357858 9.162136648377766 7.991338835437995
Au 12.291424382155247 11.738497844057436 8.728913796752815
Au 7.108409319032786 10.439787094364107 8.537943855377273
Au 8.098436583130377 12.972374022810547 8.41016972876262
Au 13.806265275136823 7.857276673554727 9.151995057256393
Au 9.14839937755127 8.767449298706849 9.214579874877483
Au 10.322856151677401 13.357413116985226 10.077843126057932
Au 11.344393089377999 7.462637455031105 10.185700240326236
Au 12.824286630126426 9.871457769140378 10.767394856460657
Au 12.782734236326299 12.716651171940248 11.148966291711902
Au 9.02173582487162 7.48413538332466 11.560816611395849
Au 8.350538942633417 11.442816948774098 10.741353523808831
Au 11.22197171367019 8.689314290468529 12.76178339900444
Au 10.14390005703857 12.330851730345657 12.608875114108196
Au 12.489775582544175 10.9424007773612 13.29339746929015
Au 12.268434744322679 13.635180741848687 13.654625254278312
Au 8.882432459437265 7.707010552102269 14.218895914385797
Au 8.789290569462528 10.052267874936655 12.973914355010518
