24
Energy = -59.98514356 eV
Au 12.33003459735228 12.93587310693848 9.477404726692265
Au 14.30932822744512 11.1929005872436 10.555330274078948
Au 12.372781734467143 8.517647221582983 9.27477189698348
Au 15.039245969148737 9.106660660594414 8.745146326391813
Au 7.6775050275391274 13.258812663312153 13.927444160478492
Au 9.6774139234969 12.144474739426627 9.64585009832092
Au 10.818717762794385 14.471371368954365 11.101900261895516
Au 9.943991005800926 9.147282342176938 13.176697028008398
Au 11.254220780802374 10.707440756505243 8.050212133002471
Au 13.199495053081273 9.156568908367698 6.718408224842337
Au 11.67297298465731 11.048637189067188 14.444425323424399
Au 8.902473984293342 16.34378249684102 10.465096907202362
Au 11.8895808596459 7.845467135847743 11.827097971133071
Au 14.51415517565135 8.269086877566112 11.22592185298327
Au 8.600834862382582 11.249203013525024 12.065885537207723
Au 13.727763900689295 10.181880230163989 12.966660938340317
Au 12.343448046217736 8.311294011372546 14.449608833622055
Au 8.97917120757144 11.049580758898614 14.902339415143674
Au 8.82120931534657 15.551875896896753 13.014234014233223
Au 10.12776314349874 9.534382570457995 10.451869181202062
Au 12.593010479653545 12.593398672139044 12.210418048043152
Au 10.388979253762267 13.307046636278965 13.647334507741332
Au 8.070026571134816 13.722088493753969 11.103300983251225
Au 13.95807370942908 11.539589653187251 7.860859281493943
