27
Energy = -67.44488851 eV
Au 13.501284225948691 13.93028086529719 11.095417375338524
Au 12.198237853830594 14.459621113168218 8.620493668944874
Au 11.0680034239093 15.194332356750083 11.10750443314399
Au 9.453235219133191 14.138671099481183 9.028433681201687
Au 8.797016376820348 13.687383459700227 11.691052667899374
Au 11.293719819393923 13.417129679379922 13.269389170857227
Au 11.245448745230668 12.311807644218085 10.6597079721184
Au 13.234341543188773 12.553113643429839 15.178423539404598
Au 13.816508520211881 12.273890206036514 8.677224638903956
Au 15.553802501386283 12.158823894544616 10.906087406029613
Au 14.022431735988363 9.971601176548301 10.241550142645744
Au 13.345968907700154 11.486916442357046 12.52710351500397
Au 11.031651504288904 12.118542543510006 7.782485245953192
Au 10.952346569998213 11.212239758343788 15.002726365711384
Au 10.908652086162567 10.092203059111243 12.165123438460192
Au 8.83690432436077 11.489409338120389 9.456938262899362
Au 8.677801144841126 12.655139000758142 14.204307088139046
Au 8.275460700161444 10.956030591090821 12.099139879825831
Au 8.714329234463099 9.848137168732794 14.672090630202284
Au 9.069682068316057 8.900394092290263 10.398024988511658
Au 11.026814671515833 8.369658920740962 14.427078035253714
Au 10.045642742878698 9.531546857691996 7.84715660112086
Au 11.80970214283024 8.407230809567155 9.804455076753587
Au 13.387344059810726 9.780085520254078 14.756753729414
Au 13.14424261118263 8.458992979685029 12.392574259723544
Au 12.79671551113191 9.943598240202531 7.764278255989538
Au 10.619544756536767 7.1963877705344395 11.955629432843379
