28
Energy = -70.13095229 eV
Au 8.114369625853817 13.412588134704704 11.351765279744468
Au 7.3230594380445835 11.835538844113545 13.408573395385645
Au 6.750852640228439 11.095444548454708 10.801445830616963
Au 9.178229389916195 14.003593107486797 8.889614513785297
Au 12.907031260500544 14.830810879623053 12.179832657724845
Au 10.909315011802658 13.409815367966972 10.902365989337243
Au 7.782562419372306 9.676949089639422 15.084897900167595
Au 9.393190186111845 11.296741833934218 9.912498186317256
Au 7.854512192475903 9.173417718780906 12.41631482922515
Au 7.865566897413455 8.893045016596806 9.717157563254675
Au 10.673551814597467 12.46116050375511 7.314172120913353
Au 9.919480514330386 11.11063377851804 14.22534921878305
Au 10.28955266209597 9.486205324999203 7.869334418258477
Au 9.414581263702658 6.819109549857027 8.887048860312063
Au 8.041980616553262 8.339823585398058 7.03645073495154
Au 12.10336292728 10.971815068266713 9.41789715019361
Au 12.292366869449205 10.521585009202779 6.23840891197733
Au 11.621342557767427 8.037254080560935 9.935961745404077
Au 11.811201239826483 12.687653917516004 13.368496798994565
Au 11.247107630924852 10.321368576507446 11.935252468368935
Au 13.417677861264274 12.657726014077122 7.569428283237768
Au 9.596994963976893 7.22690131978448 11.558531346661935
Au 13.67427977537441 13.20190572545156 10.238937143483938
Au 10.004189858041704 8.311101338154195 14.03221801312618
Au 13.471794055719624 8.877730260270036 8.049435053712218
Au 14.883450591002413 10.96712780502434 9.19780769360554
Au 12.281826436540127 7.851978102296184 12.639702572647932
Au 14.052507916204862 8.875967486270259 10.817009399902954
