29
Energy = -72.62536242 eV
Au 14.996538352340696 11.056808523469744 7.734187142389495
Au 14.445825602765263 9.527899906011523 9.991129083203743
Au 14.212397223243839 10.992178955519272 12.328298283491979
Au 13.683769318147716 7.9811889329205 12.067820036682281
Au 13.434433213557899 13.707974207793953 12.149492966505127
Au 14.10445737924055 12.4112224588028 9.887120366887116
Au 12.57054320636962 9.86842161693525 8.032103949945029
Au 12.58261831908302 12.570387244625616 7.475709292407747
Au 11.73659694198206 14.01605696430357 9.925115210891313
Au 11.57460670443386 7.004663540305351 13.48956153344328
Au 11.92784258701784 9.693167803146146 13.212407338651138
Au 12.644477967706386 15.57449832613655 13.798586660187656
Au 11.664629412388415 11.562005158813886 11.206922262857892
Au 11.425516344283322 15.025571807499578 7.388570476250387
Au 10.641204843330044 14.24847787861139 12.62623581561182
Au 10.024974702212047 11.540875130404608 13.45457308535188
Au 11.628926965861055 8.682891309439036 10.363417864853755
Au 10.270000162105495 8.390467351518788 7.898170676045733
Au 9.48638264477021 8.762755509414893 13.893018330158457
Au 10.465377188147379 10.882133366655399 6.619781491854081
Au 9.7747180593857 13.05121333341456 8.205709515799635
Au 8.059545679770222 13.375409683180644 13.314387539328099
Au 9.103520970288578 12.801389731378976 10.8616339937811
Au 8.944644642448553 8.01109428207617 10.238742126003114
Au 7.419188064078378 10.896139315344259 14.247954696288076
Au 7.991370393570003 10.298089564548008 11.611037440926507
Au 9.294209341235515 10.592945198744633 9.21789767908863
Au 7.044295394939734 8.312650162183017 14.950025334870086
Au 7.3841273644379015 7.698161725942739 12.34712879538615
