27
Energy = -68.37114713 eV
Au 14.031035571746115 9.65855862802117 11.907853861448208
Au 14.316514300820623 15.026837424229997 12.607147476362933
Au 11.811243100971934 14.609970755460491 11.600802282937394
Au 14.491175979846384 12.330004605137411 12.239960253576237
Au 8.40406080368937 10.897980358562913 12.178695603254912
Au 13.844646189585355 11.268592213577488 9.64179213251682
Au 8.269617789340021 11.987513076883786 14.756877825272664
Au 13.158296560238925 13.099998494667867 7.713017539836969
Au 10.280813493850722 13.207979657940626 7.452245534462945
Au 11.615708177484644 8.663238926639105 14.501708835335426
Au 12.466943695497578 7.372710597300476 12.16146604238564
Au 10.139646048700067 8.780878234377505 12.000222008422266
Au 14.375329668355057 13.935176880432671 9.969772509778826
Au 11.61449961520195 15.11676955523515 8.84513745903287
Au 12.074011703564393 9.0442243953736 9.970144656258986
Au 13.41382270346427 16.4739060985433 10.327866785146469
Au 10.258877410640158 13.802329092466039 15.523008442908402
Au 11.0258039241597 11.231769696150009 15.228509962161235
Au 9.046547962844839 9.400131369456066 14.493245815206109
Au 11.765915588380718 11.486427572025734 11.61386040135335
Au 14.238660143202122 8.079213984499104 14.208313822203445
Au 13.612843595774867 10.756494489453049 14.439165176909423
Au 9.569245818253462 10.398633970390536 9.79167128567185
Au 9.894280151407635 13.165111279567071 12.86158270548364
Au 9.990566661610762 13.105617910350784 10.127398868005312
Au 11.585689442939378 10.861189249746639 8.014517564517112
Au 12.591020032681786 13.312180426227853 14.052374441003684
