23
Energy = -55.72057399 eV
Au 7.43105146013498 10.769424479910292 10.231219068547858
Au 6.867318599309234 9.62167090105726 12.8284334289421
Au 8.013161581312824 12.089801955464212 12.867662447907579
Au 7.7070415266086885 7.838933648902341 10.944438498564335
Au 9.514157111247084 12.814314747654333 10.760469162128016
Au 8.884436979173916 11.604512061749034 8.115592611329747
Au 9.21815063870265 8.775845257579917 8.93458845243295
Au 9.063216562774903 10.260014892441005 14.594236357356676
Au 9.639193089756322 9.973452762389668 11.605757262734363
Au 11.014706077541325 11.7918061191287 13.097540463197742
Au 8.880079377427784 7.630162520182502 13.393293480162347
Au 11.239950310446087 10.907907672196451 9.28492135046984
Au 10.595240337207038 9.52524592649031 6.755265189903228
Au 10.89471141482975 13.77678244177675 8.672184117750907
Au 11.219874101131447 12.16108772479721 6.494335234051767
Au 11.26922417208335 8.859975961980494 13.809440682812308
Au 12.476011477508953 12.634034811032397 10.990145352531444
Au 13.226021470673908 10.166850376532656 7.071997330833762
Au 10.712036935519627 7.509096489986907 11.163546665234586
Au 12.161172180513883 8.355496666435531 9.053260324838478
Au 12.593388764437673 9.746192784661725 11.648041620237596
Au 13.406388443496908 12.798135993505888 8.267815278297869
Au 14.149871856004543 10.54603739696548 9.610457726890003
