23
Energy = -56.56626474 eV
Au 12.820314929343022 11.930919411877499 12.877152733878082
Au 14.89899823586763 11.158586889966475 8.85930443236521
Au 12.684045949766336 12.25402594197753 9.97281841653143
Au 8.491009677434672 14.094631607870967 12.924996149541274
Au 10.652378463188633 13.154613610845216 11.465976967743963
Au 13.927885968748706 10.033549322950497 11.14368675529418
Au 10.713120363593037 13.197112059131209 14.20408566769664
Au 12.18551391613667 11.49767305183454 7.287413544197403
Au 12.86141714152609 8.518812537873485 13.117865351056347
Au 10.163924468248588 12.399540295187695 8.886580585681154
Au 7.901356158757108 13.114356030122224 10.291911110197452
Au 13.05684126600736 9.222585929817773 8.486975514853652
Au 7.796355142306352 11.332912844481017 8.054686774980174
Au 6.425318796190022 14.942820016022976 11.53529035153691
Au 11.097184894844782 10.100026217746917 11.753766817719557
Au 12.520469004965102 7.537585163786589 10.570117633364736
Au 8.622421681695421 10.415363501724618 10.44933294304587
Au 8.939260108583518 11.379164654304713 13.068622770701214
Au 10.137748148231049 9.70154761920792 8.054236077570305
Au 11.364621318227842 7.196304468227466 8.083051618910211
Au 9.71966821339043 7.87940914620362 10.163117883465892
Au 10.744734034213348 6.760029506267947 12.5525246801701
Au 8.856947379081811 8.721096451575608 12.67442178697994
