28
Energy = -71.91882871 eV
Au 8.032747923073297 12.232786040429591 14.302750208517706
Au 9.997977903359793 10.433741663332816 14.672055177676759
Au 12.046158116589877 8.617671677455517 14.776233305385112
Au 10.403278901268951 8.462427371016915 12.579557812549066
Au 8.111108839025826 10.069131392934969 12.512414035853643
Au 6.514574546226613 12.26880797288723 11.958501992278244
Au 8.841270814613415 8.446155518258083 10.36019768405493
Au 6.928033639194223 10.4822753566999 10.01174612633456
Au 7.36536909481527 8.650617932720461 8.03605832018334
Au 8.253539317966554 14.331345177397155 12.406193680005359
Au 13.276206163488403 8.083484795137268 12.382078061777094
Au 10.417534832536925 12.721301928533432 12.993337428511394
Au 12.302196153859253 10.683231021929293 13.00927540635507
Au 11.496476035170033 7.59810919053296 10.150105139927438
Au 14.292282780428984 7.7258483990288305 9.916389995397898
Au 10.44759733333102 14.619852170730509 10.90557754233815
Au 8.31404378491692 12.95435449302518 9.912524448550943
Au 9.071569463936967 10.853172657633309 8.197698433401253
Au 10.0512099375049 8.20672872938433 7.835215734388237
Au 10.654999872163408 10.653461373786161 10.638510617734582
Au 13.7595740650827 10.333283795381048 10.66570505758567
Au 12.687509328446346 7.814578993679766 7.641543526697774
Au 11.754596432811212 10.45274900268697 7.5031715582247305
Au 12.52386872921957 12.756115526271426 11.192770327182844
Au 12.694467797865252 14.778301510085667 9.353916762150147
Au 14.478679794014075 9.845877937648083 8.041574631775559
Au 10.823023329860009 12.841851419835633 8.656356387375881
Au 13.646586986717871 12.311563404096276 8.653331366426963
