28
Energy = -70.9226305 eV
Au 8.30045731626197 7.609543035023045 12.425144876180896
Au 9.62340688061988 9.842935432515143 13.212370581907276
Au 9.439074909225392 6.726745044304523 10.012514091184467
Au 6.862295780697071 7.8325019122612645 10.10267197882725
Au 12.393611398094304 9.771247588192521 13.38315195161586
Au 7.1059349967872025 10.050077280352225 11.791381844707361
Au 13.60589008545728 11.904014265257478 14.668999123630366
Au 11.065141990756288 7.767905768544694 12.02133300271817
Au 11.639610967232123 8.141468129649988 9.28005932702854
Au 8.957527274916012 9.04060007847892 8.63788826948075
Au 10.900004097108237 12.115276686442714 14.18911776644191
Au 8.331816592959196 12.262787676929161 12.995160831889459
Au 14.901775860835063 10.608612575147829 12.433296978429745
Au 13.700264341415664 8.414947101750405 11.224866029224575
Au 14.734037781928322 11.939464250581558 10.019476617689026
Au 12.19650748383972 10.674695323982478 10.66415943791366
Au 9.536547387697217 11.121708073083987 10.527510362811821
Au 6.456857963183799 10.273475135084528 9.012849757003037
Au 7.069752764624784 12.499773008397138 10.474641818023667
Au 10.504843642191112 13.468817552176839 11.865364002991852
Au 13.879125393204177 9.647210099425187 8.640403540334841
Au 13.18946073496265 12.859193520594753 12.200639067606494
Au 11.163184380426566 10.582014803105173 8.007000470520307
Au 8.493446595471541 11.772203999669413 7.925294740388022
Au 9.250011957624103 13.917394297049517 9.451351402965148
Au 10.884392798038668 13.22705018273716 7.30268696855523
Au 12.170799161808532 13.456583821951302 9.7197182773885
Au 13.444711618248345 12.27224551292597 7.61143903815709
