25
Energy = -62.48606361 eV
Au 7.891800191154291 9.010769721889078 6.389733711762327
Au 8.876224917004379 11.612615441285186 6.640053269015365
Au 10.433908945311758 9.274013015719387 7.3335872600240375
Au 11.91745241573184 6.966746810593291 8.122323028842812
Au 11.197224010805046 11.77463321385859 8.077183735208218
Au 9.314225905617901 6.729888400600012 7.083179969781118
Au 8.903018177059431 13.133017724497607 8.97064707638521
Au 7.386584475893125 10.835969178436962 8.732928483916318
Au 7.843666118384395 8.04524130006149 8.970814399682965
Au 11.450745043814939 14.133305873101344 9.422325556406259
Au 9.837828673425442 6.058199001745425 9.712878296304105
Au 12.68237427302352 9.575281567484604 8.870850721677154
Au 13.430907636389396 12.111482740988283 9.668292876991911
Au 9.850847808968942 9.86099784654591 10.192920042922566
Au 6.615218564369022 9.4969031476753 10.977891991785203
Au 11.89015181439981 7.736908340855569 10.769946977565693
Au 7.806080500851137 11.945452909715998 11.322449636481867
Au 12.37679813744209 10.381212401067712 11.559103092499498
Au 10.500957162931721 6.001313517314539 12.417867471733615
Au 9.656483401859834 13.908608884451466 11.52782552601286
Au 8.455411433642782 7.572970467466979 11.60330778261609
Au 12.275770536920762 13.104946214321322 11.991344807150654
Au 10.175136830807725 11.543119326781552 12.82727076083868
Au 8.059939888782138 9.850616706784301 13.295880406019696
Au 10.623781770514903 8.78832488186425 12.971931753481968
