35
Energy = -91.90281013 eV
Au 14.025283701369919 12.03353201035957 8.387876444496525
Au 12.292909440769524 12.229148006335759 6.303787445795752
Au 12.497463472103762 9.749066698028344 7.662536584132453
Au 10.719944869572835 10.149896219530506 5.5245403034338185
Au 14.02321739868598 9.685467219090857 10.006857018822886
Au 11.693457879659611 8.228808934572292 9.81912068842007
Au 15.696033209427549 11.79218215585045 10.522698593877685
Au 13.402236064997645 8.052993194024271 12.142327856584696
Au 11.727517221231826 13.800652457747944 8.479083074497835
Au 9.82094259017365 11.862983120394661 7.6183155273689875
Au 9.759784612230423 9.043990952223073 7.797799454906211
Au 11.531162000362801 11.290384965817955 9.936027552365053
Au 10.556898264858301 7.268600301281144 12.207285479682936
Au 14.504104704953052 10.531898447552706 12.686162541001742
Au 12.200050904542934 7.095306450436657 14.414045622056896
Au 15.230681907558619 13.20874736542993 12.826045614528818
Au 8.97754992542693 7.8066665638766795 10.045725854951971
Au 11.406786268693224 10.046487399611944 12.348784536193147
Au 13.684835048363729 13.7837564509877 10.51471444409256
Au 8.547656434757467 10.613418846636124 9.780461032514282
Au 12.882849694758809 9.71381940759872 14.771873344677138
Au 10.060518389904487 8.784311128675814 14.628537610666426
Au 9.308949000267452 13.327932946121994 9.875489234870077
Au 13.216597535324137 12.418703815723829 14.456892588141187
Au 8.503495445571732 9.31202146822405 12.237563031586301
Au 11.24413887696591 12.73373008383038 12.249871050031063
Au 11.320274712672017 15.242389398749506 10.757683048168722
Au 10.665014493618774 11.510073865136526 15.013608134498387
Au 8.065539677684264 10.634873595273504 14.559402542101092
Au 8.115929395951358 12.061784017812453 12.099078576448061
Au 13.149879793674474 14.95035128680464 12.996481680494277
Au 9.03481664260158 14.66612665630907 12.251237728291843
Au 11.0539648870486 14.222198438518213 14.710654497586424
Au 8.468809113729042 13.30749136177209 14.58616252777707
Au 10.87056438640708 16.507328099203928 13.194539643337315
