31
Energy = -80.04237163 eV
Au 10.067663929446237 14.743339077391198 11.416154739830946
Au 11.76319115529754 13.574413632222193 7.213121312422931
Au 10.469318224166765 11.952596231418857 15.130368969956532
Au 15.59312609394976 11.578476978847272 10.473268085070782
Au 12.051166167393838 10.79750897048005 7.339844149819433
Au 9.709263070551092 14.639402776597702 8.742850867910473
Au 11.524895175597507 12.396488937529307 12.450023797198908
Au 13.84549081414797 12.603844767343896 8.64431508506515
Au 14.7412674501983 14.201558686022542 10.729099726410194
Au 8.534229205670712 12.611643331957346 10.238528835822516
Au 9.447015982202764 12.096713303596388 7.60782789267326
Au 12.299435963778455 14.827265142197778 9.641701255663097
Au 13.626986498296851 9.913111983931342 9.474542436281741
Au 8.580329609101138 9.982626038590109 9.075121033763319
Au 10.602392483200735 14.508264764381622 14.124592131438234
Au 11.1363886688482 8.759581822858147 9.009574465819261
Au 11.198065078825719 11.671078166857878 9.854794844099432
Au 12.725024107364462 14.950054138831943 12.396604467381039
Au 12.819554270106416 7.700782706839351 11.01745587844315
Au 9.188908491316354 7.932119799133189 10.764496020428595
Au 8.688064087090474 12.789392083259168 12.968392121958585
Au 14.385352055451213 9.820344076406709 12.16731300296837
Au 8.182954044572439 10.582312080590269 14.508408384607124
Au 11.217205427602712 9.789686231161754 11.870350969690447
Au 14.307317563995523 12.535767180985157 12.849514634130088
Au 12.905817048931207 10.798354635405344 14.427218635643838
Au 8.054584639998605 10.33444894214118 11.76881846765715
Au 10.794877968491836 7.048434572193131 12.833590658034256
Au 10.645769494171601 9.202551005561027 14.731292212045387
Au 13.081481749048532 8.121836772587512 13.833794322957623
Au 8.362286952969491 8.11445113079682 13.426243390226876
