31
Energy = -79.49581033 eV
Au 13.618888090661331 9.504976374097414 12.561651818989123
Au 13.793557734644716 7.739490402266963 10.415686579135064
Au 10.467783765080773 6.710829371370176 12.099963324237807
Au 11.024782708865516 9.013520693260677 13.589543302845833
Au 14.121839705378006 12.10988290405509 12.078604082610141
Au 11.946399017251697 11.596588983038567 13.791721828416188
Au 14.063836992258166 10.458914305391408 9.851738542187867
Au 11.441689685693119 6.60498450104103 9.44549430893155
Au 11.455731416971952 9.11707472408752 10.749866405327959
Au 12.617352189916163 8.743544760080688 8.026845391205136
Au 8.403435271573043 8.298709443873642 12.977690874155622
Au 10.853219732182534 11.758988909869055 11.257117920324571
Au 12.254390003723929 14.091566273009931 12.201813912096348
Au 9.108626576374402 11.022722575643781 13.661120304686648
Au 8.73298988174634 6.929940427585972 9.998201927778428
Au 9.73125671131068 13.640680225385527 13.13654815803921
Au 6.691613210959461 10.521056110881343 12.487789005755673
Au 12.978151450325464 11.479979978202412 7.466063511665783
Au 10.5452951707043 10.817198937224534 8.738923319492155
Au 8.850360107004379 9.853805581518742 10.695779007915618
Au 6.447510579850656 8.282855789606698 10.938244060846213
Au 13.096620059281125 13.083259710936547 9.71952317584367
Au 9.825045297642145 8.03156922707385 7.658319026384392
Au 7.867166556274537 12.727059184461147 11.347905626681218
Au 7.159949559156173 8.440619410537733 8.313210148796284
Au 10.077143300323687 14.300938831977511 10.386012444605832
Au 10.96779867007048 10.070677960237072 6.1449901225965435
Au 6.631727392181686 10.94124647243252 9.453207279478308
Au 11.084686952589811 13.561116802720303 7.9411454416109395
Au 8.478980593983389 12.798075267552678 8.644261997143742
Au 8.331938683372016 10.472624044226931 6.99810227394189
