39
Energy = -103.61511534 eV
Au 13.817557097177367 13.845565118474129 15.688775678291353
Au 12.583480450648278 13.385301441023419 18.090804511730713
Au 14.163156640212417 11.378659844009382 17.048627217784645
Au 15.132064558674601 11.618447270276434 14.485066378257757
Au 14.749410406813645 14.14343953369581 13.150098931003038
Au 15.872767611071096 11.864152272442041 11.89786881150919
Au 12.386623459114888 15.459316079121129 13.949111149881153
Au 10.965900496080925 14.29463326507429 16.036323401793172
Au 15.495305858303292 14.352384073328965 10.531817717683632
Au 9.399424350516952 12.415340767697586 14.608238119007073
Au 13.178179507429816 9.659829098860456 15.154906745371266
Au 11.427701040599437 11.550657088289283 16.30853306437925
Au 13.234759306159695 15.72996592732513 11.329249439238191
Au 14.7437493995413 10.13350641638534 9.98805340345195
Au 14.478769333306728 9.529117212978433 12.690549752063562
Au 15.748539772241319 14.274532762115161 7.801022429821847
Au 12.377625349210204 12.369185076449954 13.683568184259034
Au 10.83386322061718 16.76607781550699 12.090951983823105
Au 9.539711715698404 15.094296765688263 13.838704723837175
Au 10.4734851494649 9.874759277843843 14.350104916792235
Au 12.229716953435162 7.888898201154711 13.327624992005674
Au 13.118043049767936 12.805427783174983 11.0016280671347
Au 8.439993941277585 15.705865732640357 11.260827811710552
Au 13.202905090212623 14.781853931519006 8.699255796714198
Au 13.110639702831158 8.077812324286139 10.641275526640044
Au 16.528511626223313 12.06725139128593 9.241728167190852
Au 11.87655256811834 10.42489084158214 11.713703205486082
Au 10.463748104296064 12.846346957005457 11.79294965368754
Au 10.763834402157748 15.208902043088894 9.809114695238891
Au 13.910883900333163 12.148715313643 8.192777590219219
Au 7.7557124262740444 13.391895194968932 12.529807628572074
Au 8.505459230612457 10.79475186554783 12.489416326993501
Au 12.18546762435628 10.124630711422185 8.763600173828198
Au 9.71437281917022 8.437780254056243 12.116733387297701
Au 11.169565508863263 6.218674935236581 11.366780499889817
Au 11.196254215724478 12.700882659581389 8.699363373631854
Au 10.503161296997998 8.128349189067823 9.48903674757535
Au 9.559228324323506 10.683365199265218 9.858077506818265
Au 8.655545023213842 13.305736449941858 9.780744972767437
