35
Energy = -88.45199102 eV
Au 16.43789238635246 13.267559472410474 8.662417916950808
Au 14.117711014469435 12.217586547935339 12.737122645006476
Au 5.5144544330066765 12.97883580683982 12.457904881547119
Au 11.48476230357758 8.339030395342752 11.057671750924639
Au 17.255645002023435 9.422532736165968 11.643323899565667
Au 12.719574806639262 14.90201110003048 15.47089768106236
Au 14.31129851824995 17.013928018911994 14.919451317864944
Au 14.823019432046552 14.746024482775008 13.53977677262849
Au 9.640975831388937 11.146983687606488 13.754697223621912
Au 12.13616772542759 12.171923072437876 14.828979525511532
Au 7.633577400017325 13.052989044303262 14.039544472047067
Au 12.47949361468931 15.174744586789863 10.159262680893319
Au 13.454232720139958 16.96364393005388 12.332106365324607
Au 10.030040733665196 10.651610060931072 11.00454741569889
Au 13.571984576137677 17.618029366544462 9.809791272521332
Au 14.7032659216313 15.363392984789039 8.442440839431937
Au 11.36093317233009 13.25523859902001 17.25215127483123
Au 13.740686422413892 12.770851985663576 8.942593307506492
Au 10.151296908562312 14.13445995127359 14.651934294585324
Au 14.589581804453863 9.475243737945375 12.154347565736447
Au 9.007318562433937 12.218180291991075 16.239122797778094
Au 13.38650835944399 11.446748388848844 17.227248684096914
Au 15.189733578216797 14.039983721240137 10.99937881450144
Au 15.781970368010185 9.772687654619448 16.75849694164608
Au 11.187743622191478 12.820555240547307 9.772974286344981
Au 14.92400677738814 10.54522655702757 19.141719184573574
Au 12.01145117723372 10.063251776039527 13.020146924158574
Au 14.043596656402695 10.210333746189775 14.813827866937281
Au 9.752790854259455 13.561956353865853 11.943064702414398
Au 15.652496553178537 11.163516920348878 10.247913787957774
Au 16.515462470187728 9.267645162154219 14.237966513098694
Au 12.840682143069783 10.557426328900068 10.22231243575332
Au 7.710244423731883 11.909110634415283 11.422588480264409
Au 12.161140856513782 14.412960608587616 12.736310154015658
Au 14.130816486694489 17.649658624948408 7.238145532588957
