30
Energy = -76.93100667 eV
Au 12.851273533870044 9.678434684616816 7.497071595872972
Au 10.355709012272978 8.627069227304547 7.9974371949639975
Au 10.754868559209916 11.49115414665524 7.370732157429326
Au 13.967653779477686 9.718527660894157 10.050605880326128
Au 13.108468423259664 12.164753484864391 8.614880738259949
Au 8.26089814804405 10.271076843959703 7.106070323741147
Au 12.545996163019911 7.4351365058779635 9.292699901650975
Au 9.950905746557295 6.844074344268413 10.137945980212466
Au 7.861479901096526 8.341737136223978 9.069369534118817
Au 9.265999146422317 10.862092490901041 9.731755106641792
Au 11.485973855531007 11.96438214207745 10.928529531044909
Au 14.716012980684328 12.217911171526174 10.88254521292915
Au 8.43024830878581 12.938653221872457 7.954699724761459
Au 10.79839934480745 13.94239958436791 8.904844360014309
Au 13.146900236884942 14.387169403194854 10.306981592853473
Au 6.605080283345569 11.920272209545116 9.801584372504418
Au 6.032815420414463 9.423614007917587 10.765500475095036
Au 13.237022695411023 7.825257338800058 11.948667091095139
Au 8.233804053170621 8.213290772224319 11.861650817094235
Au 8.542012346823906 13.59384013214417 10.761957130854379
Au 11.079718202279624 9.31197837718008 11.004167022081399
Au 10.555443300998437 7.134111812300669 12.850087676704883
Au 10.779947000983283 14.725313071797059 11.734764695987682
Au 12.88657799341576 13.29035188241224 12.939456769630217
Au 13.579324303271 10.517811022374563 12.71134991041292
Au 7.830283618744091 11.044823662248966 12.173264473559536
Au 9.85448060790065 12.5748658449393 13.17153349601282
Au 12.230715576708985 8.700053640810426 14.381738426282963
Au 9.768089660275965 9.811622102363117 13.67210271845459
Au 11.858929029859032 11.398824968289722 14.667015562791667
