36
Energy = -93.07645695 eV
Au 10.120664937190005 10.748610045956573 9.426599544663624
Au 15.285477784904028 12.027203116839127 9.277188680260842
Au 13.059691606584593 18.080299535899062 15.51001958582586
Au 17.14606229584914 13.196419803666476 11.071571804400554
Au 8.237856599650183 12.296827544340488 10.872599584383984
Au 11.077905842734735 13.207692400409439 15.46002707615033
Au 14.636968271354405 9.39932690476131 9.864997420564002
Au 15.51499042152091 14.921129541101388 12.447342236688153
Au 10.497494759088354 10.47068382888037 14.763884748041061
Au 15.274017001582127 12.258572893767225 12.97109804270195
Au 16.670324365162315 10.53651304075139 11.286273389688768
Au 8.166526204436838 14.580785486248336 12.167054181477914
Au 10.87328480626529 14.465708786333606 12.760435087551636
Au 7.785942106865552 9.715152465939548 10.348544059850202
Au 14.735182881489104 17.129918205727613 10.867857151108717
Au 12.037645289893478 9.338123049739291 10.830712507941545
Au 13.564905509935341 16.670585819650054 13.311952342473722
Au 12.755359386983947 11.071002090433442 8.765008385812811
Au 13.1510978812992 13.764420643866556 8.502228683070134
Au 11.929079646478323 11.313320244019666 17.12397333127511
Au 12.130378249308555 8.720895289298092 16.104456234607643
Au 12.052566380199675 8.482921560158356 13.474627481102
Au 11.554865955995965 15.952467823560173 15.05913910782485
Au 13.74016438438983 7.321706798713334 11.554586618703503
Au 8.899872128816655 12.364608424970424 13.705137569358003
Au 12.37206807551915 11.99418504225764 12.050558789594387
Au 9.015084383706117 14.981738026235142 14.775134032716878
Au 14.434226282406586 9.70811644083867 12.715678353731663
Au 12.153137908095493 9.218216656488622 18.72081740845299
Au 15.373629493657486 14.756072723563447 9.615464813384907
Au 13.433568072202819 13.948014358125203 14.074289663772527
Au 12.945854843095313 14.994455031755967 11.078853969179171
Au 13.231019284626422 11.223434395276639 14.671884301839857
Au 9.790059967865359 10.227544151132399 12.185290673392899
Au 10.774483009811716 13.456599104246468 10.229509142637301
Au 10.816378852767961 12.694563596781702 7.593038867503626
