38
Energy = -100.16850809 eV
Au 16.128930769272046 15.197779835142528 10.32474518393464
Au 14.725605339834816 13.287748515642154 8.878700853529429
Au 15.394813196556116 12.885807940915358 11.589668777650028
Au 14.445648694932931 10.722508877509412 9.954984750405712
Au 13.165027261644429 11.490830446576028 7.556108985284268
Au 15.069976505510178 15.433403041708932 12.883282737619908
Au 13.392159828047397 15.074255883914473 10.620017676625539
Au 14.569192716056005 10.59168211279652 12.739440797493671
Au 11.574109881574145 9.616391041052115 6.167612478917566
Au 12.9282311913991 8.871304293258213 8.470487333639824
Au 11.955910897952384 13.746993914604976 8.649049139419809
Au 12.539687960895924 12.447705857249773 11.646057084790888
Au 13.97007817892703 13.181365616568513 14.03994533249659
Au 13.532012398918335 8.345046574477825 11.11207569851133
Au 13.547750077074403 8.397552358960423 13.999592869936436
Au 9.698457324745412 9.236724452697333 8.03946717995595
Au 10.379131612603139 11.881965351729953 7.346600309012294
Au 12.285424346667664 15.248954351252475 13.18676228777073
Au 10.675542585058285 14.850833626538307 10.870537225365487
Au 11.60137601985162 9.836781016522245 12.649996243377185
Au 9.20364705920601 13.920650788066062 8.76253426856054
Au 11.290275578906721 10.66602934854529 9.951305980508897
Au 11.67922506690449 6.906285202637773 12.631301553012687
Au 11.236296020695816 13.124591646404326 14.679240696254187
Au 10.920761982735144 7.763272991747436 10.076268341127488
Au 9.9142547664675 11.828674894126285 12.01157997309007
Au 12.911180807941497 10.884013696515941 15.034009228257814
Au 8.354332280127773 11.424279559064939 9.346125869532209
Au 10.195045293912665 10.641561358956542 15.080367621042537
Au 9.568411148767764 14.897915548167456 13.362265391829371
Au 8.237833409117473 8.841427401939818 10.243970805430896
Au 9.630216445208873 8.206442947515413 14.008183450051282
Au 8.048710319451258 13.667093141186168 11.279790135166888
Au 8.265519864185444 12.660864055483998 14.073064111489739
Au 7.193336554189734 11.003786414044953 11.826993781116322
Au 9.052834254280555 6.7040372208027526 11.7902891404853
Au 7.61972431597316 10.06254275341958 14.398525882800083
Au 6.897413719039042 8.24898159688956 12.517136499138363
