36
Energy = -94.25189794 eV
Au 14.105342556491491 8.836461883659181 13.304784764199205
Au 15.012579171461987 9.19913957978678 10.698732775679765
Au 14.870371289830464 11.451365612376772 12.666760201126692
Au 12.775837137462759 7.551021275963168 10.875787425911133
Au 11.786032772302578 8.628619026244918 14.63555996732954
Au 14.495177773155172 11.643262359348872 9.604481619071043
Au 12.824407233511602 11.17913274503179 14.572780253388368
Au 14.948301061640903 13.80068167425594 11.30081347953474
Au 13.27635703538064 13.697291598793614 13.55259712920549
Au 12.555330556606021 10.302731500437396 11.489722152394105
Au 13.004218497747088 9.449580232681829 8.645967020531867
Au 11.003306620391623 6.718502785771464 12.830195064282508
Au 10.15169463652029 10.786174343695095 15.302710399243207
Au 12.17187834976677 12.957557590262557 11.001696896407683
Au 13.61936086235109 14.241160324555532 8.908601142682103
Au 9.137527457497079 8.339408575348903 14.160057304573723
Au 10.707342674665837 13.402378057551553 14.52126326396818
Au 12.797065762096908 15.616960353710885 11.387580924754031
Au 10.153181439955693 9.00830329232413 11.508715832138313
Au 10.278176873116061 14.802836835556926 12.138804486388551
Au 9.070098897466666 6.612589071387686 10.749242384372756
Au 12.017353334337667 14.658334629889946 6.771770390419625
Au 7.810129886770778 10.725902460969346 13.773827717333234
Au 12.522467609553448 11.959521093983309 7.622519958287935
Au 10.878015023876264 15.018928299121097 9.367568825572734
Au 10.376912039924088 11.264035260064471 9.846362259677251
Au 10.303404139083629 11.531041559083572 12.6008186865456
Au 10.825627606963662 7.802867248329169 8.90867018059169
Au 8.141907241445049 13.305717777988752 12.882594781887178
Au 7.3855578809950115 8.618566500803128 11.952924961323145
Au 9.964860222676803 13.053348514885014 7.6165211904571
Au 10.380127131403016 10.101563549109008 7.415746742235108
Au 8.291240816934332 8.94722170366444 9.286552088950268
Au 7.341839390998568 11.237715959978907 11.067727513063497
Au 8.607258663011542 13.603129536532272 10.144698042628635
Au 7.942217897240136 11.462120058982231 8.396007692072754
