34
Energy = -88.8941448 eV
Au 15.497145712223697 11.938665817911053 10.612356981178134
Au 14.239352187872754 11.554919409834365 13.38196683328652
Au 13.965557666850643 14.028903594497496 9.462343272188537
Au 14.052426541030156 13.998042458142402 12.167873312703772
Au 14.741440650493399 9.469025603143976 9.200527827245478
Au 15.10951828656773 9.458308071290617 11.891433843834525
Au 11.804809377619236 13.331639719533428 13.554531689112235
Au 12.386379595428076 11.202729534300932 15.342572960220314
Au 13.174420777359595 8.67688030162478 13.620293254809635
Au 11.590865209240253 13.770063665689555 8.132712212613864
Au 12.867084490796469 11.409938400529946 10.766301066986554
Au 13.728051544374292 11.714752301947104 8.050118182952254
Au 11.568394778322384 14.333963428608259 10.944332199243398
Au 11.332139382949954 10.572408627985988 12.752044372670147
Au 9.309754176955439 13.571205886084368 12.433721477738034
Au 9.729329918666501 11.851640158282892 14.702721524822433
Au 12.855277744980476 8.155633184521928 10.79364443097345
Au 10.7911781314984 8.966364761217323 15.071700459923393
Au 9.210036079325693 13.8329479276577 9.656068264081485
Au 10.68122048601065 11.355761803409873 9.268104378666063
Au 11.52406065088435 11.23896313574864 6.518449584195662
Au 12.21360555453681 9.089308357753595 8.221683864318928
Au 7.309522322887913 11.855015969194218 13.441998725844481
Au 10.75538986672662 7.749615906145639 12.519222644342616
Au 6.999222965849714 12.954832030678265 10.986101417237492
Au 9.132180734206276 10.600453971360903 11.286311901006156
Au 9.224651717252867 12.655831885754155 7.105961949616262
Au 8.426895865610572 9.39349809261937 13.77375464120283
Au 10.261976206936854 7.912806527206338 9.772440162860624
Au 9.537717372363081 9.517412449742638 7.496616313713457
Au 7.61323037746997 11.342734552425492 8.87115088616875
Au 6.488709545624355 10.088770649434235 11.351328721264922
Au 8.171515034220747 7.688710289520023 11.658168168401225
Au 7.598475688784416 8.641686764511562 9.18847756916298
