31
Energy = -79.79205202 eV
Au 12.451382657742021 8.811257094450621 10.047461976063245
Au 13.247578750542996 7.534429852110229 14.441585085387295
Au 10.43201379918978 10.87828323779001 9.851082549926728
Au 13.982277628826475 11.154656365346641 10.349212839347855
Au 13.818985131750154 9.333631703413442 12.387814119023146
Au 9.738119307793127 8.003817857349691 10.299603931573174
Au 10.949870336496936 8.401190407716769 7.791199568378357
Au 10.123496882772203 10.891059999112793 6.781230719096241
Au 11.482361812067623 9.614601642306107 14.44066213208951
Au 7.981372837593008 12.099165681908786 8.120278992275159
Au 10.460721906035333 13.38931075440539 8.22071311379557
Au 7.01559252155863 8.040699391476492 10.095466656854201
Au 8.37278364088704 9.330810104524401 8.160027589197869
Au 7.564477754954653 10.677572615780502 10.533139683283466
Au 12.121679364269239 12.63823088253787 6.1567321604665795
Au 8.833027637945325 13.220187610294435 10.469460600670624
Au 7.783595850736009 12.16725131720897 12.805235662220095
Au 11.522639960562405 14.062401901019268 10.663678729618546
Au 13.287193583245134 13.256929832573901 8.58935336006664
Au 12.705034415335474 10.579921744260876 7.9376004619362925
Au 9.88102052260855 14.019459931800267 12.872249552672152
Au 11.755853463558866 11.584132960932056 12.168939442048638
Au 11.454090518277878 7.671415592717841 12.36327456577849
Au 9.859656111062309 11.777525265047554 14.56465095805119
Au 9.509451752263265 9.87738716756695 12.466666955052496
Au 14.28522009575392 13.854177003915655 11.030446187237446
Au 12.68522351147447 14.192342900807168 13.257944934153425
Au 12.613621117938367 12.158290866322906 15.235758828401385
Au 10.876238664258858 14.231157053078054 15.407309233065147
Au 14.486156045343789 11.988312116948403 13.054439482957793
Au 14.272739737265102 10.047941924585196 15.026458006582313
