35
Energy = -89.15566403 eV
Au 13.35190900469889 14.49327189188508 10.286422019559987
Au 13.331202810173485 13.552412314852708 17.37081395854247
Au 12.089068663266252 11.526341287311787 15.948595651383245
Au 8.724385413901434 13.6425667631246 12.727415072390238
Au 12.766634116374377 10.863895131745636 10.326265145056114
Au 12.631759536893258 7.916104244095195 11.349786050956974
Au 13.471294105723862 12.618998411164368 8.169579623498997
Au 17.206112057158517 10.712747823475702 10.96351436690891
Au 11.407672376806541 14.406103060762666 8.413919902212001
Au 15.058096851225505 12.43656500005672 10.604365262665539
Au 9.06508460730607 13.603807779176913 7.379193719025079
Au 12.70112045379213 11.20397401425103 13.185079520428696
Au 9.027389627469256 13.81418602232926 10.036786073139144
Au 10.194608141805546 15.450796683665558 14.332590771288826
Au 14.897682893334913 6.825784041471054 12.207555527657924
Au 11.721512197834699 16.674975738337533 9.960584936194712
Au 12.814405013292369 14.787252944018354 14.977302462868181
Au 10.749699275504359 14.062142815512988 16.692701761616103
Au 10.791729865865108 9.24841629450168 12.933733930422047
Au 9.688308828924974 11.458414961241049 14.138747527474715
Au 14.143887015777958 13.733158468424165 12.822039948006683
Au 14.961944881212347 9.22214425510502 11.079477879040944
Au 12.325824597825479 15.783273555965062 12.518172149845755
Au 10.070746473783776 7.073567983203707 11.48911037008603
Au 14.56179137882654 12.419065823867507 15.223858201837295
Au 8.396056389537417 13.541296518916983 15.413633764169292
Au 15.514993257418384 11.201550677596307 13.064949380881941
Au 9.706088011974774 15.92264103819874 11.644444760019777
Au 9.519943919803497 11.549507826703644 16.964250953062812
Au 10.174331559820656 11.641235755138498 11.47131347328039
Au 10.557337980086244 9.294404981530509 9.992043064628552
Au 14.880601323144075 11.348099693869957 6.262258529443613
Au 10.560321387936336 9.31405556100427 15.687109573175812
Au 10.660842959570218 11.734804879762983 8.723382286677644
Au 15.356552725799094 10.50414313026111 8.691896315172325
