34
Energy = -88.79419611 eV
Au 13.943729404713256 7.08533732248758 13.816533287892744
Au 14.069522754000523 9.836212877133645 13.585817713176901
Au 12.14366309039644 8.67327274934857 15.193801848396745
Au 13.733957354116935 8.155488185471913 11.285891790865826
Au 11.39176176270359 7.438850891263294 12.796020484241756
Au 14.41936152093892 10.868268771134991 11.035555061247736
Au 13.772043893582575 12.501342961611895 13.187296441235997
Au 11.693193937015888 11.353590741472841 14.812576143276123
Au 13.21579933541917 9.49258423731877 8.955693936103689
Au 11.617181870338285 10.255464272502284 12.058760223208877
Au 12.386705861557767 14.006607197625323 14.982046343405726
Au 9.729328990218363 9.469485994480744 14.180262804284316
Au 11.203980292708332 7.923000330852224 10.067091291419464
Au 14.298904773637904 11.998335644602179 8.503450038436958
Au 14.525274438791664 13.608946893402065 10.742314845818827
Au 8.993078791622217 8.159481150659682 11.72661414969021
Au 11.700167982662947 12.653453800588709 10.749479033966916
Au 8.679489257611337 8.340193109617179 8.969516195102255
Au 9.77998926599887 10.81354113828134 10.100521064010637
Au 10.341896223702932 13.296264429831522 13.267627215446584
Au 12.524192971863462 14.932784348858506 12.414883808623415
Au 13.493183710459153 16.024307367807843 10.047543461555907
Au 8.436660428965629 11.467355335594096 12.673634286455478
Au 7.111645022280018 9.186355986866559 13.441444060907028
Au 12.49215288840905 14.115158505063608 8.387547918399767
Au 6.583340614009853 9.797128570968766 8.045531355414168
Au 11.667104141168794 11.546749644704917 7.818229018477294
Au 10.932283183700525 8.920925413526136 7.500741601887987
Au 8.72588714337888 13.686003437257366 11.0833815488748
Au 10.755766522102856 15.339698445504055 10.289224845061186
Au 7.003720852950201 9.898845836031724 10.786152526560118
Au 8.994512375007448 10.908428028939982 7.329419740108806
Au 9.733372610474019 13.464462158379728 8.443599556768898
Au 7.3599896017068795 12.212063890580119 9.24865923497779
