34
Energy = -86.21218912 eV
Au 13.85226502177983 17.076233787004647 13.48832924025044
Au 14.207085152391757 11.345714961691382 8.9366249069699
Au 9.48770403000403 11.96064202762614 14.979685920727542
Au 14.197765746198197 12.609324383477846 12.68241505286343
Au 10.257121689374195 13.984760044392797 10.527275036045014
Au 12.61008119520102 9.485050670805371 10.159579573831984
Au 9.623861876361051 16.288147851892923 11.907710130783922
Au 12.240660441834674 15.453769788313469 11.868602209663617
Au 16.063512063233816 12.947779074261105 10.590084998988651
Au 15.21450089724706 13.723756618370782 8.174791408310377
Au 11.23273913433049 11.746125362043465 9.27844982877001
Au 15.201458312031855 12.612930526949764 15.315066917455317
Au 12.348000827929843 9.956754540737467 7.520046389050526
Au 17.720767875310003 11.847588401090949 15.504686459947585
Au 7.147153850880155 10.318872958811882 11.125047929145616
Au 14.363359624291986 7.849191650667066 11.453892655454554
Au 11.559920613937331 7.8828111051881224 12.073872944777397
Au 8.55816978530615 12.144199379825348 9.575387650225633
Au 9.840981725426468 9.942885697074265 11.206854657723294
Au 13.503907970487411 14.637011063027071 14.711791224320566
Au 13.349199286339172 9.956974526397543 12.930662098217327
Au 11.0430832316316 14.061209008627332 15.832646198226202
Au 15.54828818819132 10.311378981643482 11.305986535690963
Au 16.914305771844674 12.142136880557691 13.013191136005021
Au 6.233745182416666 11.125001933931513 8.7953105178239
Au 13.212501953882116 13.625878414425838 10.156770575793962
Au 9.077168319013099 9.465819217882764 16.001137750523984
Au 12.527138746457165 11.94090283371324 14.832911700848626
Au 11.53377041419574 12.0356337973461 12.116069292533547
Au 14.993708735140833 15.144126367948598 11.967759289361117
Au 11.299649465910713 16.35801650995996 14.30762421412404
Au 9.816626202213932 14.021227216298007 13.342569209151895
Au 8.136461844845353 9.878635932085277 13.50340500582081
Au 10.875707915415445 9.814926872015873 13.969546626735879
