32
Energy = -81.77970625 eV
Au 13.598639799684785 8.581952529492401 10.049432196533308
Au 13.226801795522377 8.999544857717611 12.707961816750455
Au 14.776467836501098 10.828340188925711 11.291115835361502
Au 13.76902982701775 10.994387604177856 8.707117341613179
Au 9.259249583065689 5.618498707441771 9.839879184253354
Au 12.468724905706088 11.331506226038776 6.322287484154101
Au 14.773670066464764 10.932731026200772 14.021265010105676
Au 11.393921957468036 9.573016307359492 8.077226481010486
Au 13.266123430263937 13.013960579749128 10.494774743183571
Au 11.077649611195287 9.474504622514011 10.871228567091658
Au 14.84587058201807 13.276663891451774 12.696779557427368
Au 12.433242969602874 9.892443955764577 15.209463748704701
Au 10.62334080075888 8.691072516341235 13.586931676120683
Au 9.035587232779564 7.608905929352085 11.613367379024233
Au 14.070245188171523 11.599230468705471 16.547716322723236
Au 9.017241047294984 8.116202542401027 8.711401888042902
Au 11.493828092001877 7.085884948616241 9.299953944177224
Au 11.320095219397581 12.449886031709081 8.52214363043185
Au 7.030924740498621 9.25578659229898 10.274304073617854
Au 12.731776739218757 12.945253334270378 14.601172247479585
Au 12.623421785698241 14.834525419826887 12.46352858830009
Au 10.388053334707424 11.396924515403903 14.08360813139245
Au 9.047383923033605 10.793779700028711 9.064328648212115
Au 8.5766334704754 10.201877495359547 12.400692550476089
Au 11.202403017499721 14.839587888878366 10.051071676493613
Au 10.50686182785454 12.159849849729309 11.313399660749495
Au 10.298067032797423 14.861755877888774 7.479846244089442
Au 10.377468408907875 14.022091641508563 13.793956358119818
Au 10.11802684534437 16.186139183234445 12.161365482202692
Au 7.140493138101568 11.946745029594169 10.78797747343498
Au 8.753042586677356 13.544209671806598 9.214310979554089
Au 8.384162012530561 14.059069080320013 11.900815888406068
