38
Energy = -100.93206522 eV
Au 7.83523100053685 12.984443127060018 15.876099685650555
Au 10.408670192406326 14.01433138506896 15.288618048584352
Au 8.396529161280045 13.817279594602637 13.334010207582262
Au 10.756284584508732 15.337490462741398 12.84018936709516
Au 8.91365783456918 14.757826645706794 10.876581631531142
Au 10.061857413292465 11.312651385755785 15.790709154069868
Au 12.89542948692704 14.965112329152086 14.550811488194883
Au 8.025768672376289 11.062968325546128 13.899351620616871
Au 9.419835326744394 15.605851162392984 8.361376032398805
Au 11.467474697162274 15.658202514364595 10.159852510829579
Au 8.09099414634856 12.095083787508411 11.12425488727081
Au 12.901119389439609 13.107966979162384 12.326586835936897
Au 12.665235575997148 12.364876078031049 15.523869629184219
Au 13.470810201972126 15.82102894076938 11.988467222526218
Au 8.324733482883554 9.414706119646436 11.758911740377178
Au 11.535977729028039 12.19753167510872 10.141109144512773
Au 9.09050016345464 12.89468200204787 8.668631513809746
Au 12.173291029638985 9.657146999527018 15.562586203594323
Au 10.184556982588292 9.176723864805775 13.776548195105413
Au 10.502462283268754 11.85039926132597 12.704557422659148
Au 15.621236189149712 14.081155245718568 11.661675424742235
Au 15.00949574006971 13.178688477175893 14.197863523048087
Au 14.42030305669771 10.48407645448726 14.325774046820554
Au 11.661939411570776 13.969073098877052 7.853484679872309
Au 12.75364627235913 10.371747820179435 11.912890324766009
Au 13.820681702010326 14.329324640494715 9.541970986062053
Au 9.435263654609503 10.220258091493243 9.415726125568453
Au 12.693613324798932 7.973306381374895 13.471164996612442
Au 11.004788087907958 11.299245784658309 7.3880574314408625
Au 13.594965997554379 11.831629752882328 8.126995360623466
Au 15.856317093652528 12.410526558030407 9.50247476275374
Au 10.76607353452704 8.368994977630532 11.140748208497993
Au 15.835497632248126 11.376317148001007 12.115415823157203
Au 14.777509588346716 9.95011511435673 9.865981741643814
Au 12.184554600244605 9.41918697295921 9.002658638942872
Au 15.321918139899843 8.722809483137024 12.393910385331791
Au 14.562652818795826 6.12796658496434 12.662154194209352
Au 13.388855849931144 7.619006822052508 10.697662853174224
