37
Energy = -96.99700203 eV
Au 16.119513126141964 14.151777926233354 13.727205128595243
Au 16.31262531092782 11.547907584429641 14.815222827854246
Au 14.208014607612432 13.172174252843455 15.514859108178596
Au 13.706654578179117 15.216170605860007 12.903499675436418
Au 12.02096275687292 14.680399244760585 15.108274763072826
Au 16.893105689857578 11.93353071886346 12.157039063311773
Au 14.022335746579436 10.0716019055441 14.853587170219038
Au 15.398963362703052 14.035960002333601 11.009212613568558
Au 11.127919151059002 15.786908378536515 12.103835107466894
Au 11.877132587547528 11.819058494039714 15.743190598055829
Au 14.09020956905912 12.155885159547966 12.915230997934362
Au 9.738141527356452 16.00070957997881 14.482527981367646
Au 15.231815751415917 9.620158750566546 12.3661494543927
Au 9.536161116639121 13.28930115869586 15.071899658797143
Au 11.597155129265902 9.044764137212947 15.25581999959196
Au 12.832028088312969 14.915832872407812 10.17113456738597
Au 11.551840081437204 13.04105878928968 12.849310112496585
Au 15.612036647205134 11.151859921331717 9.966521224591986
Au 12.885283132372912 11.940114562957751 10.506957013883094
Au 8.846708584691388 14.202506177359533 12.510125532297511
Au 9.407198668409801 10.61150746967072 15.518396287103307
Au 12.665211392696747 8.637041746115198 12.75000429763506
Au 13.55413888221486 9.146475644195936 10.158812359393464
Au 8.284491545012727 11.549836001072784 13.224790011602147
Au 10.188378738794428 14.032069109534891 10.066713263016684
Au 13.956673304672687 10.84422852736249 7.826986580464468
Au 10.405746201142286 11.19504651813078 11.254961041058625
Au 14.479953522894474 13.44700609403857 8.533892660178235
Au 9.835869321300502 9.093087120472722 13.167241354528132
Au 11.809462833247032 12.91028462093587 8.085599150895195
Au 11.478170307260335 10.079989890992572 8.482960698690174
Au 10.88328267706131 8.439618101486426 10.651373037793851
Au 7.756466917884181 12.567128038668864 10.649921530372467
Au 8.070524266935665 9.681869860540656 11.15723913059105
Au 9.324132680979442 11.85457549791799 8.45539317830182
Au 8.997730866851605 9.016123067417404 8.63689988239132
Au 6.796161432560784 10.686390799513779 8.894859131707813
