36
Energy = -95.41549104 eV
Au 12.610998524455724 9.13526599185356 9.066461380360522
Au 12.278475987982704 7.824217697888155 11.56090689117999
Au 12.38760947632795 10.793881453789814 12.896477091509015
Au 12.498968273003635 11.606337668709555 7.897550001096086
Au 14.839097453888474 8.388757581111458 10.553910570739502
Au 14.814661255952252 10.798548349303946 9.346131876905552
Au 13.546447192218213 12.67383899424679 16.16523788696158
Au 15.299320706743016 13.202898621791176 10.901343490853524
Au 10.302258936432848 7.792291378294766 9.709447883842788
Au 14.83737400553768 13.182655399968958 8.136854234710382
Au 9.72665605860831 8.603909268527106 12.32708519498691
Au 9.726676906266823 10.494483806707363 14.354385768054971
Au 12.351035397311776 14.365144369535226 7.755674874264186
Au 10.919613515152971 12.93319231962362 15.083969389832802
Au 14.195526029290914 15.42159958873409 9.570638261174993
Au 10.15575468605216 13.128041130196566 8.614267279221721
Au 10.133450315982445 10.35153361866931 8.612885043338009
Au 12.60495441604247 12.442755132182631 10.780691822821549
Au 7.939745788056855 11.856110999573648 9.514957208255357
Au 7.992208978693449 9.131169468247231 10.056947856870794
Au 5.6963017621711725 10.57241745974795 10.544656718191444
Au 13.46839382227289 15.119864614554835 12.126450505352377
Au 11.406424318094388 15.108059210472874 10.249562751850007
Au 14.394348668125078 8.308256912960816 13.243819451735952
Au 8.958727596111718 14.08842696731662 10.96213917593742
Au 15.256292059879414 10.716332034185918 12.113267985247756
Au 10.195329161379776 11.376340263424803 11.362084822744315
Au 6.5925153598500685 12.892617664785043 11.767353505713896
Au 7.695646239390398 10.46319782913719 12.517217810823356
Au 14.566553151082688 12.958227972701794 13.552528373714756
Au 10.798528122709738 14.734856833934916 12.937723848666199
Au 11.858647771298331 10.506817995490731 16.038743756586584
Au 8.698905321239975 12.97201739317523 13.527962033874108
Au 11.78939177544351 8.422996590990376 14.25298207965017
Au 14.425613363511713 10.450682696939328 14.862356218050426
Au 12.89289570066544 14.872571338529761 14.745844461947197
