36
Energy = -94.60793758 eV
Au 14.652814792872409 9.85227107789284 10.922068108113923
Au 15.536555618049537 11.697364092721934 12.769957221613625
Au 15.542649828284818 12.469339701274288 10.063166039952586
Au 14.180866631298535 9.42810209988614 13.646071792170188
Au 13.903758026346454 10.971615854092358 8.400243735344716
Au 13.1539600059058 8.46568557789902 9.1447157395264
Au 12.89023245881631 12.23585331329877 10.790577168307884
Au 12.845533209519312 7.815048620095577 11.835373055372544
Au 12.050994715717513 12.952924471961058 7.967928220985949
Au 11.277553833599674 10.341668925851598 7.776437674567203
Au 13.913573457005484 11.789774756242172 15.092151962595075
Au 14.815204773634322 14.332029156420989 12.006985662708953
Au 13.583309049105004 14.633525954351446 9.536223161364436
Au 15.658095824968651 13.825596760121533 14.558569882391604
Au 11.93018778694259 9.898072712327584 15.251489222383098
Au 12.086161362322892 5.965729481410467 9.880003782732434
Au 10.763318431938979 7.646183329989036 8.126308316962003
Au 11.103404582569004 13.044726121237927 12.754896939097817
Au 12.300496833390572 15.494034862612182 11.85099862054786
Au 10.512172163932792 8.24196038426156 13.547845951329663
Au 12.998681142760272 14.365140525523806 14.268630389675126
Au 9.309779802315322 12.447041597136078 8.226334307317828
Au 10.175893762498054 7.656350623422479 10.883318098965551
Au 11.276618545039298 12.599555904874466 15.573246924339873
Au 9.00857441763093 9.473578843693979 9.082349079346496
Au 8.562730643129274 9.574111588797443 11.941796998988572
Au 10.195995529665748 11.57941579052827 10.61864222853809
Au 10.757790558836088 14.70406184467281 9.639746937284439
Au 11.813714942159178 10.373160096209675 12.412956549000262
Au 7.313072224539966 11.349104231110536 10.047275701149294
Au 9.664120158166467 15.389427772263051 12.281619024781982
Au 8.965628577768127 13.578095375812463 14.507337197954234
Au 7.064488559473399 14.697464327717785 12.819609318140191
Au 8.25742763925913 13.895864928594198 10.416696600914143
Au 7.6040075120897415 12.015628899622584 12.674231909349183
Au 9.450928921902124 10.782308743546842 14.35171210773828
