35
Energy = -91.54237276 eV
Au 16.24511862149375 11.583373931221177 11.363418060660083
Au 13.31560496851525 8.215391733785818 12.139598434879503
Au 15.688692222875941 8.961716731834473 11.017128925121398
Au 14.68869394414636 13.119697099859541 9.52572691832986
Au 10.71971071128031 7.8633227638917775 13.017708289105114
Au 16.22264264348501 14.311595253555454 11.440497468284867
Au 15.453607044152003 10.596128823832066 8.827423588501743
Au 11.381802346025761 7.329068541027938 10.391832984662258
Au 14.971829795136717 10.096994817141153 13.42828806405251
Au 13.453937024515447 8.77422249833647 9.353429398430984
Au 12.675222783779661 9.216495452555234 14.623994091425855
Au 14.87320339767058 12.851236852889656 13.413706653077396
Au 13.465570889515595 14.591177008909492 11.685905614986874
Au 12.886853075570514 11.324085177229916 8.270622301803146
Au 12.549637600322633 11.37114506986823 12.79189051066722
Au 12.29739398138017 13.981810641942849 8.742614362103705
Au 8.867423685774567 8.291643884895029 10.835249939044203
Au 10.855344346009904 9.494324159242204 8.759741131971579
Au 12.493942699238227 13.800165892471124 14.27193409473965
Au 10.246383366109672 12.134406327931176 8.272839830507014
Au 9.667073847346474 14.820894017653762 8.498860021000922
Au 10.067878402978115 9.080188827640907 15.429688418085211
Au 11.409835279359761 15.896583766451899 10.47412266870228
Au 11.069274070492753 13.12638831907362 11.284804195745126
Au 11.387684641445441 11.519000520638777 15.471119469462838
Au 8.281372272143049 10.405850439970761 9.20798430369989
Au 10.424956201504985 10.514376733913641 11.417573984177409
Au 9.851881256691373 13.764782860508136 15.12659077268778
Au 8.162478102323762 8.822032711082082 13.440135563375309
Au 8.80997334458259 11.324042135966677 14.375616146681434
Au 8.731568091948231 15.551623716641258 11.010039686364392
Au 8.212794139064341 13.00310192108631 10.047572558941276
Au 7.607052640446665 10.985593875613638 11.857296242958745
Au 10.602658163512459 15.389593383408997 13.064909113189664
Au 8.362908989201763 13.521230726612924 12.789316614271977
