35
Energy = -89.93823515 eV
Au 12.375807859606997 16.386332749541868 11.001288673161813
Au 14.110777991106016 9.332254958726168 8.766209077780172
Au 9.170960387365787 7.878952825244 9.706682386915242
Au 10.988521104394984 15.453196385272518 13.331609357953582
Au 11.99980281769381 11.385857326572271 11.321633966485818
Au 11.792999405231322 8.532584464755777 9.938875258796784
Au 8.176435257662732 15.530143963326651 8.997189890186213
Au 12.345518622058965 7.528839893481038 12.60347646859527
Au 9.962858909936497 10.459964659923042 9.408960582882726
Au 16.271604036798013 10.433884882136224 10.064092675503957
Au 8.913119107342219 13.39649342521741 14.037160880526667
Au 16.634937845133766 11.616007848967616 15.298670194376676
Au 9.67451424633732 16.304015681987774 11.083223292812576
Au 16.533580496090302 10.89996866208128 12.713105213095742
Au 12.290282022274846 10.118413991746914 13.785787375936788
Au 9.173305401015831 13.04311658859875 9.334816440894057
Au 11.754622266482986 12.38454930992986 8.668559244495995
Au 6.29940023048037 14.221027927478065 13.74779788768095
Au 9.946974576229772 9.074342704001754 12.037389724181708
Au 7.639876638085887 14.125997699718454 11.367587312056274
Au 10.315583945267008 8.137203070457744 14.578379288880383
Au 9.634835408533284 10.785965535807646 14.294161982219606
Au 14.4720933985879 12.005135766532531 8.514413608966278
Au 8.315061555463737 16.007060335851666 13.42502976776002
Au 14.005145442125736 7.111026707229756 10.470282901406478
Au 14.768977830758995 12.449165603991826 11.242207088178892
Au 14.865595165444425 9.668228282664321 14.753621126265074
Au 11.567981028425368 12.841888680975426 13.950553077276238
Au 9.13081934142174 11.786343476265671 11.760496984063721
Au 14.218342853844229 9.558395063520503 11.7765201936214
Au 10.980087010244032 15.110438266407083 8.887607667266119
Au 13.401331110473452 14.42029981581961 12.561217047562353
Au 12.969787835245464 7.8686680819632135 15.3048192120007
Au 13.484517999430063 14.287653891851065 9.681656231791859
Au 14.276901168969953 12.319541787518215 14.047878233985521
