37
Energy = -97.34600519 eV
Au 10.708112159506648 9.299423095971207 7.235101058155863
Au 13.244363482320303 13.200236064806042 8.286109615468284
Au 13.012728646305424 10.412940720338115 8.320506347968774
Au 10.779639002117147 12.002000407636801 7.812448350556548
Au 15.62775855511546 14.401586230326602 8.651507694949398
Au 11.87897726053413 8.225360567676239 9.446433734227785
Au 8.585795199572509 10.407905969990852 8.48146001335646
Au 15.2142993729508 11.624565930523119 9.452817810982909
Au 10.990175143878238 14.258647516989036 9.330893141833155
Au 14.014653773411005 9.471751151476314 10.732394528909834
Au 10.103735359960789 11.499573966985439 10.721187860908135
Au 8.48992486373479 13.190865482145382 8.930763611465645
Au 10.030807755960215 6.738556181362921 10.781876817627996
Au 16.73511804395896 13.428601983471419 10.932542931917952
Au 14.220533494558799 14.711239276170138 11.032852609392807
Au 12.38373048633811 7.703017849974637 12.051684384595328
Au 8.582890589595701 8.982051421346515 10.84711145305176
Au 7.281019094263019 11.387417564620261 10.782626780574615
Au 15.396686863090512 11.359327240418782 12.209396172263375
Au 7.698975559803931 13.225125719661628 12.941468109929408
Au 12.651804425679007 12.360748897575094 11.043443979648833
Au 6.464881729642572 13.996310214366734 10.594251243031573
Au 14.025910227081662 9.4197044341021 13.534328656986869
Au 9.842117440437587 8.115008160652003 13.181659459028616
Au 11.688019668036851 15.461761184470573 11.604347026399047
Au 11.550087868651154 10.66359055813516 12.843568264138693
Au 10.259323818673257 14.224982823860389 13.628212976559198
Au 12.072458012101855 7.855840199764508 14.782671472458478
Au 15.783783696367339 13.913371705248725 13.411687844426881
Au 9.047362801420288 14.90126330571971 11.194176526478358
Au 8.47827595795112 10.529662686598645 13.164044651672688
Au 14.363850052734033 11.98676201193116 14.718228605949921
Au 8.925241765978681 12.349020831479269 15.197189276265865
Au 13.058840923749221 14.17675801674505 13.580164829236233
Au 12.898794868998491 10.146043019465463 16.047761911543784
Au 11.66263491039907 12.504222275828807 15.267733758706399
Au 10.227712849110528 9.948541577131158 15.28126626319932
