30
Energy = -77.33756712 eV
Au 12.273928504002564 13.053508954098508 8.089847482561844
Au 10.901620229498324 15.464877292191106 8.589288948519167
Au 10.681865587513329 10.790655506364553 7.813924497804296
Au 11.687012193852588 8.41320508341043 8.665651157344845
Au 7.960637839747569 10.997386899783299 7.733519511014101
Au 9.431656747936561 13.235068682901451 7.998622933747344
Au 13.24288695889235 10.606872186194927 9.044115836923666
Au 11.525234577594635 13.778199610906976 10.634214599851092
Au 9.001826907702 8.439609229073952 7.89875599671806
Au 10.813893283796704 10.922576920984932 10.676706501759543
Au 12.22394867187096 5.999132378066667 10.03357451409934
Au 9.837350462154593 7.339781042834991 10.396041415873931
Au 5.8230657502744325 10.36213650709581 9.290611505122072
Au 13.843707794958227 8.225961314805653 10.337775303111664
Au 7.3919812387288655 12.48224860923872 10.028635545554996
Au 14.294133997659422 12.903882523165207 10.03777095087476
Au 8.178058789275505 9.525058887630294 10.316270128903822
Au 8.904771633146803 14.77137318830414 10.28657151601681
Au 11.879476227695402 7.323113947893385 12.361988216696114
Au 14.876188940626898 10.55939086880594 11.373964650571876
Au 10.223764340604916 12.742927116658732 12.790116623068768
Au 7.63711718521295 13.839981160367394 12.45374423186719
Au 14.309060091314073 8.369731882795715 13.028711997528216
Au 12.949210639574085 12.293567677995904 12.4002250117765
Au 9.723554314538388 9.029732265493926 12.590533765933069
Au 11.929258838291078 9.256470772476623 14.23127808633924
Au 7.90449453355711 11.147219558418826 12.473772611698688
Au 14.393692989458481 10.820588973169606 14.180476895767862
Au 12.019355097009813 11.887551090978805 14.968196972395495
Au 9.533297179747928 10.814241414130713 14.671144136792678
