36
Energy = -94.32465547 eV
Au 9.05818518133206 6.419975692885089 12.826745982664107
Au 8.24694188156201 8.86261438976122 11.845218873865159
Au 8.619522262766582 8.37896636298861 14.705823618545066
Au 10.533385442446065 7.466002670976918 10.766605302158903
Au 11.211230704043123 7.949950058623507 13.521017771242935
Au 9.436415104285588 9.667662430189893 9.42942453579326
Au 8.03623293843377 11.471404763915148 11.033147481349541
Au 8.244052796294813 10.936364223999702 13.807530031648602
Au 12.020643879436443 8.53582203066412 8.808719571320712
Au 10.629389965689466 10.41135418699141 12.15354657253545
Au 10.63769316432005 10.186872541504087 15.20829886051727
Au 13.014086459576939 8.709822660474407 11.462203518262317
Au 10.948143764504337 10.633681376429353 7.308118233971902
Au 13.448499856661236 9.686767042627434 6.726314261021874
Au 9.080016205530065 12.276689332727845 8.503421501446711
Au 8.00540842620525 13.550354642193392 12.915613645566738
Au 13.203715676199582 9.67864024581585 14.070872692523615
Au 8.065931310285237 14.134005662741416 10.279227760341007
Au 14.211186928586809 10.170540551397787 9.414001100419998
Au 11.530898073521437 11.732194613290785 9.946362842001935
Au 9.62555176811876 15.040739402950917 8.322997203217641
Au 15.241213503124852 11.320138383720748 14.693689663041017
Au 13.379422400653734 12.252935839400367 7.722898182203173
Au 12.608279826512424 12.06779673677656 15.50328026649599
Au 10.252484525402895 12.812048146400095 14.24098223376978
Au 11.033290089141147 13.339158281886101 6.7421231919463
Au 14.899192054961514 10.69123069328914 12.000770642295683
Au 12.5379529969535 12.321225480260344 12.435020115705058
Au 10.538984304466853 14.162805750360674 11.629219563092851
Au 14.38599697323067 12.906641630212194 10.185854223621524
Au 12.185264278691873 14.39176387990485 9.112255353531161
Au 14.705212330703043 13.852284677113863 15.540034667487571
Au 12.29058299891389 14.60603843622325 14.167622372325818
Au 15.257914254567929 13.34818486281364 12.737668712624451
Au 13.159465561730583 15.128296819021546 11.526407286254393
Au 14.705938883236424 15.852656520997787 13.666107032639893
