39
Energy = -102.30475859 eV
Au 14.07193443654763 8.625312022323559 8.445159026723704
Au 12.08100771793044 9.417726753648681 6.749230235637943
Au 16.103609006722987 7.836654608528068 10.241933286523402
Au 13.492753523222174 8.03469492276002 11.119379892934992
Au 9.506922839648608 10.055065985742454 7.6494631573443455
Au 11.381197802975183 8.704687772688091 9.334355118941327
Au 15.291340171700218 10.46491722818758 10.21245680322955
Au 13.168307597115769 11.302425545999604 8.382958888063918
Au 15.562785332810128 9.158168055221727 12.678669959968714
Au 12.165168313387175 13.848517138842778 8.652068254565636
Au 15.147932173642456 11.965116379911418 12.561214987695886
Au 12.997033840013255 8.873500493080511 13.802155820522037
Au 10.938359189047336 8.309867235266921 12.041838595088436
Au 8.483898265971014 12.665216254243866 8.102788748714312
Au 8.87496514748005 9.415268199310493 10.292043394250362
Au 14.450419544511892 13.029310970575306 10.118951609857925
Au 14.87977872654612 10.54674093611213 14.942093394635533
Au 12.579700816905733 10.71549313666626 11.277656078208908
Au 10.552360900431722 11.733907505025735 9.560700720449766
Au 11.520723477322685 13.250089761570221 11.633892729502962
Au 9.784012117279227 11.155804356154494 12.387418190362334
Au 13.852328968586797 15.664540771502585 9.948711070862814
Au 8.41830572696093 8.603877072620548 12.97785033034652
Au 14.013486711431353 14.585462040678266 12.447708574201426
Au 12.091371441038373 11.663476596530016 13.869006292472251
Au 6.998763396600225 10.716697284085894 11.925984218440806
Au 10.434560017905794 9.421724030191136 14.703618887818457
Au 14.234713280757962 13.265564657789788 14.842557627046551
Au 7.922894017149175 12.98409292933506 10.715697757611316
Au 12.474277524142916 10.381273257676003 16.321407415622517
Au 9.68156327326425 14.774477655819481 9.659825433916813
Au 11.5253686349318 16.622638368612837 8.853589208977658
Au 9.228689203774259 14.813974919614223 12.511249352817664
Au 11.545404574372256 16.015523378429915 11.567023550880364
Au 7.258539879949489 13.099092861168028 13.351551579731838
Au 7.964616104734836 10.770956592765486 14.718296842779246
Au 11.683027074991536 14.777302103484192 14.045037196910654
Au 9.561537574823156 13.041768073429138 14.813540554614448
Au 11.855820476491779 13.132069586139274 16.243730170533176
