34
Energy = -88.53822297 eV
Au 13.772020499325167 11.906733290906214 6.296285836430857
Au 11.444847292583805 10.493876287351176 7.088204659752421
Au 11.553291650491506 13.305178948015852 7.047570361299364
Au 11.025440330920192 14.513873122977941 9.401974885026165
Au 9.227010996853267 12.38600104814084 8.059768529824431
Au 13.973706531553567 10.371925971885275 8.499664158519977
Au 8.548477267681607 13.591509973828963 10.549750836210768
Au 9.274781997254392 9.54255751726039 8.33255582935982
Au 13.754749262288186 13.21704596023211 8.839585334417142
Au 13.138377586500292 14.147325128626187 11.281607069582467
Au 11.516493438661055 11.673589620903433 9.693478244064787
Au 7.088332645326091 11.447224878386345 9.464517642703834
Au 10.271844715204592 15.359274991120719 11.868201675484153
Au 11.844103110678615 8.504230161819404 9.055875092242925
Au 9.291026835889818 10.66511949764126 10.988449101821983
Au 7.14309316443279 8.66589217656268 9.783318248852954
Au 14.402520388756113 11.617180425232714 11.072113481359809
Au 6.995207666195982 11.884921016471178 12.220023949570507
Au 9.582562239389798 7.817644385397124 10.687583978879626
Au 10.873501994419307 12.633214163874117 12.23095743147287
Au 14.26815607132181 8.799855356273937 10.604491209966003
Au 8.585903648993773 13.779878311558434 13.455640888220264
Au 11.83296230482975 10.046930698445548 11.88872434276078
Au 12.269146341639855 14.862870429511204 13.766753849989417
Au 7.548405370036282 9.148814837888203 12.523066731361407
Au 12.045968803658996 7.226253509388049 11.561378125397672
Au 13.39809545433189 12.36603581986966 13.638773535410628
Au 8.97856400126355 10.989027499527655 14.06290853273547
Au 9.989408507099144 8.374120550180063 13.46090340112998
Au 14.293034359543443 9.85238062061447 13.281012309723645
Au 10.74234941857242 12.911883910524532 15.03765226483641
Au 14.612148097920056 7.108023791467618 12.69280085374994
Au 11.691922823029628 10.382421410955958 14.78444402774117
Au 12.510808125735059 7.862223861192511 14.281519794140996
