35
Energy = -91.96315176 eV
Au 9.964929608232254 11.537712387361818 9.925765773249513
Au 7.6015154304835955 10.530936423971397 12.197085128696614
Au 10.745393295252983 10.840587371517998 12.44328732371834
Au 13.728222515174663 8.53901549690549 13.384753100615374
Au 11.630908049002617 7.0245194234613635 12.303742727318436
Au 7.600032437379259 8.43865795756807 10.391203355321553
Au 9.028930834374819 8.084065896107397 12.735353237266354
Au 11.15385894567342 12.109944929981765 7.297065612756445
Au 8.607020883877349 13.172111357233044 8.222640400473898
Au 13.18954104921493 13.35202032906556 8.980318484319902
Au 13.673332348062766 11.011296685097049 7.7247864768963606
Au 11.44912650235429 9.336994241299287 7.2994708698465764
Au 8.921303466903709 10.512851119556563 7.273262678909702
Au 7.180886943762211 11.064635708683541 9.464225739064299
Au 11.768394378321307 14.724857489224256 10.884674728285718
Au 12.62031163668101 10.862861513186637 10.308103793891103
Au 11.771534845229867 6.953870095366736 8.921978470964541
Au 9.25411506094998 7.824378278286002 8.088083521599655
Au 10.64413816726867 8.961669827175808 10.436812108096392
Au 13.314709937176138 11.232246719270705 13.767803700157812
Au 11.733855325249516 13.48547736929143 13.390941318925037
Au 13.714110003800442 8.099752939189448 10.708846907719318
Au 13.852241116780432 13.00813536523078 11.63343273795594
Au 7.849167412935084 13.12220199785552 11.15280212239567
Au 9.114243214090086 15.267058318273513 9.9526706808096
Au 8.826786373500648 12.575867258738345 13.714492577347384
Au 8.726177511161316 9.975782372516734 14.691954672577975
Au 10.992376875781515 11.498113306997361 15.195231804084798
Au 11.24274334232344 8.807901060600217 14.434586437766177
Au 9.582283623108388 14.929052307376171 12.590716648914976
Au 9.556906048399533 6.398573377965608 10.529500153860893
Au 14.960208747016887 10.418884095940076 11.713383946130238
Au 11.000134049649125 14.7183572961178 8.10137884473126
Au 6.741410752002825 8.906997744854168 7.781121943386693
Au 13.938433144908172 8.351895812649301 8.037805845862662
