39
Energy = -102.92952447 eV
Au 11.012284644850382 8.158334220356819 8.85373136637181
Au 13.365844019708785 9.24685902658723 9.791685339696558
Au 12.003175677796781 13.446389147033871 7.945258714923655
Au 11.507551079300546 10.804374698130953 8.37724499341771
Au 14.400195511271786 14.607951762668671 8.623587861882303
Au 16.124723370590456 13.143030404216452 10.11762543059145
Au 17.839326827476306 11.831987120916454 11.827275368059222
Au 15.677350022893837 10.371262173533214 10.712134076486855
Au 14.039503673984521 11.793676645070802 8.870589880979317
Au 11.510564314855912 7.928441062393579 11.57455592571416
Au 9.133303934317738 10.110210182839934 9.772249268796603
Au 9.407946833076508 12.6773414819896 8.82043562634005
Au 9.883813215569399 15.230554150098843 7.938995354080523
Au 12.08311952981805 15.82505712449279 9.571315544428915
Au 13.81479513350306 9.17476263321604 12.569957439741495
Au 11.391401133363608 10.71956067018857 11.653267935530808
Au 14.182279733284492 15.104819308344556 11.300866216607918
Au 11.604280432685144 13.291122487851432 10.853972640562791
Au 15.900978736432112 10.80296582323572 13.491061778554853
Au 8.751956404892688 12.262451228598637 11.458775628798195
Au 11.600610825753142 15.795984814792845 12.301609328135186
Au 11.451552824314337 9.067080761408198 14.06250581812009
Au 16.070921879248374 13.714771743681013 12.839613335279086
Au 11.660274903013667 12.65969942542403 13.65455820504492
Au 8.927551470425723 7.466373544673643 10.529008791060214
Au 13.527604790883741 10.706279673140592 14.911114791385023
Au 13.819618574995282 12.140298140553126 11.952732054782459
Au 9.402555107749324 15.002604846205358 10.639492230911328
Au 8.965510515910465 9.370833414327748 12.487879561950871
Au 11.349612840719102 15.44178640276708 14.99222917221108
Au 15.242291264627076 12.817242177871403 15.320080692277388
Au 9.005645532357724 9.138958050417116 15.289965149754778
Au 13.768394994149132 14.743041146654237 13.97353517057923
Au 9.338641305292779 14.304220703027866 13.281442760978893
Au 8.878430178623669 11.598995642661874 14.085407544610536
Au 12.690960044868547 13.2841274442948 16.238640576962677
Au 9.650335937859568 13.468186181595149 15.89160787949255
Au 10.807642305010036 12.65969663279469 18.16771608454169
Au 11.027236126306923 10.908453553725753 16.076060112137007
