35
Energy = -88.81371384 eV
Au 13.42635845589588 17.178286974157203 12.820210624780003
Au 10.546549217686348 13.088124137308299 15.265112812724755
Au 11.261102750022808 15.39299560533817 16.740600283450938
Au 8.949111494677032 15.328831243350361 15.086192510241272
Au 13.741889832428738 15.9001505449928 15.22278756913574
Au 13.655452580679045 12.611655137714724 19.611115727649775
Au 14.361814845204046 13.648293920721745 9.881361243419793
Au 17.16034520029285 13.101462059747876 13.593661838618258
Au 10.817588187215673 10.999015656614558 8.542495375315022
Au 12.434117728612167 14.510750647915662 11.721294158344
Au 15.94668595317485 15.38698856870019 8.362914176494488
Au 12.5563999433439 11.024206999230895 15.357206063675118
Au 14.587030106191996 11.74362201196925 17.19007109928169
Au 9.18275551392299 8.061929193652736 12.347704128282432
Au 10.497885797632721 12.843780605803218 10.525410511398489
Au 15.95804376009145 9.482932584523843 11.771599394979795
Au 13.903777439782509 14.578506463678902 17.572348474612713
Au 11.857310996330616 12.513102025964619 17.515703334716655
Au 14.602632195181075 16.25959218424377 10.511725078792491
Au 15.444932598942197 11.139116434302972 14.686909092058245
Au 11.592273406675611 12.00952074510846 12.943186562612205
Au 10.457217609733037 9.973627432644685 11.02081619639929
Au 13.601933881583246 9.910664764383618 13.039852392108092
Au 11.314726140203007 16.103648992730328 14.037830873629545
Au 15.689795427764041 12.837956150778117 7.612767047613262
Au 13.33318137550191 11.576398367287085 7.849108036725336
Au 14.481819202006147 18.834371830306093 11.048580499887722
Au 12.890619642273524 11.266280562624738 10.584254101934885
Au 15.46525470378482 10.838443630187257 9.492481694697899
Au 9.775985771184631 14.17587814792344 12.75377440077231
Au 11.793714333069532 14.659721575597159 19.3003067275224
Au 15.18737703920312 12.105467002665767 12.031020086935472
Au 11.001754055944643 9.40701259271623 13.692014794220006
Au 14.927103025227536 14.68860844541552 12.914023677767167
Au 15.507331940241565 13.844570453639292 15.572072332435479
