38
Energy = -99.42301487 eV
Au 13.636548296682358 7.477594141773931 11.423953873280245
Au 13.807502600992095 8.610947587489846 13.978006181668356
Au 15.517202004294798 9.483224424960525 11.959257014223954
Au 10.849608301938328 7.582175845279652 11.455305948620076
Au 14.862239077313069 11.223346800329404 14.062115778094123
Au 16.692451207959476 10.335614789729675 9.584107171092356
Au 13.975967294862299 9.554406796658188 9.571095554294251
Au 12.824014458383969 10.370260515341025 15.852301599825369
Au 16.16757289002676 12.154871374179113 11.637755557258405
Au 12.284681994604481 9.827135614851642 11.921231176297708
Au 14.95983801539504 12.323083405251799 8.932155192133443
Au 15.160060983938594 13.9074397312324 13.449500390280749
Au 11.002346939999825 8.695114388468658 14.196576944505882
Au 13.413376872533608 13.072040854854754 15.607378033098723
Au 10.849861421132232 9.752409917768889 9.518602277832057
Au 12.62663834023932 11.153140229792912 7.882031939479129
Au 10.375024916091744 9.529344308296947 16.79939967046969
Au 14.714968885309155 14.547299060709266 10.600151139333454
Au 13.352936896036752 12.162084248182989 11.18268132040019
Au 9.264469704088402 9.768340376259268 12.135065395219787
Au 11.711915901385835 11.806857396835916 13.685448030107816
Au 12.616011299707909 13.816957023335751 8.832478653522106
Au 12.45074380319992 14.29696111660153 12.637358595721418
Au 8.89582174596082 10.516544766698699 14.700857055545637
Au 10.207372024703492 12.297710230493667 8.368900823010842
Au 13.64120660898456 15.692680094811939 15.057127161639928
Au 10.570076928540344 12.267907247860206 11.240775799061984
Au 8.320876463363865 10.997555718153118 9.927556789141669
Au 10.611557148823394 12.231383485164221 16.19267501227087
Au 14.445755793812909 16.517208707688695 12.413364623085533
Au 13.805302429729217 18.331030829660833 14.345255275274171
Au 10.96738976506613 14.651096284074034 14.978936621209401
Au 9.0333506137228 13.053274879575351 13.777793715022158
Au 12.292356979333693 16.13326539180212 10.567131592968627
Au 11.690964461127594 16.931795090242783 13.39278253504138
Au 10.133232462496812 14.720948603174557 9.630297361221219
Au 9.813596706665578 15.327580543988928 12.318889048937178
Au 8.088151269923724 13.483593383556526 11.189608458608507
