37
Energy = -97.74256284 eV
Au 10.119908415853283 7.228956436951527 11.195865112662217
Au 8.476648550483375 9.127659319375962 12.348641316442011
Au 12.680823644059467 6.809937969909014 12.05308009172948
Au 10.85816475739392 8.381293669045185 13.598160041327844
Au 7.469917953020605 11.152185596285998 10.71222711657285
Au 12.264339182397137 7.668799025827309 9.451173507450312
Au 6.859487646543513 11.104227696952117 13.390631307970137
Au 9.151125120186043 11.549457414051531 8.489537624458173
Au 10.951208523804743 9.538456467286629 7.894380892174896
Au 11.915462785133261 10.073838155004042 15.55397167574602
Au 13.62375163143703 8.72972537527287 13.746218776415393
Au 9.344081979244384 10.54700723123054 14.53495668481105
Au 8.805781197941979 9.021915814516849 9.567849304528913
Au 6.382631358597294 13.455302312652975 11.973962601893144
Au 11.205536917227057 9.941841217960626 10.816520079034108
Au 14.433322310188737 8.627114252970905 10.93256900056197
Au 10.324151679396614 12.542520464186966 11.202017816742174
Au 7.493704876500385 13.57735036911085 9.450162995073049
Au 11.201667428697363 15.803461364446404 10.72910211243765
Au 8.682420759569013 13.13465493614407 13.684588357084236
Au 13.594139724529974 9.944831687266648 8.576595638858516
Au 11.795185073017318 12.172181446079883 7.806959988039302
Au 10.126411253026625 14.142458358703289 8.833497779859876
Au 10.942562492154513 12.717321093950153 15.27402473226684
Au 13.059650674622771 12.03600849514672 10.643739588780177
Au 12.002588638475583 11.288069153507504 13.066620308884513
Au 8.759241205538414 14.872165174634034 11.527223101482113
Au 15.842473876928924 10.05677861409856 12.75740286092994
Au 14.342552064960833 11.210357566859622 14.82638519280636
Au 11.002634285069117 14.62685918690236 13.22930308783953
Au 14.519932931893802 12.448899938881658 8.003695552679302
Au 12.907642559981722 14.51162051770547 9.025675887680435
Au 15.663706131945217 11.023101493036602 10.209854967400856
Au 13.316011000950079 13.730880984410586 14.393382359124123
Au 15.228084138012525 12.734213649019667 12.664798483218414
Au 13.478391680391441 14.8430344233979 11.874925008720025
Au 15.392838203291447 13.84369577968339 10.178481698779896
