30
Energy = -76.18680429 eV
Au 9.718132495724486 9.927222679070365 12.123922814718684
Au 11.849884830087086 13.115673383756725 6.997048252059202
Au 8.511819622248726 7.423326840722244 13.036383254004683
Au 13.182431972349349 8.543428114487575 7.5425047208510545
Au 14.421998012053512 11.959378272929142 11.613942279025219
Au 13.79180175526611 11.252648274232937 6.941479666411536
Au 12.531791829570608 15.445161810453031 8.348251224785262
Au 10.70911058774332 11.604524696175835 14.443706434217612
Au 11.264485116547583 7.444767994622819 12.326015599748427
Au 10.417666413145074 6.83742426611778 14.898093804343668
Au 9.40137301953411 6.852103261489732 10.386447197271414
Au 11.449548992902457 8.5288457261062 9.75134554140418
Au 9.842638104990897 14.833144087796763 7.9245512950166885
Au 13.625594732669398 13.0753684642516 9.222720696690544
Au 7.44088966778506 8.74394352598404 10.944651686196702
Au 11.338501081241104 11.456314656541725 10.460144547982473
Au 8.340086687815761 13.376600190593404 9.683449475086796
Au 9.218435490603408 9.349081984361083 14.96843908958311
Au 11.063723221107033 14.256063610732578 10.330836944845617
Au 9.252390223815926 12.207434280184339 7.337428671728426
Au 7.294426016800357 11.457098188375642 11.324438227200174
Au 7.968301968130793 11.548860475930097 13.973394460832735
Au 13.813746520632955 10.322268021907284 9.50156507254907
Au 11.960432593473373 9.117543399365587 14.614434469367524
Au 11.190840415386623 10.37027053632665 7.618034168286506
Au 13.475925954734686 11.357373175162174 14.136065699380087
Au 12.174311666878838 13.19950014281904 12.584351975932154
Au 12.885225768278302 9.619651825767685 12.02181800197187
Au 9.456637095882519 13.003217901666916 12.20558172655213
Au 8.945644243147205 10.309556312616449 9.276749102504029
