39
Energy = -102.75590005 eV
Au 12.553531901120653 9.743316261611378 16.09879546604811
Au 10.464174899934319 9.888084196638355 14.011217247294997
Au 8.865102713049993 10.37500688892015 11.796103165010678
Au 12.404400650747727 11.332449954062174 18.361621186171927
Au 10.645375919004818 11.746198221545114 16.227285527781376
Au 12.890702442743809 8.55471397785036 13.678647474945844
Au 8.935938673112434 12.265369248842326 14.192435515553402
Au 11.387619125209193 9.331006912942087 11.420360641064933
Au 15.004349026516278 10.280285703797565 14.795939169429788
Au 14.180900673514575 8.845862279940842 11.262370226705787
Au 15.696897275290222 8.11377720791176 13.379531537514618
Au 7.577530992072659 11.5381952459449 9.59495889643981
Au 14.055782094494342 12.282758956969298 16.31396379587743
Au 12.601437520879992 11.760095106972743 13.923842717240912
Au 10.757098901110936 12.397751184171456 11.905155651980005
Au 10.278448607653472 11.017492804275419 9.33330648332046
Au 7.424293891294033 12.841969806245672 12.027887548531327
Au 12.141994762012233 13.902512546130998 17.374716221437414
Au 10.71627648936098 14.266718270203974 15.064812868728097
Au 12.824601696280086 9.701080897467028 9.101881173592231
Au 12.030061335109142 11.537908396977027 7.221657129204917
Au 13.303063225759596 11.60769912899984 11.19910684999242
Au 16.107128308134637 10.758584235253645 12.30805016665455
Au 14.558204712109703 10.44216832178569 7.079503052493661
Au 9.253588084944735 14.762659549983654 12.778267172376744
Au 9.098144066314841 13.791051328372747 10.001998108800365
Au 15.312161662390016 12.95161469698152 13.905783728987135
Au 11.563272852361594 13.644221083806551 8.883797385108004
Au 13.600862775867496 14.879230815009144 15.217069796728904
Au 12.796412218533913 14.09879554024202 12.460300086926395
Au 14.19930808325978 12.824129947746826 8.53172694484721
Au 15.602970610160268 10.717207267082236 9.614277805982827
Au 11.32327175509971 16.411330788150256 13.519254491948331
Au 10.998776261965148 15.623229049793386 10.714704798071855
Au 15.601609398832014 13.230346939683493 11.108065729844139
Au 13.781226074538637 15.06652835950013 9.940398613039305
Au 15.188842636837894 15.451350657487641 12.701958196089613
Au 13.836850035424295 17.386847280478065 14.218746325454486
Au 13.134180440119106 17.12711636973796 11.55089945454592
