39
Energy = -103.21909711 eV
Au 15.63766408825651 13.865020566445715 13.35312602575234
Au 13.885494619284827 13.072192711934484 15.366892307821946
Au 15.450107879516425 11.159754769143252 14.13024782631844
Au 13.375074199562643 15.385971437209074 13.619195469701808
Au 16.724035998203483 9.614314804891062 12.27308161403378
Au 10.6976368827842 16.339287773917224 14.049616437262118
Au 11.97714138576966 14.926881599178266 15.966623531284467
Au 15.85524982915697 12.096135875150193 11.299664439928181
Au 12.776955004617346 10.517185457199417 14.961967355412916
Au 14.127619536966293 8.882031293960706 13.244602094730126
Au 14.072668408120466 14.396328039118615 11.08041746672709
Au 13.242144467157521 12.0581024022754 12.574532477605128
Au 11.956765146156847 16.177935889761574 11.31854693089349
Au 15.472043360068326 7.382964626908496 11.3626461432626
Au 11.426243143897207 12.291601929764084 16.525490811847106
Au 15.68884233311 9.818574193229747 9.717701848638944
Au 13.017141491133698 10.08417886355393 10.685356618752005
Au 9.621035213188604 13.791194692776111 14.996705700600899
Au 9.519060772457498 17.54925930944617 11.893714673309319
Au 10.037245747284068 11.014501912777956 14.545012360696436
Au 14.117046509618483 7.5825131748026635 8.985283551700295
Au 11.096359934226962 13.836604070555754 12.608565810646192
Au 8.421326555932518 15.219821889037911 12.934200536997105
Au 13.63750501817566 10.023982419506316 7.816043082279556
Au 11.298885963016366 8.93060578111684 13.237470187380062
Au 14.03035322762764 12.368699383272071 9.213042846804457
Au 10.73833947541133 11.436140839388592 11.434075305009355
Au 11.756641119467513 13.910597355932326 9.55474906614058
Au 9.502262867328875 15.33353493581117 10.254967991225126
Au 12.685847574474963 7.323644584824544 11.380611159340909
Au 8.241697447406246 12.45937864708513 12.96573573069823
Au 11.482911664822577 8.54071489949244 8.875491882922297
Au 11.393724430626934 11.414779258619218 8.427035619355026
Au 8.699781175391395 9.754947942821799 12.44439181620866
Au 9.17963001205957 12.792103814337771 9.269837692641694
Au 7.1280194563183805 14.039393129933007 10.859715587134808
Au 9.997921747910997 7.751823694899088 11.06612903917071
Au 9.229866502260059 9.952747505100424 9.477904871872397
Au 7.223992193583143 11.326830907172456 10.651888470245034
