30
Energy = -76.70468725 eV
Au 12.285397704059017 10.398692211212305 6.753887953304395
Au 10.795262462265313 8.034975022416706 7.040370300131275
Au 14.720091240299947 10.345467218233198 8.263961093479605
Au 13.39939056133995 8.042234893311475 7.775475643236062
Au 10.831516808909642 12.564467487314662 7.513554143709905
Au 9.406406264794716 10.367854783007992 6.838603551771606
Au 13.549324899288424 12.730548639142464 7.9084499853190575
Au 7.534139466585542 10.931897327165641 8.743567838512886
Au 8.858997652553294 13.853663064429286 8.922170133695799
Au 13.629268980371636 11.579300482124767 10.497310610033846
Au 9.329959635943291 8.84299581038884 9.21219269714855
Au 11.502400022445567 6.9977817616141 9.487410190622132
Au 11.921009846411136 13.686315768683395 9.856228836422911
Au 14.083175613725945 8.801665411104516 10.417404390945567
Au 9.934810863160518 11.624717186079815 10.124760005514188
Au 9.755956129953699 7.358318568253235 11.599800011171945
Au 8.274647928793753 9.932289223621895 11.611458675104872
Au 11.393578897606103 9.612281739246331 10.942632119088538
Au 9.835836536031938 14.252948125128304 11.502802570682627
Au 7.2461671347961 12.596102166948082 10.822034772890564
Au 12.00823222593308 12.765744243797169 12.462904643957797
Au 12.563105385430584 7.206160000423343 12.03152085381916
Au 8.244804264510245 8.078332618254208 13.713603622320901
Au 13.288811300698239 10.1171787492109 12.848566798256002
Au 9.035779272975384 10.452794934197456 14.725680516599775
Au 9.670961007834737 13.036827360346148 13.958866245499015
Au 7.507721509167002 14.407554804432172 12.870609022863764
Au 10.994509537571862 8.743435709396136 13.787139618120019
Au 11.636910877767654 11.269117980262239 14.707505346546707
Au 7.078358842995391 11.684869584473235 13.37606068344992
