33
Energy = -84.33501248 eV
Au 6.799327803501895 11.472935101109886 11.756060842426495
Au 10.27631741500354 15.123563321885609 9.700516601595666
Au 11.856588170363382 15.260465509599843 7.484398808552877
Au 6.508365187823785 10.14874514258981 14.200484803059135
Au 9.240217887005285 14.161095387859456 12.040707176797774
Au 8.866144919241252 11.875937410113732 13.497035600456417
Au 8.315713735156406 9.21682860730132 12.355879598912471
Au 13.297103411095758 14.98870636722194 9.829653011848519
Au 11.628393871539531 15.568908877321018 12.059660944402182
Au 11.559667644252851 13.213401434310335 5.703922042938936
Au 10.442588613039337 12.78544701102044 8.199931545207185
Au 13.380505875154315 12.91348964659542 7.872712422535495
Au 9.048919515070951 11.914073880634316 10.406746262377812
Au 10.420355479275946 11.767281216555293 15.772786600209011
Au 8.964765687983668 9.500892162546767 15.121746766425384
Au 10.292413973860192 8.205550501203373 10.910020828320683
Au 10.25317781972076 7.553175350150768 13.5899716349955
Au 11.72855619034743 12.803075302970903 10.8133602579876
Au 13.915350370749609 14.182705981456538 12.413487947054296
Au 11.67919130524491 9.446463463658066 15.149752504843304
Au 11.41341654275616 13.194998170189823 13.662437183715372
Au 11.88876584554136 10.745396129167759 6.818323935088668
Au 14.700673345659517 12.583262262712198 10.214924320608306
Au 11.896298913611858 6.112937631467333 11.792958719509164
Au 11.327014395428197 10.544527993359734 12.362204024185461
Au 12.94067644824221 8.118302101525549 10.125886819105927
Au 11.085161200455572 10.321326293657641 9.432922010816146
Au 13.832993117572569 10.325754486941074 8.755668322271898
Au 13.803425991823568 13.124614329817495 14.967637441934517
Au 15.689172644806105 12.151878362620202 12.73765957454015
Au 12.977431454490246 8.250395487217567 13.01304210563113
Au 13.85481734708406 10.604416356166896 14.085145067311345
Au 14.386246260287738 10.08920710224155 11.42211265752514
