31
Energy = -78.58740908 eV
Au 6.8998624117187495 11.433132016247985 10.676740717905338
Au 8.286090303564063 11.13017395115666 8.40398623608954
Au 8.914233654066102 9.429136914153936 10.494251380281552
Au 8.158658178144714 10.950142920662087 13.103753059194666
Au 7.163916569918912 13.460121208950477 12.518098528100364
Au 10.704081761056432 9.772402281937053 8.369945029743064
Au 8.867901669511575 13.39463682495231 10.336655611559365
Au 10.605150087874291 15.157452192598027 8.984329973107503
Au 12.789102290546943 11.137389693814749 7.222477601165257
Au 9.910698320160801 8.619968135331998 12.893282157079453
Au 13.076077154481187 13.8522030785869 8.817869380421087
Au 10.651340169643825 11.19672447561166 11.883605204708832
Au 11.576174441180454 8.587841696511882 10.71768825404551
Au 9.702208027358546 13.71789067631374 13.309741902696423
Au 10.622822101062425 12.536282065580654 8.27544650948596
Au 10.00183757860435 10.378522775566909 14.97335496163048
Au 13.59277498311142 8.970440445240762 8.876705765795801
Au 15.116091419171433 12.129632676808203 8.175458982758673
Au 11.530182950837489 13.803212139827728 11.158876039282639
Au 11.850375915422939 8.275631848340302 14.770417034138022
Au 11.0511839736939 12.83082758897031 15.470105908617652
Au 12.829524969818548 11.317800159085127 10.055966866454039
Au 12.320933652261322 14.614492855160382 13.792856364514956
Au 13.082610437174768 12.115716404959773 12.641286552842969
Au 12.388127451697631 10.552787901658299 16.310772602447123
Au 14.171127018530541 9.2558307618526 11.537159459854612
Au 13.99167858805185 9.845879804421118 14.15885594938753
Au 13.852052316232813 12.60042217300713 15.267442935421482
Au 15.007256367397924 14.058371446397075 13.219782375207892
Au 15.152761767136564 13.193043154541456 10.652688083459939
Au 15.724486160545352 11.329773945127826 12.65550291909375
