32
Energy = -82.35407863 eV
Au 13.43760657336689 15.02375330283402 11.5962480813326
Au 14.655422240391056 11.820264433651799 12.373178043559541
Au 9.859011213283798 13.860274609045383 7.879783256049582
Au 14.134465986113927 11.781387152426264 15.154855738775463
Au 13.947893989112407 14.391875869410148 9.002100419485865
Au 14.8129563982477 14.19080390197054 13.884310866330875
Au 14.440579247789827 11.79436075895216 9.644970076031141
Au 12.129878452169134 15.062113673042969 7.0232098693845595
Au 11.883236649552728 12.766623553062715 10.717248621637594
Au 14.39675427112664 7.074395852407958 12.392612480918075
Au 12.242552301754127 13.08310041035064 13.44749124092854
Au 12.277316600461246 12.373457629659171 7.889839484090738
Au 11.396588884537582 15.445238741944674 9.682422140658302
Au 12.268037063772693 10.002942530258268 9.264899331309755
Au 9.08685017688647 13.910628226964931 10.464322614440846
Au 14.510131886640854 9.430010391114266 10.940273707557566
Au 12.268437405617775 7.7537180664722145 10.798267052163299
Au 14.342994107925547 9.404124192167485 13.831338369976775
Au 10.56084599322276 15.413957856656186 12.299893023187638
Au 10.0043419282983 6.868750681731574 12.15861007240188
Au 11.92702563128492 10.555572710914591 12.304842680070776
Au 12.625854469524851 15.916415805061252 14.075562374703265
Au 9.772115681494613 11.44277799181302 9.169218694419618
Au 10.355504688137128 14.566239391868372 14.949461420977679
Au 12.075719842206585 7.780773675767968 13.707141348001713
Au 9.848240974155294 9.124473863281537 10.565699510141867
Au 8.964294535683251 11.41705967154946 11.834430331309965
Au 9.691416685492234 9.244920093144058 13.519853604846995
Au 8.419508915774589 13.835101066337025 13.08372423844931
Au 11.708648170419732 12.60147216467988 16.349636079229146
Au 9.806992424825749 11.813843848855521 14.453351504574242
Au 11.901822263460545 10.091218349886477 15.203975797100124
