39
Energy = -102.37988363 eV
Au 10.120989376276409 8.826849517191139 11.174658862971048
Au 11.694012923723585 12.988152782808859 11.174658862971048
Au 13.204444854696915 14.848356773234926 9.620034180261458
Au 14.206874250004295 13.830156185165087 12.096444967390848
Au 11.190749820008664 15.72451945625699 11.262997790011164
Au 15.216503543743926 13.07015377969415 9.445237005444133
Au 10.61921380330818 14.305447508658133 8.779824744307824
Au 13.089060477641288 12.002486603809043 13.948124634397688
Au 14.982026265991149 11.287317928462137 11.563678240805423
Au 12.665223196986746 12.561193855688284 8.036861928060754
Au 9.487879850662242 11.481618638429165 11.77425982419324
Au 12.327122449337764 10.33338366157084 11.77425982419324
Au 10.90750115 10.90750115 9.549103571240499
Au 14.357183484542112 10.556882138146971 8.868432832149796
Au 11.195788496691828 7.509554791341869 8.779824744307824
Au 7.457818815457889 11.25812016185303 8.868432832149796
Au 8.725941822358706 9.812515696190957 13.948124634397688
Au 6.832976034008868 10.527684371537868 11.563678240805423
Au 9.149779103013255 9.253808444311717 8.036861928060754
Au 10.624252479991348 6.090482843743015 11.262997790011164
Au 8.610557445303096 6.9666455267650935 9.620034180261458
Au 6.598498756256081 8.744848520305855 9.445237005444133
Au 7.608128049995693 7.984846114834907 12.096444967390848
Au 11.984151606058655 9.869837594476984 7.304329158649327
Au 9.830850693941336 11.945164705523013 7.304329158649327
Au 7.986894498711778 13.834259577868757 8.29139246769852
Au 7.332404851583768 13.17587145404046 10.937290353566347
Au 8.57797086708921 15.57063276818174 10.324078064931447
Au 9.271793146671355 14.297065359371988 12.721904246736466
Au 7.573772764907363 12.29064179125072 13.643727791893195
Au 11.896787319400609 14.46147802641637 13.670094192696634
Au 10.334179975927986 12.200537825924805 14.458349354026867
Au 13.828107801288226 7.98074272213124 8.29139246769852
Au 14.48259744841625 8.639130845959537 10.937290353566347
Au 13.237031432910785 6.244369531818249 10.324078064931447
Au 12.54320915332864 7.517936940628005 12.721904246736464
Au 14.241229535092632 9.524360508749282 13.643727791893195
Au 9.918214980599387 7.353524273583629 13.670094192696634
Au 11.48082232407201 9.614464474075195 14.458349354026867
