36
Energy = -92.81546115 eV
Au 12.447125581897843 13.48979743802618 7.2761248612426295
Au 15.16832106043872 13.961066758584945 7.93749003435744
Au 14.819268336153618 10.96954741675784 11.532300707523236
Au 14.791093416605737 15.178463353628036 10.432844342391512
Au 9.741275847882306 10.45910338049569 15.390699087895282
Au 12.381507940560796 16.691027806049597 10.817890195844184
Au 14.12139845559452 9.89713064406436 15.380847114904476
Au 13.163731450655009 15.930176085762529 8.341195905309943
Au 8.238232948272339 12.585997622475706 16.116282786534537
Au 14.02754876985604 15.88489336694345 12.949545808775534
Au 9.31323078627147 7.918692343524836 15.887512578838331
Au 10.940855895904132 12.719081877030085 16.485289975306777
Au 13.283536859834731 16.691493807150923 15.561751181666114
Au 13.649382668634882 12.31007701006499 16.28583923772044
Au 15.947485845059932 13.911311184690954 12.706648559792022
Au 12.79179392417403 14.654093927504604 17.281503129891515
Au 15.0217208609264 14.525248897748025 15.27501956046931
Au 10.760310774946367 15.045349206098862 12.282450025489158
Au 11.110051761650405 14.525241239113997 9.531401861602053
Au 11.88312771977478 18.911889541327195 15.573663118047259
Au 13.17935803503792 9.101807318494082 12.65946577741106
Au 11.680575777837648 8.555227935869423 14.868612632882163
Au 17.385623984714396 11.541011216653548 12.367921195091002
Au 13.16855778487398 13.23975982856454 12.03845592591824
Au 15.860813955956402 11.938902136660948 14.689944394954718
Au 12.23046618972259 14.22396084143099 14.500181789441354
Au 9.69551155066375 12.922413684039144 13.856582178220611
Au 13.644535653202817 12.227116930231746 9.407293842774298
Au 9.919258956628303 12.638856442495902 11.199794461370598
Au 10.847923863803048 11.812359045622582 8.75933924619966
Au 12.042973929603473 11.368067197069555 13.871233798150897
Au 14.317120742436945 7.411266152983249 14.405106983666048
Au 11.724270337120828 17.433382385068796 13.339426696675652
Au 16.380403871422587 12.893073645468087 10.161292617055675
Au 16.14494601622266 9.382387322695847 13.500638993436787
Au 11.900954499429236 10.775021063379565 11.052705446919498
