38
Energy = -100.11166979 eV
Au 6.653164642789289 10.416901282461575 11.608637986544975
Au 6.512440724775185 8.874032547638306 9.143768010020642
Au 6.79223838895513 7.6077622391788715 11.579990791530982
Au 7.21917938469925 11.565810685842468 9.21020322703596
Au 8.516576868344426 11.570703767594795 14.068875315444263
Au 8.034715884199029 12.884802041933467 11.632375617256056
Au 7.602070519290636 8.994603660875685 13.790709102626845
Au 8.986623036875596 7.76106770673755 9.824813622511387
Au 8.141207636967508 14.21387626692016 9.17241358142037
Au 9.37659644118252 10.078657058701815 11.691273005601591
Au 8.961185042406397 12.4282741017073 7.12699764754294
Au 8.85532330377477 9.695295978980885 7.865660863625697
Au 9.472741909955593 7.327196951721244 12.603008040079144
Au 11.1081468235609 11.919692583198875 15.047433962167247
Au 9.756829807457208 13.998053559329602 13.551348214877924
Au 11.293872389347824 12.123377974597942 12.24356475703692
Au 10.004842934391029 11.799983741246267 9.66914879735123
Au 10.218565461559987 14.765300656174754 10.892745400620333
Au 10.27240008907198 9.332718934984403 14.497080414658647
Au 10.71511751664947 14.362026784507952 8.191682622571847
Au 12.367394607755248 14.709502674163563 12.59287747929415
Au 12.137016674924238 7.565668749941046 13.407235747155623
Au 12.048494590798468 9.607487272033227 11.482969927226758
Au 11.218113292459645 10.857959027412445 7.041937336026389
Au 13.52792038073976 12.700265351214984 14.100533762527864
Au 11.357195584183204 8.549300611951374 8.461586593198595
Au 13.051302346363832 9.99794626507501 14.3751360961988
Au 11.502003972239862 6.968600398643753 10.737112937572725
Au 12.88895004700766 12.977734133742821 7.339751589134176
Au 12.719237946802593 11.759098225946385 9.963119860214588
Au 12.932390651287896 14.579248831555132 9.80836570504687
Au 14.516124672715504 8.620887607319188 12.391969824956078
Au 13.811575608602142 8.187868107310898 9.728280924566931
Au 15.468025859548924 11.088842284539696 13.048625725553357
Au 13.76385180333999 10.266007140893128 7.882437212860958
Au 14.638184909908372 13.295697878337748 11.648002038114491
Au 15.11136316401073 12.89812269951073 8.98872724431982
Au 15.294197696251944 10.458398342478155 10.356727678597311
