31
Energy = -79.17128981 eV
Au 14.154491773355288 10.03866019176712 15.786495990575244
Au 11.55307031644814 10.892254345567876 15.7889075174103
Au 13.642067671002339 12.493317627702444 14.63159971177011
Au 12.375573847335996 8.985835338891587 13.845002050728736
Au 14.806045678733607 10.363919800272685 13.142942320503087
Au 14.358210310190044 13.29960881906281 12.120119631109993
Au 9.696876209317429 10.06832477125002 13.972759772250786
Au 10.033591997218409 12.866304577221689 14.58723937035979
Au 11.872455176230227 11.601427564418003 12.670490057162864
Au 10.610363687582028 8.376461502437905 11.863231745211568
Au 12.06543176655142 14.387165401589161 13.362614912821037
Au 13.21519531050252 9.136001233807704 11.181658042221088
Au 7.889778306459872 9.37151200071168 12.067816649436413
Au 7.8546910554945555 12.07901537838911 13.178850668563449
Au 15.266104036382918 11.053036909406334 10.588087502892053
Au 14.729527149892276 13.59850553590838 9.453531492057339
Au 12.193498063497142 14.45648444403812 10.601205455848405
Au 12.577722619703128 11.744775638442185 9.972046340020466
Au 13.936260919625276 9.74276910971387 8.504555512766341
Au 10.036755021538672 10.873569667125784 10.79465636386699
Au 6.752385117890523 9.987714760713349 9.511728617365653
Au 11.366200493640527 8.94291967410243 9.02687919939787
Au 9.772621735475907 13.666838811859108 11.882152933336382
Au 5.7308510340618595 11.081945657076092 11.81364884456207
Au 14.3559461327704 12.07999252777001 7.146248882118253
Au 8.848444307805682 8.23578131295606 9.71434229116705
Au 12.384161605297113 13.871633269170706 7.875952012265603
Au 11.631322054925649 11.22963838636641 7.347917524950385
Au 10.071603941882517 13.180379480811625 9.120833219760925
Au 7.716361369663472 12.456710455484277 10.375382814825286
Au 9.055403061655971 10.69458348231981 8.157819086480067
