37
Energy = -95.52111405 eV
Au 9.039296364311372 12.731060328710246 16.38481333428682
Au 11.728896361257965 12.647894275240049 16.41848825127231
Au 7.5662899927421385 11.055527514955404 14.774879688711982
Au 10.340736417543974 10.506241580975885 15.25510456931031
Au 8.989541445430827 9.256262333170278 13.244432026738421
Au 7.525232495153478 13.79617896878046 14.283378036291692
Au 13.206966598867586 10.490472384320757 15.011213741335155
Au 7.999339271574042 9.853077950717715 10.69697707703981
Au 11.711986474114862 8.744032686862656 13.54494699122653
Au 10.26932480715219 13.703222609738239 14.16962734890205
Au 14.418201156888824 12.6063964577538 16.210889795729138
Au 11.149312323673469 11.382393413167836 12.549813763811265
Au 14.054145692226234 9.816227715495712 12.490050797619114
Au 14.825600043203291 13.421963557648443 9.061168804236265
Au 13.035709157280364 13.141763763070266 13.944999013363976
Au 8.70137734744353 14.301185284220383 11.78224801969041
Au 15.547077336471565 10.769606788070561 10.382217765364155
Au 12.832609662344414 7.3627530199913105 11.440229410774814
Au 10.378681638612912 16.299002326909783 10.654275576475042
Au 11.60968454417331 14.267615957468797 11.92127895164754
Au 13.458275194286406 12.340482978037482 11.246929631683859
Au 12.962031542460792 9.793326405136677 9.960101098905463
Au 6.264813829237685 9.612682648479746 12.823943146099925
Au 7.088823652224896 12.125484487739918 12.14057790905832
Au 16.496465822381168 9.30961965388543 7.985533705119931
Au 12.705298539862966 15.009604949047013 9.564636434736165
Au 11.731748598623334 7.514504936263658 8.832063452714438
Au 10.372939116397891 8.501500082893001 10.998788880962529
Au 17.04937049563713 11.975732897174009 8.473819624602283
Au 12.265068735871553 12.588536517515251 8.229197478258568
Au 14.4176330213395 11.038313768780679 7.654611829890947
Au 10.40521544808369 11.065135153724306 9.928129161009407
Au 14.023510122121381 8.31157254411222 7.6238491029348125
Au 11.673093223476885 9.95713772765318 7.464445058386767
Au 9.661613972039289 11.876447338732715 7.420260392256391
Au 10.086980328194393 13.927711604772819 9.350411477917902
Au 7.8792242716789955 12.371442433165992 9.553783696017689
