36
Energy = -92.34805318 eV
Au 12.319941119814569 13.589415096940941 8.941577824750162
Au 8.177867243536937 11.28473233883359 7.119490663584761
Au 6.568225419012359 11.25727758350889 12.041184987691324
Au 12.526682205696968 15.103372233567264 11.374407115965317
Au 11.017546491857603 8.91172044042325 13.48965534279244
Au 10.437439984185618 12.197033226988763 10.692030186510129
Au 12.207325539737754 15.211943572057962 14.082320973812228
Au 10.399353151932942 10.354678143924865 8.448647396522613
Au 8.977016782883625 10.066376538907685 12.154307521257435
Au 14.750142055522673 14.572192158366336 15.593512302413146
Au 14.40655757462663 11.805810857274187 8.826518962100618
Au 7.956464125533908 11.057903731955998 9.774009303994838
Au 15.704640943828037 9.673807825676672 13.18593782295357
Au 12.865612520226751 12.513325654652583 15.573573759369038
Au 10.503723290244352 16.75749890590377 12.204552236348029
Au 8.368250914090954 12.251697675392016 13.853341591823328
Au 9.7479431521121 13.150104695777872 8.196735033512434
Au 11.19966718117262 7.757295853508811 8.252207816977622
Au 9.819378367751453 14.226332750532592 12.701415556836105
Au 14.518243263724187 14.100261187960797 12.947212493777435
Au 13.14616216923047 11.9734699443314 11.314730699778183
Au 10.791805940110478 8.585849494599415 10.784147772548405
Au 17.807074050268184 10.020111473006935 11.544087558709279
Au 15.441068008517863 12.06346835941202 14.540129166478177
Au 16.01768041530105 12.113044324856132 11.674695143214926
Au 10.900949568995859 10.59063372140071 15.674180402000982
Au 13.327102352474117 8.900743907830828 11.924172611965759
Au 12.94425552483266 9.586136285281139 9.200398199448449
Au 11.248807296548188 11.805968161618123 13.247406842638165
Au 12.111874480567346 14.837238972040574 16.82082607724742
Au 15.437186149626102 9.67656206147833 10.288218692825259
Au 10.204742993083382 13.53436398640746 15.410833791000382
Au 14.360824834449659 15.70510869327571 17.950679209372574
Au 14.82470037545951 14.138395789161908 10.194026997644553
Au 10.082223038764848 15.081518419801789 10.030254094978838
Au 13.398146187473921 10.06123064653767 14.465198560351856
