33
Energy = -85.96296509 eV
Au 15.173003629153078 11.347271403763513 9.998569812712617
Au 13.484865602480568 13.061566526859044 8.613202038274501
Au 15.42083935669055 11.365557675176614 12.68433800908969
Au 11.814938213116903 14.646240419155145 10.349035980686134
Au 14.315163401404332 13.707830193677282 11.248801113077818
Au 14.319816675724805 13.460130019477601 14.039256083931537
Au 12.494532329741595 15.136333401475806 12.917931971095364
Au 13.879200586803087 10.37218130830126 7.819005708539602
Au 11.65022840541849 11.588289341493507 6.819028974767948
Au 11.65521336257506 12.993629371867195 14.513715802000299
Au 13.549449585611644 9.133694920642391 10.332034805019259
Au 11.106538381620174 14.182598557788973 7.791683378598844
Au 11.253818368828114 11.618655212794005 9.59390956618241
Au 13.50683029023836 10.818865466712321 14.606509696847617
Au 10.020489617673393 14.037788570609067 12.396036394288595
Au 12.727187036592285 11.444715196962235 11.904495579163218
Au 12.629491512153198 8.776493632690379 12.96465115981645
Au 11.621353726288648 8.919508122918367 8.340691574831174
Au 10.817653612635254 10.326663998789655 14.63545858703886
Au 9.191276639953209 13.64788770503786 9.826092869900872
Au 9.442211151761764 9.947186847769842 7.032116883769693
Au 8.947254765814444 12.630618596637246 7.228751666200416
Au 10.276426325063252 10.275729042588745 11.70106285012404
Au 9.000245264508795 12.532157525495231 14.45605790223844
Au 8.093293823319913 12.0767242268456 11.880451290691695
Au 11.290919490131698 7.633635801291987 10.8099958487537
Au 8.16170215423843 11.034242949359795 9.310524111110402
Au 10.06869782866309 7.930423366354421 13.445787555970941
Au 9.034846908124285 8.322206952401835 9.164987279755776
Au 8.074919364563936 10.068305720942908 14.007317828184796
Au 7.556799396220704 9.324482523160714 11.350672494158243
Au 8.756509523351234 6.701357884988114 11.331342597233615
Au 7.296385630960096 7.546706536836785 13.492752008256295
