33
Energy = -82.87346136 eV
Au 6.945384383613705 13.576365089145932 12.898240336363402
Au 12.027989877071496 14.923652958615135 12.221271934757805
Au 16.055373094221913 13.193676134011824 13.59250668877514
Au 9.521939857635157 13.768534325708435 12.076108625569843
Au 10.587880939311324 11.102220330723991 11.754788890021603
Au 7.9367633246248115 9.391998951299726 15.863952886423705
Au 16.451950655470895 12.587233329523958 11.090913705325141
Au 13.315087340386576 9.562277250598422 11.12490975478234
Au 14.163215782456499 11.923727867119293 15.143186269288917
Au 15.37520165054595 16.550571516096344 9.675897150337041
Au 12.846409058240527 13.138981753166592 7.821983198984014
Au 10.370614883459679 16.052826537541716 10.405761064002922
Au 8.709427128533635 9.153103905786423 10.686463780698007
Au 9.07742467992434 6.605387697854447 11.628691429302055
Au 14.807361603693336 14.791233321273145 11.699693578627018
Au 10.010968084759753 10.503605847981975 14.478498016021133
Au 15.207433710242608 13.963835463873489 8.923218574651493
Au 10.822919670874512 13.494893472134244 9.605025862139804
Au 11.701553139247908 12.66671345828396 13.753868035090498
Au 17.000224812688316 12.000925905966216 8.495873750616166
Au 13.677282840612126 14.599979051883452 14.266103680696823
Au 14.590047611413997 11.218849304749657 9.439891649042195
Au 15.56343507265759 14.033702971273945 16.1312609767354
Au 7.3474112346361835 11.067738778574908 13.807504417127795
Au 8.326246784885821 8.556622981113172 13.321266937521628
Au 12.72556098441302 10.021884312290947 13.807761653189674
Au 13.593179335830067 7.609948090762261 12.978740489717113
Au 7.7634875846500435 11.624797980224503 11.214486802625052
Au 11.942855824930689 10.965963576028338 16.299052918777946
Au 11.948865755568603 10.977918480755063 9.30961780177819
Au 11.02294093577269 8.328261248226822 12.361598202045485
Au 12.903710260451204 15.387755628624788 9.566712576843695
Au 9.276161041201423 11.262067276271758 9.00154342269348
