38
Energy = -100.27658163 eV
Au 15.858562741866553 10.173361179717471 12.344905014572493
Au 13.736492597334571 10.106183854702554 14.103547236257166
Au 15.63845155655905 11.953900475608435 10.326217944130923
Au 14.417668334103782 7.858726952690569 12.670224073826727
Au 14.344287222858908 9.203611215124496 10.271887311845749
Au 14.562690974711563 12.599145326926525 12.785204489062712
Au 15.213674311464109 13.23847224772245 7.9800068429797495
Au 11.053968676351293 11.587161931074053 12.913930528795222
Au 11.736536323976274 8.079410622417551 13.36710013823216
Au 11.279903031568763 9.639079483146453 10.897867353148527
Au 13.952324624073466 14.277855462178419 10.426410562722811
Au 13.910132306485785 10.830629590500724 8.130105963811472
Au 12.8863792897522 12.572100927333139 14.936331763835824
Au 12.520973712112513 6.929924933116288 10.981593084205755
Au 10.963614475616794 12.204573839626002 16.894622716729366
Au 12.477070748383024 8.497469317962581 8.416343984215477
Au 11.263061828038884 9.953503847607326 15.291047237958773
Au 12.515891213997566 13.349487220579046 8.034166657399407
Au 12.693985706960609 11.859530532457635 10.655696539158175
Au 12.298961354077445 14.271740339688103 12.675822357358479
Au 7.741510746070742 13.834902003852255 14.429304863941086
Au 11.145660873968149 10.844843370378355 7.732302766620351
Au 10.9664216219946 6.2609997798836945 8.868435449976792
Au 11.205657001259272 14.63175658526081 10.130934240613875
Au 8.968724501142264 11.449702142630805 15.083856543139422
Au 9.725184669382553 7.430467076789984 11.300161095243636
Au 9.227312584286755 9.311156053516239 13.31560237527641
Au 9.87202505982489 12.052328018843461 10.42440494012085
Au 10.478534419643069 13.893935359313637 14.726810534062182
Au 9.857685636411604 13.285760259447455 7.65714477966573
Au 9.59433243554396 8.58598586748172 8.628056424354135
Au 8.155229603132744 9.68218278434589 10.753048154648855
Au 9.405472660503776 14.344108336461982 12.257460821606253
Au 7.828750021939859 11.736145802798704 12.623280157258268
Au 8.393577325595691 10.917099703361496 8.01364089491161
Au 8.454023994619208 14.514460940394853 9.744741168944117
Au 6.99319136047605 12.149374952245346 10.110533264852002
Au 7.086827167909868 13.349839998311952 7.60554940141337
