32
Energy = -83.01368036 eV
Au 8.150951511451233 9.064896438078794 14.628371195712745
Au 8.919851119599228 7.18845232369922 12.797232046038824
Au 6.893514029008878 11.327248153350759 13.854820366904779
Au 7.560352536569344 9.390773768018466 11.842728776641339
Au 11.45116754445032 7.324336931420283 11.88899649985881
Au 9.169072615424055 7.903501031727172 10.090007391102029
Au 10.855208582002637 8.88233372509918 14.12468250261162
Au 11.563346584308848 6.962607131898597 9.139044810264153
Au 6.854637065747948 11.944195406652025 11.155072823239733
Au 9.673058391245597 11.37250582213373 14.154119077895567
Au 8.464057345792945 10.537789866351854 9.434472378587406
Au 10.523854544614604 10.101546341278212 11.414831666404393
Au 13.262486235308995 8.500943246202958 7.697321666906986
Au 8.22699177419783 13.566521762713213 13.080158069164593
Au 12.473772336079678 11.004884624361265 6.791758979500404
Au 9.448253011389301 12.823992788716138 10.728649003246883
Au 10.607405483212654 9.415264314165457 8.182853824564338
Au 10.575746925249865 12.164916956477951 8.337842795984983
Au 12.416693021316748 11.23164120546235 13.702590293526105
Au 11.076168984537283 13.555989350789845 13.216623475712693
Au 9.67898280471785 15.46491222988354 11.718025521933216
Au 12.312163731764072 11.954461505813084 10.60281322406424
Au 13.458057745935799 8.727549367165846 13.257533020109918
Au 13.252381274715216 13.26770802951325 8.173046632758656
Au 13.195101516941303 8.92882853747985 10.464198461471218
Au 11.248571375970482 14.594191580674151 9.599354412769395
Au 14.408688943855314 10.760130698760943 8.819522353980874
Au 13.799146101953996 13.448958269292708 12.5355090165379
Au 12.353111231037671 15.795224825839849 12.151924998261322
Au 14.609979571374728 10.833730120363452 11.97214262106634
Au 13.957817025517762 15.066522087902658 10.122024739251392
Au 15.41243364028804 12.798029112895074 10.287361383223049
