30
Energy = -77.03452243 eV
Au 12.190594165724761 10.140182315044106 14.974076709183658
Au 14.08231653621445 8.895696275742278 13.481369710572674
Au 11.527823837720511 7.78319105820333 13.379349444409788
Au 14.149759804265653 11.662386393322373 13.58584250258151
Au 9.614634200719157 9.177516758811809 14.78321467438249
Au 10.017734111061648 11.929996665538466 15.183628623547586
Au 13.249531153001303 7.766585292096239 11.157369796691967
Au 14.238956891905506 10.36652822351701 11.104169611871239
Au 11.493520438047986 11.836046783869577 12.842561006924704
Au 10.753005462146955 6.644563126587662 10.92942742142509
Au 13.518253918054889 13.032636120185236 11.29985141721599
Au 9.2517679172658 13.677676458451058 13.139666699454107
Au 13.265745267753173 11.871767651525346 8.819178613916371
Au 8.707317037760722 11.005822726494468 12.87700331139146
Au 13.422296448301896 9.133530379603123 8.778140231720252
Au 11.920223644648761 14.253643371364767 9.448845645377462
Au 9.61943386012886 15.043190989665502 10.81543888907017
Au 11.202029347561698 9.763538614602275 10.846082951234836
Au 9.004927954556635 8.31619720827849 12.266656724736936
Au 10.26363551822321 12.244852916965518 10.45671330936791
Au 10.916352311409401 8.068195937916975 8.562464470824338
Au 11.467025446131965 10.359056333774587 7.205014808949443
Au 8.068773954083836 10.259031968921132 10.347634257768487
Au 11.695611632980855 13.08599812572958 6.95483306232099
Au 7.6349162804304385 13.014388157369401 10.879752688092639
Au 8.424918739098468 7.662359990046826 9.626715626877061
Au 9.358310124445909 13.94437813799638 8.305967751950917
Au 8.744782763669694 9.60029588322375 7.674800135994709
Au 9.30716184143349 11.918745988086606 6.383245095856736
Au 7.392058873930793 11.988557717277086 8.362232146236853
