38
Energy = -100.24535758 eV
Au 16.089457458299734 12.203520930741702 8.716378291661796
Au 12.657590193384044 18.10048637616242 11.27430351488645
Au 12.412934205674414 15.779059668016464 9.74921057087878
Au 14.291856074641283 13.663422299390563 10.226035340288476
Au 11.892542377060215 13.273515963143197 8.78008223549396
Au 13.855964611763847 15.739892188349758 12.107091364047116
Au 15.006421464124347 13.409285402027532 12.926785237941866
Au 15.750059389936636 11.393573503378102 11.267836142322686
Au 13.60157219830652 11.17782732221284 8.787623979882143
Au 12.437560564580005 17.323792933114817 14.020184898904247
Au 15.693641902608634 9.413621388728073 9.314052067379103
Au 15.337083789975136 10.752553921801498 13.86937423831406
Au 10.811725910510958 16.230944060638702 12.072609266567826
Au 9.812722302049142 14.737237090031865 10.0073386157137
Au 11.884203175355067 13.45224273026613 11.801116006324342
Au 13.829316553203569 15.123036419177376 14.854701111584971
Au 10.97130042240821 10.56110304698526 8.297617523764124
Au 12.510786972807512 11.42072994834918 13.505046623512188
Au 15.202255227573493 12.925840817429068 15.615669527101385
Au 13.090661064969112 8.555138708649086 9.602517603436993
Au 9.218035874398407 12.606849865653778 8.372633543701093
Au 14.683800051524283 8.892986759364588 11.884525116362765
Au 12.414186249565327 12.903927570101134 15.936938418152794
Au 13.999875032452062 10.544269943333608 16.304774259305916
Au 13.427340096120284 8.712728134021246 14.35009273490257
Au 11.689329139058328 10.77689481861514 11.045238090638595
Au 7.690139329798863 13.120201101149071 10.608210852331787
Au 12.04427834635923 7.91912317079188 12.098771287156964
Au 8.721027242431832 10.549387228597945 10.177115810607345
Au 10.407065101013467 8.391149499438566 9.912576778745773
Au 11.0962678985813 14.922264954722092 14.507757716223782
Au 9.150519981699386 14.109492065177568 12.717747668460051
Au 11.315891983793545 10.339590959857109 15.94607373964343
Au 9.395014267531089 9.06557303533887 12.384573811598797
Au 8.187401370184604 11.526050608204109 12.77316919006242
Au 10.805766983402638 8.036945520640925 14.520367605651826
Au 9.897182282030306 12.482992325557701 14.809127897875204
Au 8.800524183047381 9.946048993065567 14.938032590797885
