35
Energy = -88.64840177 eV
Au 8.467564423846058 11.70148248754589 12.784195759942733
Au 9.45664664861664 16.02330409251731 12.00884423764328
Au 8.248051937592551 13.812715023563111 10.905440502771635
Au 10.603750384902286 14.648540428712176 9.894222429266954
Au 14.8310941267356 15.839501545214848 11.134704855397612
Au 15.245737822679628 12.66876582330178 14.756316183115562
Au 16.39991976504519 17.436346068293144 12.770798730976333
Au 15.19607804771376 15.242238816124015 13.880648128988188
Au 13.027047795690734 6.641581711229148 18.382757051035593
Au 11.163261239387213 11.937811478684278 13.753071432779898
Au 14.305992907191332 6.117786550679706 11.70774705988476
Au 13.754977929502967 17.54957923124811 13.088183732871407
Au 15.332045072502908 13.850255050920536 9.396912790426564
Au 13.0370908601947 15.477740057202674 8.993728641879088
Au 7.591230053194863 14.505238290941138 13.557193358509837
Au 10.400745308412986 12.010288748193014 10.857488627062411
Au 11.975821991529696 16.742036845054628 11.161698122041873
Au 12.27775344307061 7.919928793787097 12.08226541136869
Au 15.236352511314847 10.653150456630321 12.852117443521443
Au 16.22708259223553 11.95667453897703 7.798928603189239
Au 12.82615077747229 13.969029296590621 14.393930838776456
Au 14.469314615637899 13.207589529493355 12.070704357265607
Au 12.740542537780145 12.857181535006193 9.802620556897363
Au 6.038877956694102 12.814703115455824 12.243373801583624
Au 10.2499109803966 9.67121840236064 12.497706491775979
Au 14.619284326482687 7.8761153690364685 13.76977386259792
Au 10.113445077300092 14.197282645189325 14.665979550607608
Au 8.821776857905045 16.620892806794757 14.666661864180115
Au 12.433465930545415 9.560384579276512 14.314841883575518
Au 13.551026283562607 7.91964648254964 16.257048063565776
Au 12.747878548509142 10.668317124901327 11.473793910816315
Au 14.871427566980898 8.645313552245383 11.020686846688031
Au 11.48281916729337 16.463984368880986 13.888251716085724
Au 14.918128990796227 10.127623402280014 15.483385668096815
Au 15.19895661612875 11.143773254193102 10.102938872006604
