37
Energy = -98.10964337 eV
Au 15.321866963672566 11.945613579163483 8.966697783399471
Au 13.579046827446488 14.064850759276338 9.570092560843104
Au 15.402121564500563 13.18516635703522 11.427296643269319
Au 13.478738900398426 14.947796616249033 12.40060860485695
Au 15.124143009740514 13.68402221485579 14.216655190884548
Au 15.864283014694923 11.188747355497588 13.255484762063471
Au 11.683505891990274 15.752312989541132 10.5222759322711
Au 12.486572442229175 13.86837670736453 14.998472338121877
Au 10.753406558499403 15.106899322595323 13.025089798925945
Au 15.219153390883152 10.013835839144832 10.897175385764866
Au 13.963421330297301 9.547748408397826 8.438312151560266
Au 12.908046958974362 12.204315226707138 7.595125913996108
Au 10.907866171970522 13.773995368490008 8.758087759958894
Au 9.077121285743342 15.015861701614703 10.601195435662957
Au 12.578995420937051 11.274070855333234 10.263184023395297
Au 14.00350684269301 11.361723140531453 15.35511536849973
Au 12.934944429081352 12.114232624912844 12.85389295554119
Au 10.497766107622867 12.685517284594617 11.491650419337065
Au 8.127155837666175 13.93425690856214 13.016487943318896
Au 14.235629149517202 9.0291501603778 13.280138117334001
Au 8.386399484553847 12.64474018667118 9.227720638129275
Au 11.22818451922152 11.38187629085252 15.572256377393495
Au 10.242635420114143 11.275827366678907 7.778223263644967
Au 12.161880657505561 9.917106521024055 6.294397056679636
Au 13.028501359309573 8.319159053988159 10.815825962027535
Au 9.786868688100489 13.676630847071905 15.138519553422148
Au 11.078906483036429 10.164784302070263 12.380955246589533
Au 6.5134956103184365 14.03423872586342 10.758065221527575
Au 8.778696887736546 11.379385672235875 14.092773604481062
Au 8.990663205605424 9.999607454821323 9.91110991267046
Au 12.656732153611076 8.974668134831553 15.519111801650585
Au 11.265133102321318 8.861999693665076 8.703751591128352
Au 7.467417360688734 11.578659314509444 11.643764323495995
Au 11.891359533887925 7.552494545312752 13.25062752327374
Au 9.996654506613533 8.979481553415598 14.775333751665912
Au 10.28055837679819 7.770023353179502 11.016334693095171
Au 8.401486181091727 9.130726181799476 12.497851746704615
