37
Energy = -96.97978437 eV
Au 15.069775074025276 9.12063069307424 9.259328388086844
Au 12.715396479526463 7.657426813585625 9.660641542500121
Au 13.9512089797796 9.156916095812415 11.797583570822955
Au 15.85738223954881 11.179820461976673 10.95709532855004
Au 12.856766518706884 9.69348083448363 7.660653722008732
Au 11.349121461544035 7.930244590328954 12.042806339487514
Au 12.475499936829939 9.513531815611284 14.079980787224997
Au 14.658756860540885 11.712366032349532 8.274976459418314
Au 9.895924657241267 8.044098678425202 9.454668468762534
Au 11.529680055245938 10.131186797243474 10.114110771519929
Au 16.449139043300494 13.492299226018554 9.359074240131992
Au 15.141183956613649 13.867841008459424 11.755222226460695
Au 14.514591957356071 11.426532964333068 13.366840110120409
Au 9.761136922971295 8.475917383013243 14.242719779970685
Au 10.129841552433348 10.16263752340252 7.592491291281978
Au 8.39653180950374 8.354074783369885 11.687307129623449
Au 13.233927051822661 12.082953293467476 10.781015561902905
Au 10.748102051941924 10.292737650824542 16.104593657555707
Au 6.929978214365646 8.910503393125355 13.954443381036493
Au 13.635612202031888 14.186586233121842 13.977532395468918
Au 11.75655993511959 12.394596783434853 13.11907435767056
Au 11.985048025945058 12.345714474809961 7.856252873012665
Au 13.834750698154997 14.31821785022827 9.071994292508313
Au 8.40203480382178 11.069010934359035 14.787917754239077
Au 8.323857157974672 10.467467519267286 9.705043097798285
Au 7.153380585829762 11.050097863516303 12.229682299194186
Au 10.522771478362273 12.635709681601332 10.668299124353707
Au 12.947895880034295 11.938838634828787 15.586304519827785
Au 9.976816232099186 10.534064111556729 12.389884107150372
Au 10.963408810036043 15.083447129111498 13.785910820909177
Au 10.28860255298074 12.975943464100343 15.462059435855267
Au 12.524435684436273 15.091385198965282 11.462618314666102
Au 11.139465936693352 14.755719136309459 8.969118703237285
Au 9.226168023783815 12.749029039997506 8.195763921153942
Au 7.792483849092463 13.14211183586968 10.579605412057337
Au 8.707563343687792 13.352185181193304 13.200653091966899
Au 9.658200146353895 15.20767505855905 11.30973289219901
