30
Energy = -76.32228692 eV
Au 10.074798765983514 11.657768088239024 6.349343310737966
Au 11.160769916017742 9.129529738004116 6.710650824811276
Au 8.564755436162917 9.531432224784334 7.361257368931875
Au 7.909784854257076 12.150681141666773 7.989206043074298
Au 13.846072783067248 9.628706036416206 7.047618807064342
Au 12.725927744636637 7.36306700563386 8.28576984473468
Au 12.466023322554863 12.03460081784337 7.564225687960266
Au 14.54435886524057 11.179759117595534 9.19750387504772
Au 9.956488600185757 7.390114056959663 8.600005591064974
Au 10.336523129894754 13.566940056777208 8.383556244604305
Au 7.36078946440628 8.13521403066778 9.343324333310248
Au 9.448344060425399 9.83858422026538 10.40859399479672
Au 6.826007432087866 10.761991614544629 10.054982033225853
Au 11.946297833604795 9.866809446307137 9.317515250344398
Au 14.157457556058995 8.72590970304753 10.558432645027208
Au 8.257524920768383 13.092466907483125 10.493217109672022
Au 13.85592695672888 12.15965332494346 11.592021534721184
Au 11.72440546620592 7.407156936947318 10.87017330751693
Au 10.427958478142381 14.757914410341789 10.849111700367763
Au 11.062776720113261 12.06822869778424 10.655043716336483
Au 9.082815127203794 6.69752099252904 11.107113983804151
Au 7.551289239720213 11.501343720426643 12.675251409047956
Au 12.301118929469244 10.016084431361664 12.213611869499974
Au 7.103749504838527 8.813954114000401 11.995366142592434
Au 10.285492107633518 8.409995485783227 13.041168445319434
Au 11.866923221429206 13.342960822123336 12.975630493315045
Au 9.097724822856131 13.708747703622992 13.08055085240953
Au 8.085403496790887 6.857963779240479 13.653705730926182
Au 8.22658028652692 9.52954998067499 14.485400139505247
Au 10.237327545870553 11.166767982866405 13.632064299110578
