36
Energy = -94.72796057 eV
Au 8.492674186530213 12.800296785191206 15.51774314432614
Au 10.484544528135928 14.085034096479024 16.83399144181658
Au 8.762522397625796 10.522534595157612 14.021092933918467
Au 8.092256827021876 13.097922089594972 12.852571296787366
Au 11.022862443846593 11.642782571715047 15.479328294650657
Au 10.31962653018967 14.456110222277681 14.064134500527052
Au 7.908763139579842 10.726541001954171 11.37655307875692
Au 9.131820551439656 8.321427902041345 12.42041067578943
Au 7.814559018414548 13.434973973953376 10.188970452585115
Au 11.349432424685935 9.334977771355247 14.075001498821386
Au 10.040890497529979 14.666813058374224 11.354640026478974
Au 10.872519089050558 12.0257944828596 12.616359383801909
Au 12.753963265972233 13.783556829114914 15.229731563141938
Au 10.40958042590462 6.738248728014594 10.300850265945515
Au 8.759166364502851 8.81314104970112 9.577583117745034
Au 13.807591372767321 9.065430417213646 12.449259483958183
Au 7.752818074318961 11.173673268846484 8.609772253650181
Au 11.154402029038854 9.659047357317261 11.106764104171933
Au 11.845652064484382 7.167047834470216 12.536964577040942
Au 12.594763002133877 14.567354176470793 12.44514793139285
Au 13.461198587927377 11.179621316988294 14.203707540504194
Au 12.90429902136173 11.703562685291327 10.773636162962289
Au 14.890032947642151 13.531286644544503 13.616521275146479
Au 10.253787268720984 11.92423222400322 9.845102303424104
Au 9.877006397976718 14.412190470111684 8.616227444460899
Au 11.013309746697763 8.128054993428474 8.041390822136325
Au 13.013483227944572 7.846596040734475 9.989303085820767
Au 12.44226814617749 14.409365974374058 9.666117972728209
Au 12.805710117077963 10.16207598260708 8.058206103598852
Au 15.446142269185819 11.223152564304739 12.236833933243641
Au 14.827833690298283 13.811988807732547 10.900862315655312
Au 14.907709231604166 9.771391196868052 9.847259206597018
Au 10.097352536504186 10.592337098189676 7.327051405277919
Au 11.770921700848712 12.741382709239724 7.5096668487087985
Au 14.32562425680078 12.519025275891975 8.437151255741302
Au 16.61924377497331 11.901524910701994 9.836233542143207
