31
Energy = -79.18522973 eV
Au 13.06965705358197 11.63931090055927 7.982623564069137
Au 10.177976097544756 11.44681271381918 7.700422542363293
Au 11.256548396144186 13.157180861960143 9.657085469101645
Au 9.63188541753756 14.054880963827003 7.565351148706207
Au 15.13030312762545 10.601052408637905 9.715442046591637
Au 9.054727892627977 9.088023474329551 6.901764710532136
Au 13.901256996530355 8.337911014327922 8.847556648027702
Au 11.684468533154451 9.124098946875192 7.54947914733948
Au 12.173060430533344 10.271896471355 10.12451351457848
Au 16.573860015749943 12.560119749896751 10.923753026432795
Au 8.380109577186449 12.745459190671445 9.58335542411132
Au 13.977686132717617 13.134447433279266 10.120028825902056
Au 9.454998561966333 9.38310169674276 9.568166721782424
Au 14.96087760579111 13.935045837247849 12.679354292758276
Au 13.98575822943209 8.741032654023464 11.599841376197995
Au 14.805926117002057 11.176855419234444 12.560416878655298
Au 11.202004641375336 8.28431146981349 11.697855225070741
Au 7.235158924407366 10.578360385057366 10.829049923496811
Au 13.09148178211862 12.688848231185133 14.275988146298456
Au 12.318184008839012 14.21158612880941 11.998971295037249
Au 12.537919162212942 10.070454950514222 13.564746117623953
Au 7.008244199461452 13.045360266153976 11.952743000487212
Au 10.90258300522287 14.389921700016119 14.411521482496285
Au 10.128476277559887 11.06024404977469 11.733045008816053
Au 7.955777722424291 10.890409661212036 13.581164486349815
Au 8.344680370600239 8.46805493492532 12.046166692706018
Au 9.865065072780322 6.580962337650111 13.315830399070386
Au 9.652322479572916 13.866886127603431 11.870419356933539
Au 10.484298156589839 11.718818303181068 14.598144932623525
Au 8.283544910968963 13.54069679723267 14.345786914918012
Au 10.039422628940994 9.108154690520527 14.245585692851513
