37
Energy = -96.80999821 eV
Au 12.58995588990343 12.712869435666233 18.41158465721012
Au 15.596955913368138 14.074949025786927 16.030306328708672
Au 11.811129750243769 15.230425947871753 13.7948335611493
Au 14.43372816849295 11.633971898516165 16.752447553510837
Au 10.258924522968279 13.151672039318061 14.793938804606041
Au 11.704772641090296 11.16692245763073 16.348141933920278
Au 9.10308256242243 14.904517258750712 13.0519145140745
Au 13.415138229030699 16.609612316428482 11.984431988683305
Au 14.5630497806607 14.598419613659688 13.510735936146464
Au 12.833267479655875 13.840375702691322 15.878284256938201
Au 10.6936540973633 16.958503298876913 11.958560519894473
Au 15.685764856984843 11.93817907186422 14.350600978302229
Au 9.001724840104513 11.24929941591506 12.861412734578874
Au 13.819116283388617 9.906869875823471 14.68448254836128
Au 14.300892365777099 14.389162230854035 10.677366078095208
Au 9.04707353032672 10.869000767250553 15.589391553951767
Au 9.013825232792051 15.60205599766616 10.277470409426682
Au 10.788447399234924 13.140395500190872 11.667731961312292
Au 11.809293866881253 15.394111224014981 9.978474153700857
Au 11.106210793684332 9.766661703786326 14.101387141864825
Au 10.03188131323838 13.471965156239694 8.900278774490568
Au 7.970181601632195 13.205416388789795 11.142576733319226
Au 12.719026837957262 12.31077757278517 13.467041786834052
Au 16.307361321314964 13.042223990683983 11.97187666735602
Au 15.193176484580595 10.43571304156022 12.15330314799606
Au 10.293743026253933 9.024040099623438 11.636839655382985
Au 12.984306445726238 8.726384761578695 12.373969651672883
Au 15.176278482955128 11.941823676519912 9.711777261955481
Au 12.830093964552253 13.24402623308876 8.629346058662215
Au 9.196408314750848 11.030896491937465 10.063996186324674
Au 12.604932194268825 11.33650120000454 10.909827195453708
Au 14.229865346029404 9.295261016895358 9.839691553494632
Au 12.110335894098302 7.520120792395258 10.119437114993096
Au 9.92365462199489 8.711359547439997 8.911722366928936
Au 13.861612223620511 10.96056746915003 7.5397886455162935
Au 11.107915072525355 11.121562029530352 8.009149094762625
Au 12.441024243205751 8.692284817060745 7.667549308627331
