33
Energy = -85.91616754 eV
Au 15.263422699728618 11.099493812188673 13.178697488789346
Au 14.648499860444945 8.680257010553404 11.649428921656428
Au 13.810936322440721 12.692801035261487 11.297719380525589
Au 14.267134884130632 8.90768737512131 14.46691369978039
Au 15.81992939983757 10.77200350857942 10.476431460201473
Au 15.23517177883801 12.678845064632212 8.633492105780348
Au 14.567319924830388 15.05476037130005 9.82940426139005
Au 12.987306797161969 11.413027054195792 14.829892477705233
Au 14.35710636930914 13.625167027667642 13.920966602115927
Au 12.680072882224367 7.243478316531744 12.883052143068571
Au 12.365386974412516 10.34025969160827 12.208032167740843
Au 12.274835816897296 8.136234137169781 10.278881224419495
Au 11.985738242247129 15.969885866205283 9.691656623304008
Au 12.611394262060916 13.465353170970232 8.579844717597885
Au 13.152438342399439 15.34029447326037 12.169862511026341
Au 13.177474371088824 10.757118913592725 9.39093885906534
Au 11.562103492976059 9.003971957109615 14.770694395171331
Au 10.996650758695704 12.372849961033443 11.089421721130481
Au 10.242428282524596 11.440073095938146 14.71578176308535
Au 11.607852738478156 13.672351514939118 13.801336693032228
Au 11.644152615631864 9.116700712093174 7.798778777515942
Au 10.20571400794589 8.181981099336088 12.16986475838038
Au 8.95389664409 13.400811950263481 13.20357807776297
Au 9.979521115401301 14.18197776828391 9.06132954373046
Au 10.396262303830632 15.240217159311689 11.80386880069029
Au 7.515302491259363 11.288027176004388 14.237846978916973
Au 9.777871791192771 9.467309842965395 9.775676031493589
Au 10.633119387027497 11.625234576055975 8.2172130020171
Au 8.89389302505063 8.946749059117218 14.43847170867962
Au 8.397237175588627 11.902229195631776 9.801713089537063
Au 7.90979044745073 14.528786031973626 10.803413157643158
Au 8.118452897913023 9.956528583253524 11.852957297708032
Au 6.6635937187879914 12.351754090850397 11.882986959345121
