38
Energy = -100.83693774 eV
Au 10.966235345868142 15.901252628291203 10.24921969515412
Au 12.750021924646305 15.020928200558073 12.267004329733625
Au 9.895574374356208 14.657910755460714 12.417882965921535
Au 15.240013226407234 14.01887927006472 11.137090059910616
Au 11.613087945409003 13.465579256335342 14.275676934575442
Au 8.986300582340565 14.216032899621455 9.439145999398097
Au 13.53676048952777 15.282011180436902 9.535385817951072
Au 11.56083383973718 14.134918006233084 7.993347147973989
Au 8.600642360536787 13.14042700831519 14.280712552028662
Au 9.368419783332715 12.761422993719219 7.133119611038674
Au 11.574267320912135 13.040522931484714 10.624625999305536
Au 10.355017398340847 11.444658692144754 15.748645038284995
Au 14.296372785387398 13.173880982266446 13.620619899844087
Au 7.716382895419553 13.185113391358826 11.645140781105296
Au 16.950654887433096 12.519172701928499 12.707527932316147
Au 13.901420991304851 12.664874819440433 8.811838829219946
Au 10.201665090386054 11.478724766007012 12.622745471449635
Au 12.805805972220377 10.974751288330795 14.663480796962379
Au 7.722990499667903 11.717866795126026 16.437781211790558
Au 15.604158774279162 11.36847231591111 10.537954047065309
Au 15.182770097696139 10.565920895737579 13.292176155215948
Au 10.587024466463284 10.545476977855603 10.089998399183056
Au 8.22831810091282 10.134538314973712 14.308346168332076
Au 13.37899668529359 8.52641096262385 13.272603704932836
Au 11.828428643559299 11.33306363633378 7.5745450025897405
Au 12.821634460615055 10.855314989758263 11.719054947142698
Au 10.843949118795777 9.048730171536423 14.320634870303088
Au 13.71217312775141 9.920789645902355 9.05770593733181
Au 7.927280983908954 11.651090725629325 9.28878439779294
Au 15.232850685306639 8.726210100033985 11.124165597064895
Au 11.419215843812221 8.521822237268458 8.341004713039704
Au 9.343491809751642 10.060390592881475 7.3958255487818825
Au 7.5130731689307995 10.484617298058676 11.714246693205425
Au 8.98540772816458 8.261036495673144 12.418350431195542
Au 12.809061241734902 7.674438853545806 10.567607917645946
Au 11.351296910987614 6.802087797290749 12.786773032360472
Au 10.169656970442261 6.943445582973568 10.294098908679448
Au 8.373752770435955 8.862971497634794 9.674612268172721
