31
Energy = -79.63453523 eV
Au 12.677684240942376 9.383721677000718 13.746223087907543
Au 10.104750156499009 8.65764707603192 13.077685793029346
Au 13.226897209445355 12.039088602349363 13.636476843806614
Au 11.037767749807342 13.669203365640245 14.313749796491159
Au 10.650564207833897 10.98426602452318 14.576549936580484
Au 8.016684644500838 10.434299264013932 13.644177101913208
Au 8.524207811015918 12.73136167237247 15.020394770779104
Au 14.178693662019851 10.209923242039217 11.613700794562055
Au 13.366989021365592 14.688431975942265 13.04635008730765
Au 12.403875791983767 8.039334456371654 11.426446009082088
Au 9.792058275549484 7.349286956514899 10.667640471126374
Au 7.499822043233145 8.184160889251105 12.057517711149927
Au 10.893273490131316 15.745192723621276 12.547555465878885
Au 11.285130141062234 11.237560368195146 11.725509529929589
Au 8.938293908212804 12.86997982938655 12.333970556184129
Au 9.404587689253399 14.850517529065323 10.47989129062308
Au 8.651061850197351 10.461224958402692 10.918570729329137
Au 7.770373302554775 12.8467194873637 9.647037611678963
Au 14.588107077224704 12.959781624760835 11.279441137733698
Au 11.057937583676818 9.749193114754094 9.45204286441106
Au 11.90466124157156 6.983626079744629 8.963834463308796
Au 15.541853849968824 11.226120582885212 9.363359218825764
Au 7.595748422743552 8.37863421018893 9.323819700782328
Au 13.844189182903452 9.071846118578412 9.082281990729873
Au 12.041879110598435 14.002062987391712 10.704642812365812
Au 10.381838206175715 12.789822095166262 8.855986723097878
Au 8.532282271048807 10.734852913850728 8.096227812745665
Au 12.932277811851494 11.891957177094024 9.135859039969855
Au 9.673249588888032 8.262024944463048 7.53644018427782
Au 11.050611010161372 10.971034475872385 6.923336305203072
Au 12.3256656394254 8.576559266741043 6.785482580559214
