33
Energy = -85.43154808 eV
Au 9.906491994847899 11.761219125381919 6.43030858141992
Au 12.635601863481911 11.497712417483186 6.560458720639046
Au 9.888211753600988 7.883380021953817 14.631049608233182
Au 14.581461834807836 10.422596433209211 13.552268492570951
Au 8.114138436829796 11.35471869539099 10.749181677328213
Au 8.688156344562758 13.065165142801332 8.569215091245622
Au 9.89973475031909 15.52311118005525 9.041674966777938
Au 10.197098610100415 10.57111959210514 15.096561735583645
Au 10.417348333172717 13.316057315889976 15.456104724857337
Au 11.09891543050747 9.717598940460434 8.028671433187425
Au 10.51472970180439 16.17804501014294 11.646351967057923
Au 11.450718743583847 13.592106698602471 7.895457751801732
Au 10.777846344449491 12.065635858252996 10.52443071519536
Au 13.355678295582338 12.131413453527578 9.21956983181744
Au 8.605520444236808 7.045297059637397 12.199508828989348
Au 12.261368596724015 14.473600004798081 10.414152675076526
Au 11.91208060107038 10.198724278816671 12.132189417109975
Au 8.679057491820009 14.102884388107658 11.126200926202204
Au 12.457117683923556 8.941706266764598 14.61157401698402
Au 9.124937679801741 15.061400183966834 13.738258120480573
Au 13.950336501544063 9.658923899857326 8.094997875851199
Au 9.633011869020669 8.758601749687566 10.17502673167377
Au 16.399581796227896 8.824813251762597 12.331452119434758
Au 8.41858513179747 10.328027563515802 8.270271967033947
Au 14.642299680501456 10.216318629398101 10.712815208510476
Au 8.913366723681762 9.677450994858232 12.748976332464446
Au 13.52375652729485 12.528147790017274 11.958525827012526
Au 11.263484578436062 7.406750989200832 12.27286094234689
Au 11.845800023829364 14.291138519042958 13.195807116424849
Au 9.149262857829049 12.330179957571245 13.189604720340423
Au 13.886848917737508 7.875191278685485 12.339674845817596
Au 12.463763077701687 8.350475346388885 9.974249936851702
Au 12.574369946382243 11.925058953536928 14.522293160522738
