38
Energy = -99.68714135 eV
Au 15.474752162278941 11.46548041804917 9.899968578543138
Au 15.223823081658615 9.49696619610076 11.869127472048348
Au 13.812249285335348 12.474058564255333 7.776126968286505
Au 14.213199536818712 8.982489853372108 9.342852526352791
Au 14.838387308620739 12.495421452084114 12.433076347920755
Au 14.051694560039364 13.924607110061267 10.207990678739453
Au 12.583372810319286 9.96116163086295 7.390825635741812
Au 15.074678196884955 10.649925073454714 14.486864456616035
Au 12.993249114370125 7.711207276619382 11.480913347896964
Au 13.90412916310783 8.162836743064819 14.051146940911725
Au 12.67776558662786 10.441193846291648 12.669732142974787
Au 11.70955451943531 14.108032648827594 8.558911020389782
Au 12.747939272333195 11.372307805127827 10.0894800752757
Au 11.279224794723325 12.214176370836771 6.52990593907648
Au 10.724096325746164 9.741282836648221 10.78587040597289
Au 13.337654908002838 12.776847817173019 14.779901463464489
Au 12.359444614060667 10.04498854125792 15.418376728406024
Au 12.363149671806239 16.064507935446954 10.466520412447288
Au 11.635728809586283 7.914220252168571 8.88868924051632
Au 10.344714744394711 12.455920290332854 10.722950783549594
Au 11.089953389557875 8.168881296685116 13.626298310052794
Au 12.923929749752478 14.570493492950801 12.730566373668653
Au 11.013175334669597 12.253318304278976 16.1887614571878
Au 10.944859404826655 14.737337745443067 14.80351232275082
Au 9.845484509562063 10.193718349330641 7.873328515145527
Au 9.74774218884637 15.1094461675486 10.232655185144617
Au 10.960159523376 12.4229788117097 13.308678619029546
Au 10.724049218311437 16.408714978965808 12.596599615387492
Au 9.186238032159416 12.865925557012519 8.268847937881825
Au 10.353817998506678 6.954261314284979 11.261091238981873
Au 8.803802523043887 8.087383615724208 9.30582524362865
Au 8.578345562481791 8.904988903417516 12.349783636660897
Au 8.846803625238628 14.373397829559055 12.813803810237564
Au 9.58442880147926 10.239739520069886 14.60280987791785
Au 8.035262289743402 10.646405323522444 10.021509257908967
Au 8.58183326015714 12.877316004325154 15.097630509356884
Au 7.633127742002871 13.315158463905366 10.554245745319237
Au 7.975606194844475 11.59032947394068 12.692248993318136
