32
Energy = -82.44957709 eV
Au 11.013277390000573 15.142375117649827 9.92197021246181
Au 8.924176998902386 15.102270337084702 12.10611390301454
Au 8.5382740172766 13.951371648979556 9.655619585911566
Au 10.95054947737165 13.278653825598374 7.857007158203052
Au 8.271163143856784 12.664341832928978 7.332138187203628
Au 12.664003007580458 14.759345051748626 11.990902437873395
Au 12.855164478695924 12.97307641775659 9.882486479119803
Au 10.64337192266631 8.916959531847407 7.5754408895002685
Au 10.44774050926258 12.775631981523526 11.606794753084834
Au 7.501604797217118 12.72175451312279 12.01304303164312
Au 12.517540898074971 10.914558872078754 8.045984720882782
Au 13.457979877641247 14.062258335244419 14.49081329122921
Au 7.325567777255338 11.300594495251499 9.708171843576348
Au 8.095677733729973 9.975543918973548 7.331686492415339
Au 14.012761933236774 12.310515566246677 12.362266274647961
Au 10.688939826842939 14.317040198690561 14.034771271894066
Au 10.072435913257648 11.112256155985524 9.340825532929808
Au 8.609868968022374 8.688835734962817 9.713189868193844
Au 8.483285038777991 10.108279669066574 12.076988079752011
Au 9.110753611088418 11.915934264515004 14.085118208258942
Au 11.866082350967886 11.85129399590092 14.267413209133062
Au 14.202219377777698 10.541064120153456 10.209136882010348
Au 10.469990886890695 6.726597678275094 9.190025813914316
Au 15.761081923452426 10.182768231810671 12.462654954605577
Au 12.845687672699244 8.355786990599404 9.16129841975744
Au 11.616279594240659 10.316063013923106 11.491247914902043
Au 10.001693255498267 7.745395612370851 11.824150804530943
Au 10.486163699430254 9.466923968292564 13.988523060507008
Au 13.401353007203019 9.6983209681023 13.723515012952545
Au 12.345813368372406 6.240924857874521 11.024998181447422
Au 14.244401247800052 8.074198492184124 11.562493354562655
Au 12.132606099277474 7.309214098391844 13.493720918103254
