32
Energy = -82.47981183 eV
Au 15.120378389309094 10.903273414737958 11.677970885574357
Au 9.475659172054627 9.111350519842352 8.55151836915676
Au 12.267962755828732 8.939639784178683 8.324301718448027
Au 14.284313448740036 10.848543319529952 9.017931366473377
Au 7.256110639575509 12.918059031969767 10.008952559922001
Au 8.365703546617631 11.862130420713589 14.211601566748438
Au 13.703200318808076 12.94689538723431 13.292717453766166
Au 13.584916894979813 8.73635232534299 10.762169908680024
Au 11.635409918913723 14.065836188640969 11.521698424507962
Au 12.291407361957551 11.26447336466073 11.547081760072205
Au 8.085509992620027 9.119726908661644 13.804502499419332
Au 9.696475348208216 6.986363152974757 12.920562746186903
Au 10.666211828154793 13.482918485083788 6.824357567111261
Au 9.508990177025638 11.081439992602261 10.73868655516173
Au 11.504742683037874 11.645567144358248 8.989963639627511
Au 10.97273113632117 12.623206643130441 13.923984492150757
Au 12.797742993317385 10.552826876220486 14.405511305244323
Au 10.8114515578747 10.507061346663832 6.553467027787935
Au 7.074319435327689 10.196878805067872 9.364842469283484
Au 12.395374536641754 7.444786575466553 12.930445452532988
Au 8.268948427322828 8.406770817550703 11.043617192844463
Au 11.004957882611395 7.7694186696250345 10.503396562062182
Au 8.691281203406005 11.840667773600506 7.826337353431066
Au 6.96293704654088 10.990717165566238 12.039885068810328
Au 10.242214139964956 10.298937981835309 15.461043073264241
Au 14.66647692356631 8.85087548020232 13.415017488574474
Au 14.143803426618303 13.23369105998754 10.543950781376095
Au 9.69576655545786 14.022213586999177 9.451251492861308
Au 8.99706820713807 13.532963006970926 12.146388102021094
Au 10.597511858289288 9.599181156573684 12.800118731090038
Au 12.38322361115885 14.354396080841925 8.821274331816356
Au 13.14538174911072 12.132590358243382 6.869620408151017
