39
Energy = -102.73581165 eV
Au 9.565070634401593 17.056217275606393 12.580679779504326
Au 13.912215091813307 16.33177774224172 11.792569381491079
Au 13.009464069112235 15.473927354009662 9.277270516756966
Au 11.857669774849429 16.092237286420247 13.606340366145997
Au 10.661399906758243 15.297226320290278 10.721492206588447
Au 15.773966529299612 14.261420252100606 12.008712201894143
Au 9.385898487723347 15.110212514641196 14.637724195042406
Au 14.204232237611999 14.872707664725803 14.227216510977863
Au 14.211258901378004 13.041345077404829 8.782324868193351
Au 8.243317081445076 14.744557159110617 12.059064499521615
Au 13.001819487329664 13.748148292164132 11.420025636339213
Au 11.926631047844998 14.317647998284455 15.759004241756678
Au 11.483805104118309 13.125691646990651 8.91625420226808
Au 10.927601437711846 13.257591527819763 13.17734218421344
Au 17.05796493036536 11.754763800690863 12.059266345430865
Au 16.20469210622671 12.979059797206618 14.445874063674761
Au 6.649274855048519 12.601835665672642 11.306369439340582
Au 14.188935355940213 12.938481039074212 16.357596086375544
Au 16.746224238198565 13.129111824943074 9.712247552965184
Au 16.46979457484763 11.487349315327299 16.847979835711573
Au 9.085444944782859 12.983215554238557 10.146375403634211
Au 13.596720386827547 12.049774254398844 13.430615569256414
Au 9.746853172406912 12.593215459529812 15.735166967059765
Au 17.353840779208404 10.46372588966254 14.432346758027569
Au 8.16589548621798 12.396006014072643 13.568503945663558
Au 15.249300835304807 10.81117679065132 10.142495831896317
Au 12.070797667218292 11.207069899781368 15.757630065495032
Au 12.86547941952155 10.64231306018965 8.679538140287953
Au 11.729886840109998 11.303608668011057 11.43954257630547
Au 14.623656771002432 10.167511118537092 15.348836093253535
Au 10.097380010419652 10.702023828585462 9.118263957817975
Au 15.308202325986434 9.657630899246746 12.681118219769205
Au 10.0812102421314 10.388091076977833 13.948883690846195
Au 8.50433816038312 10.484442460077835 11.545683425001497
Au 12.638179992818639 9.30973311462558 13.651702635678115
Au 13.391069476767465 8.9350494625736 10.934625176264184
Au 11.480642021047089 8.270922313765205 9.09864486633053
Au 10.703107568824796 8.675484784904198 11.826099165968555
Au 8.829679047427687 8.334766517253227 9.848593571998595
