32
Energy = -83.05418818 eV
Au 6.813648798699259 8.862412882160905 13.100877174228287
Au 9.081020687814162 7.611754401161995 12.072586133150464
Au 11.460846602195502 6.874263522625423 10.940194370672009
Au 7.396163177635482 9.248272564827698 10.497982019789193
Au 9.51116216611094 8.022699266533667 9.267963445873166
Au 12.060581644632839 7.512012166207011 8.3367266790571
Au 13.68065882567036 6.9477183848599795 12.610151858438343
Au 11.435904664967762 8.293965699460262 13.423822966739351
Au 8.2235709957144 10.233108789068492 8.129994194298947
Au 9.283187233705023 9.938837304558364 13.645983344006863
Au 7.262697826261582 11.50272705604095 12.396324445346584
Au 10.534800795594677 9.295748183432169 6.944520812261635
Au 11.53981356347894 9.827586589084577 10.983116516266525
Au 13.874920016365492 8.403054998567134 10.2137950714714
Au 9.390318057600933 11.378560720498168 10.524638068691313
Au 12.727327825782567 10.255870092638075 8.361997994889197
Au 7.962734434256655 12.943595932328943 8.594511452948696
Au 9.525555006148233 12.70806452614998 13.441009570678268
Au 13.960703956188743 9.654412972494017 12.863614168919732
Au 8.208531497148924 13.87366150479468 11.282588424309461
Au 10.518227682936143 11.911717890218217 7.842051466548654
Au 11.74800003063018 11.015098785835562 14.011177004265331
Au 11.793723761766135 12.549428332927265 11.288492667591639
Au 14.312238018280969 11.104005891774186 10.442977951001057
Au 14.018607802310775 12.36035903878122 13.096891923116452
Au 10.251588348229408 14.226073456615513 9.365920150816384
Au 11.815942937449622 13.693238271878537 14.470005619227857
Au 10.588003350561769 15.013247610625132 12.134944667502623
Au 12.888013633986724 13.025800916903478 8.671332763140834
Au 14.720931510723139 13.748921754044774 10.69417146101125
Au 12.553830354607074 15.398558306580016 10.082966298848062
Au 13.332859289050798 15.03469028820031 12.687793882853319
