36
Energy = -94.94259106 eV
Au 11.279504262630695 8.455644840571294 14.699588037147313
Au 13.654305749558505 8.733622138070091 13.08608757058676
Au 12.867541484895536 10.908699113103303 14.720926301632158
Au 14.65946211056825 9.200685185516628 10.560903186111133
Au 12.274154514837637 6.355470156888504 13.245553244303395
Au 14.615261618099773 11.238005643355878 12.531937800629795
Au 13.898913344630564 13.415269092840262 14.203089635452283
Au 12.37193903981187 7.572010244087596 10.816495984390924
Au 15.140003045259435 9.72907477352738 7.866004388746408
Au 10.163972599216825 10.790470259063133 15.457634726001736
Au 15.010004756712398 11.85823831789612 9.734748348191221
Au 14.745755494368751 13.856947296190755 11.58455361968331
Au 12.662486627176808 8.751344277622856 8.358160326007898
Au 11.19554146759404 13.278001644087963 15.077375561730852
Au 10.954685501721587 10.294333886395918 12.623087084998197
Au 12.28270651747721 10.762061279190481 10.29830741750644
Au 9.951523854504057 7.585530976963479 12.289158841528796
Au 12.375339808026752 15.72697026753757 14.497317640678634
Au 8.422313649339292 9.66224334660548 13.586980109687634
Au 13.08453681562014 11.626586418733968 7.707037651964263
Au 12.917764200906925 13.84286373343817 9.48754221416702
Au 12.519272485907244 15.520640407344262 11.743262088359106
Au 10.086487133947239 14.96195437586601 13.114349731028499
Au 12.022661515609501 12.807998425618404 12.216193933859829
Au 10.122354504565315 8.475928649224976 9.514619912039127
Au 9.875240405543735 11.956167825503071 10.710595257568496
Au 8.853757064294921 12.469293487195895 13.674510733637176
Au 7.867927254191778 8.764995608944224 11.031750173671405
Au 10.577357501017252 10.337879612498144 7.525910979333051
Au 10.79690251029394 13.15176753439224 7.919924374258913
Au 10.352478150541375 14.770847110231973 10.207585704387938
Au 8.114758150235243 10.463406327835063 8.92861103792706
Au 7.284536934172685 11.407857137932606 11.535049575032806
Au 7.999821154679685 14.101492319771937 11.592204303748138
Au 8.631586144186832 12.030631799722393 6.659165480097174
Au 8.1333371459395 13.336927893010158 9.008808620769765
