38
Energy = -100.88142278 eV
Au 16.189327574065853 13.009659427976935 11.164633774437041
Au 14.877386541857607 15.168611525818116 10.01224490621054
Au 12.752770912767739 16.25398560868587 11.385235609919054
Au 10.519044883195143 15.726270575501651 9.75433931929357
Au 14.790119677679279 12.662686185049523 8.79890636303963
Au 12.604519670348127 14.320716668107087 8.74457861587365
Au 10.087734680173362 13.183322511829576 8.842117756683752
Au 14.65082742413845 14.760454339361916 12.7426087280735
Au 12.109949842437965 15.35998706846427 14.004059828813523
Au 15.412096751077714 12.168702907527862 13.683438041473844
Au 10.095679765189685 16.35930522243236 12.392758341940196
Au 12.306850467465333 11.55384677630124 8.297658777862853
Au 14.475146150612586 9.984977220394951 9.235641047845952
Au 13.54402013880604 11.804905855670015 11.319523986771685
Au 11.55646924836042 13.6960326527024 11.57734388620045
Au 8.672244095710541 14.194050948335263 11.18227533333709
Au 15.891806514141665 10.290363558924543 11.594442536906634
Au 14.079263267445178 13.959739098881634 15.241372057684643
Au 9.77129524752095 10.495329343257946 8.356337638921323
Au 9.555196172229586 14.109092674071052 13.869020176185009
Au 13.534873935919293 8.688701475549756 11.515370703825797
Au 11.513673596564779 13.172888539897759 15.788440653739196
Au 11.898707151895037 11.684348926798972 13.488908014096689
Au 13.811796183330848 11.344141320348907 15.859717077203738
Au 7.816346772192598 11.927165709764045 9.829789700318642
Au 10.865314536375154 11.04371711590827 10.991518205289646
Au 14.686121063755623 9.492900018139862 13.932499030775327
Au 11.959484364924448 8.899859051978229 9.160840940468297
Au 8.357596522231903 11.859510557201837 12.605354343751824
Au 10.829052014208303 7.995040015066244 11.541788293425364
Au 9.215776070974664 11.753987085378693 15.187086407169968
Au 9.728093806650683 9.577027621025518 13.537390878542803
Au 7.235849676781519 9.47741534666222 8.584035755661537
Au 11.29792377629734 10.13459856826002 15.819749558741727
Au 8.430791311617483 9.504792041797865 11.118376846302525
Au 12.174970757711295 8.232495402575644 13.88839817059609
Au 13.51010749018504 8.60464860223302 16.274914041480155
Au 9.396570213514462 7.796887378210112 9.178769182012156
