39
Energy = -102.71059976 eV
Au 13.650739779598492 8.85247869485157 16.53662717037168
Au 15.135022614608227 10.584478175919141 14.99183072984858
Au 16.65075391146599 12.54387248196136 13.729911146684707
Au 14.285782120651213 13.232671262230786 14.873274823190497
Au 12.583486486414303 11.344222109605502 16.02449806624007
Au 13.391213922377919 15.50136386911366 13.682440004933946
Au 11.529377873269802 13.653672874318572 14.899144854967691
Au 16.059204011692554 10.223152218791887 12.347075119118674
Au 14.311038270274167 8.099863898610419 13.951979461185084
Au 11.581467752419462 9.05394879512131 14.671964557563555
Au 15.687692177556814 12.76693837222881 11.199258700444068
Au 14.841748695013225 10.519727311905303 9.771633821463377
Au 13.29801778942638 10.351230302553146 12.659315883817927
Au 10.694760149792543 15.634299135927145 13.063935480154447
Au 9.902073084578365 11.35784385292591 15.399921368109794
Au 14.39972830385308 15.153769058018188 11.06734277461123
Au 12.609585088915253 17.173909020208555 11.636302133428972
Au 14.623882548457495 8.155501239086217 11.230530704416458
Au 12.929386805014266 13.101557005072632 12.364229040643966
Au 10.075898072803806 17.069004729967105 10.651302676055307
Au 10.382265558610351 13.449075688264742 11.095263279345712
Au 12.08367938696102 7.691967856969361 12.202091365295354
Au 8.242090087158651 15.278540788080422 11.636889253019978
Au 8.008644748778554 10.803363697533246 13.436767908912278
Au 12.080814549341168 15.332659272954382 9.54630321768072
Au 9.546864345727968 8.61902614694466 12.873131871564267
Au 12.062757381869758 11.33798619029298 10.383214766533793
Au 8.996659983690941 13.474755307616132 13.708680590554222
Au 13.936461477530312 13.204690308370324 9.089505605118331
Au 10.727680619289401 11.243798172231168 12.793370546532119
Au 12.925935121906136 10.916652467227697 7.77318704834931
Au 9.310235925167692 14.973783098064319 9.021577541800633
Au 12.656443736467146 8.63965400553086 9.391969231111965
Au 11.223262691981002 13.049446336182507 8.206779519187425
Au 10.136652122620948 7.999341691117629 10.266024359873262
Au 7.515537086502145 12.654902715402933 11.421153202077178
Au 10.327181886685105 10.098789237875208 8.5109420224971
Au 8.6687462434287 12.256341160252354 8.96471039229817
Au 8.460358436431282 10.126017422369584 10.7136738862264
