47
Energy = -124.92626327 eV
Au 15.65764067682121 14.078047181945601 12.04047267619871
Au 13.453044161250581 12.859486589820374 7.698566690558513
Au 15.52921992478003 12.415389980091994 9.810465270162101
Au 14.416106595340183 13.661252022797312 14.501709653831446
Au 10.777557801089337 12.355001984506012 7.114103218170131
Au 11.333001761138249 11.324825010587535 13.73275437115877
Au 10.77622571621595 16.45670736618939 13.275090565687417
Au 11.004421010744897 12.818031276312361 9.90294716244679
Au 10.637239122931742 8.5354369474469 13.938182925144233
Au 16.051759079554937 11.311804261514359 12.341314508846922
Au 11.540082570085119 14.872256186837566 8.036854244219136
Au 7.074218419906751 13.133443677553872 10.420156624691382
Au 13.32930260783188 15.489102981954982 12.677279315915582
Au 7.533034165918667 13.006064903307331 14.12005582485178
Au 15.285915949911793 9.359243933085052 10.45540007910606
Au 15.278889286246743 8.880455145642209 13.282280566288483
Au 10.833805381830528 7.379051354314559 11.393948901416962
Au 9.218727488037265 11.940201195448818 11.864947640093959
Au 8.575718040579897 14.889344311828804 12.093145963717108
Au 8.830967364450206 7.941044465206304 9.45030358225696
Au 8.636052388342323 10.503103728301875 14.45580834093683
Au 12.797902142693825 9.596745672247378 12.07192926211206
Au 14.101754903889786 8.072346263615302 8.18764817978281
Au 10.777017404852733 10.111327777045686 16.296381663168127
Au 8.13058555640825 12.435675202821292 7.90908803254287
Au 7.661636078025985 10.450868073003665 9.776384032307513
Au 11.22079068885972 15.851016322853106 10.6167280248189
Au 6.651944577447128 11.074495719604958 12.36233324882941
Au 13.438019955199941 12.33151579943837 12.200036768942699
Au 12.847076642914356 12.042676549140609 16.063451071865817
Au 12.282632131439641 9.99927205838232 7.234030758240839
Au 11.831888154043051 14.511359590633141 15.180245913290833
Au 13.025915764461683 7.136544467685758 13.321119191030526
Au 13.629958599395547 14.50243545411105 10.01869486578087
Au 15.289735582251653 11.09019351209139 15.026882475456821
Au 15.06455327923445 10.57722564365489 7.802500646461642
Au 8.59203455172069 9.01369495533832 12.071658441143938
Au 9.825830402248394 12.654600750412902 15.895696759150539
Au 10.591159490242402 10.060673565206605 10.262374918920754
Au 11.102008963751038 13.765636515253624 12.558550811487327
Au 13.47241793117037 7.0656205182564475 10.615743522173032
Au 9.0912885997366 15.070118413666412 14.898329446024292
Au 13.083968623475736 10.995464812194411 9.756197720191363
Au 13.14319818833379 9.360535841784513 15.06057507060421
Au 9.497458303959467 9.988524462820049 7.621364935386868
Au 11.445011440409559 7.713491095776396 8.652980311928832
Au 9.01395144850624 14.701315375947733 9.315954720337553
