44
Energy = -116.50268417 eV
Au 11.52525951762339 11.481181599113228 15.507009663593408
Au 14.098845393457404 11.756955562606175 14.430655242559567
Au 15.473682305089122 11.709743218303876 11.83500974175574
Au 12.42715341315112 13.991077186734346 14.746521226806188
Au 12.663942294665043 9.152840808958604 14.479126269199202
Au 15.20344367240935 9.42831024529961 13.366014280854529
Au 14.283324937178927 13.981376371423272 12.748437293823516
Au 16.547049253128467 9.428184618814875 10.685535034131528
Au 15.439984682212582 13.991941188779306 10.22815181925048
Au 12.716167075338571 16.233383206009986 13.085034837057052
Au 16.377530908014705 7.196240522195768 12.3013993077637
Au 13.600063634275877 7.3281415043589035 12.492241076711911
Au 13.05238415301527 15.279265746381231 10.48829109003097
Au 8.774835594659537 11.492679429041639 16.004879624830014
Au 9.039865094034223 13.342616470586448 13.783304528075082
Au 12.647566207333341 10.876184761594383 12.285007947836284
Au 10.158117807461423 13.889849463074126 16.270115540588613
Au 15.618099430917741 11.500460197947971 9.049945035702791
Au 11.402045594731419 13.37598693578859 11.97586278599725
Au 9.891510398223344 9.446924246601197 14.572280046880616
Au 10.246398029656714 15.802235935558835 14.298137000090875
Au 14.90275158101564 7.012090525430051 9.9932884567499
Au 7.965919189774751 15.823605737345469 12.783500504728705
Au 10.434171992011768 15.976694657712516 11.481561371880282
Au 7.446810193112623 11.083480480059528 13.555535232392739
Au 10.95501339098142 7.961919502060016 12.530815141822627
Au 13.840985894084683 9.650874941647308 10.129111179215936
Au 12.113786035664626 7.438540247266716 10.096121872286288
Au 9.883959105961145 11.053947366060674 12.084334970273595
Au 13.637172108575793 7.960931382217591 7.768709532390514
Au 11.558289217299686 11.281900782230192 9.833449112322269
Au 13.384579022734156 13.237633297031968 8.543212249515829
Au 6.43615949351365 13.485132244821486 12.586031535757341
Au 8.756450088616756 13.713247292507104 10.99188681489416
Au 10.865476261178863 14.394807688077707 9.155158274021204
Au 8.257356035813832 8.656268933081012 12.510934983717485
Au 9.631240192698357 8.715114594494498 10.164121319422064
Au 11.167558994114657 9.116345318135265 7.8624462921564335
Au 13.380705681763374 10.72028889180616 7.480326884461151
Au 7.442384359415954 10.70414918037473 10.721230553578378
Au 10.97311921505317 12.277962237325124 7.331175677292447
Au 8.935360799554667 10.638210834082837 8.386480217918878
Au 8.530092168984153 13.30000001274914 8.22829300515991
Au 6.364083800249512 13.109592202897213 9.851017818908199
