46
Energy = -122.71494673 eV
Au 10.849605772807282 7.700213906793584 15.898129431543666
Au 14.056665012492303 8.268540581456133 15.390255147993413
Au 12.22159288842703 9.796944338813192 16.86323695442551
Au 12.12664639510873 7.06738692707879 13.647271602449232
Au 9.232357144749782 8.174802999791012 13.736850776402763
Au 9.96202863312687 10.381106369227945 15.384759996345597
Au 14.534469948021876 11.102209023794957 16.245951860812823
Au 12.686765136152177 10.241418319161419 14.00445158716051
Au 14.74365637308599 7.773167433990146 12.758731035025644
Au 15.504962187252298 10.28485956217622 13.830639481327417
Au 11.95235982535785 12.412812686757265 15.738919035453542
Au 12.986969124523949 6.245953092446782 11.216695641750917
Au 10.519014921209088 7.462421952768206 11.4095252833129
Au 8.200973820774752 9.241684129438832 11.14394640720558
Au 7.952510629393477 10.846167714426635 13.474711004195997
Au 10.455804784666851 10.324737569287601 12.412477375858463
Au 12.831632669022529 9.458275591113072 11.352234570351706
Au 9.544638389899335 12.952110555229721 14.41090703345453
Au 14.25545623514123 12.928497016205426 14.165791818171918
Au 16.192565997362227 9.666262039445758 11.302838501557924
Au 14.575677746299508 7.987907492487386 9.820630477598725
Au 9.912379608846924 8.672930665418107 9.076134347294794
Au 7.033442687870966 11.774334118927285 11.028341351566958
Au 7.076071786129753 14.523353463268291 11.454770955428883
Au 11.839822652628554 14.512709728643273 13.944368594387342
Au 12.578625811735243 9.252144817583318 8.444584158607073
Au 14.680968135118333 10.845235031105025 9.275791724256203
Au 9.515075085574074 12.937574903712292 11.540113013681754
Au 8.394439005103632 11.069002200882931 8.715278773423805
Au 12.402365360822696 12.269049743280798 12.07403602964341
Au 15.318040267047184 12.236098487103673 11.667549864549171
Au 10.547285287677836 10.400586960851996 7.0116995708427625
Au 11.023650435891149 11.302873353937779 9.793010100689692
Au 9.307568586787907 15.306877727215328 13.025668403180596
Au 11.562083864170367 14.012081791951937 10.069746870888636
Au 13.927095034196352 14.69223949591808 12.06547938627832
Au 7.915978480414834 13.76261111364874 8.973580305881262
Au 9.082589236007534 16.015480221696727 10.341453263963473
Au 11.559605879495559 16.32225444913453 11.723080473191915
Au 12.73581468808569 12.125313754550634 7.643482252719447
Au 14.340445947358042 13.547979650745573 9.430567745230123
Au 10.020010082492362 13.029880696507819 7.298969491712511
Au 9.419464292339372 15.625848870362649 7.57464537277166
Au 11.205035025005158 17.076092512878887 9.0133033079113
Au 12.204796497352593 14.851079995403422 7.533820498799373
Au 13.63149292349631 16.160954634429594 9.762133129574785
