43
Energy = -114.3051028 eV
Au 13.663707134450329 14.460080374909912 15.446185447106739
Au 14.793006305629865 13.005269457100514 13.289608605792582
Au 13.96070722375471 15.543633858238314 12.946783713794579
Au 15.171943428744255 10.361649641120023 13.690803079368958
Au 14.904620481409362 14.185666409577461 10.706134373528489
Au 13.509920950850587 11.746574870437476 15.454639227602831
Au 15.42528688773415 7.651613868870851 14.104943760716246
Au 15.159490589862985 11.417147837506313 11.062296539005036
Au 13.297901778630512 9.023957336428504 15.306821740787445
Au 12.441463611310349 17.780078267299736 12.752412595533748
Au 11.441361907395947 15.773021499159471 14.415844609490797
Au 14.978385754564615 8.588310701385566 11.504496029541308
Au 14.417222339453586 12.440703178983354 8.592084999796873
Au 11.170372190167319 13.24011302728902 15.34290905023417
Au 12.724915078726939 10.192680618685284 12.076765246873807
Au 14.325631845835852 15.292818521588073 8.200181250209399
Au 12.483479244900442 12.847886751696764 11.218138584668841
Au 14.043964438656769 9.745585939470732 9.166012217973083
Au 12.898034752658516 7.353207703865798 13.07572863299473
Au 13.430871687135426 16.611218726100756 10.410281296985238
Au 10.978842539876426 10.509042064121656 15.50500453467028
Au 12.630756494097028 13.627334763603962 6.823594266212004
Au 12.46834669484437 10.954184657190979 7.235232539412097
Au 10.840411768520944 7.79907174415677 14.894754988895405
Au 12.55562547899588 7.629653403210949 10.383499406702136
Au 11.13889751468727 15.541622248950345 11.716748187041041
Au 10.570928966829113 11.727082843411143 12.880288169461009
Au 10.74514794783952 10.726170516056882 10.293548229019624
Au 11.71811967939834 14.803289564095554 9.14338547901408
Au 10.337755111901027 7.743867752388892 12.172416412227955
Au 6.711138691515607 13.60562157193517 14.289000722669465
Au 8.687932065151278 11.974456363957625 14.998159175017445
Au 10.322010087285006 12.670214640911764 8.076039937597063
Au 12.057888714162269 8.31877373037396 7.771044180753636
Au 8.95974760478099 9.494911884183734 13.812227635856175
Au 9.830385191041644 10.016779550434604 7.695892662759187
Au 9.249359516871177 14.308450771207623 13.372315919118183
Au 9.655889708403068 13.551945245671458 10.624709351361258
Au 9.954993744183273 7.970722196477123 9.523541488509341
Au 7.708221400345572 12.175218474267213 12.165762477723797
Au 8.178141641771244 11.460256074398973 9.474317548577506
Au 8.134273545605604 9.13285756408282 11.224940073410922
Au 5.941931096149404 10.616286621326454 10.779538448114874
