41
Energy = -108.36369633 eV
Au 13.179511415363132 6.935398526308159 15.366315274379971
Au 12.614937762806985 8.517272890020575 11.337927737087623
Au 9.843541405651951 9.077062229440854 11.782127200793452
Au 11.312112313386988 7.860616872330848 13.67254786496324
Au 13.382393404007738 9.609387503769875 8.976066679363411
Au 12.09121756902618 9.38241431081851 15.856738142441138
Au 14.060051808506104 9.031685129368315 13.753825993286505
Au 14.828610618048641 10.155792160827778 11.304013147650569
Au 13.616745117102182 11.093248091022367 6.727577274377925
Au 11.042861401896543 11.05309070799816 7.853501003152906
Au 11.93076031512297 10.863766545267751 12.948546652223014
Au 8.225476793935112 11.293006474908985 12.267035332122596
Au 8.981888803868209 10.585840525330136 9.688791139362595
Au 15.09278928790897 11.751504295185239 9.029800576046732
Au 9.621949069311706 10.081252810327106 14.38188685983707
Au 10.821432462509357 8.635662410380412 9.21714299065059
Au 8.343628119376149 12.057786883226932 7.46439369458314
Au 11.134302886176911 11.894171260857748 15.863088542265526
Au 13.853870170025512 11.41770111575036 15.382986653149315
Au 16.00711130267797 11.06802162420473 13.666921991001198
Au 11.673789883813162 12.52541226989199 10.788049945884715
Au 13.856883497476778 12.78790588301205 12.596622812438792
Au 10.35111915162822 14.503000601168766 16.06248458779561
Au 10.119825676927709 13.648616867863115 8.715389025195604
Au 11.303720813226848 13.652576649586093 13.303616848042186
Au 8.740709871661814 12.724881563496595 14.617744710596105
Au 12.824158968794377 13.22061545915226 8.230261014999014
Au 16.46945491125543 12.447523214054574 11.223891067413216
Au 7.678619812265466 12.938314385558765 10.024176193270927
Au 13.027575205609057 14.02857743276231 15.778365064610876
Au 15.584100679905823 13.536066929051781 15.02192267291445
Au 12.013789718755715 15.260890560768592 9.958670135395462
Au 17.83714626045169 13.231817710918127 13.477606445683943
Au 14.551859250144078 14.266264887119894 10.202998161668706
Au 9.62884901385538 14.855392774197805 11.15902721591525
Au 13.354906470356019 15.944904486142716 12.14783105385462
Au 11.786083017557196 16.25757997065375 14.385659722049967
Au 15.91292525956613 14.951128471148406 12.547991034209984
Au 7.404505801596745 13.937987539833367 12.515275054511067
Au 9.196461936515664 15.546390531025665 13.782341707444907
Au 14.514368392137754 16.113655789186883 14.688953551886456
