42
Energy = -111.22207509 eV
Au 6.45746429793943 8.842520482375045 14.414959013579768
Au 9.219920895541351 8.944801885184942 14.082785451683199
Au 7.517959152466343 8.200732723707338 11.967144430053775
Au 11.950394388857779 8.910880799494985 13.768507912430582
Au 10.345348909413309 7.771847602555703 11.772016009412626
Au 7.723409399016758 11.118816134364817 15.207783551843999
Au 14.612658978661589 9.573931724177115 13.093523060765413
Au 8.5953415437548 7.547836697121129 9.598332960338963
Au 6.857897514180335 10.860008857527756 12.509164687410305
Au 10.750185096517498 10.91401421551341 15.372222043014101
Au 12.998312987625845 8.376197169740353 11.19895028937189
Au 10.801191094634332 10.338209934829486 10.679128241690012
Au 7.928608232219922 10.300899855113322 10.073733271796128
Au 13.463745096620494 10.959035711927644 15.259256035808155
Au 9.304884031962676 13.295861613299873 15.48081518525372
Au 16.120518358031603 11.393905161504218 14.638087579263619
Au 11.243189051333003 8.053795845612933 9.022991134331829
Au 12.369351662111221 11.55601129076429 12.788693763952274
Au 7.276783192312875 13.395125890596054 13.563133062670198
Au 15.617122822790105 9.322167876078653 10.565430781302085
Au 9.583424834226449 11.667479968638649 12.842622098110077
Au 11.900633330045748 13.532315505960415 14.863051659615607
Au 8.03502693300856 13.009194220721092 10.916270586892844
Au 13.738980052225466 9.001637867941799 8.496976902149429
Au 15.954728937746628 11.77966241877807 11.953859991090628
Au 13.441712148231344 11.358386235070933 10.26235520228468
Au 11.218422450774105 13.080498076811697 10.863885341619213
Au 9.741812349055353 14.531928095243657 12.90338935060703
Au 9.135777676181883 9.49537381631995 7.735001083860207
Au 14.417961876643384 13.368672452396273 13.717265561694381
Au 16.25587110763337 10.065852417390017 7.9843172023295
Au 9.363279390101836 12.198415515502539 8.58180791020019
Au 11.588975923978255 10.610204579881339 7.7327498482446995
Au 12.525201953613552 15.06586296991699 12.648665082676994
Au 14.55417740934778 14.045032459653545 11.017075697935361
Au 9.641971446803252 14.839893635939438 9.562647947350683
Au 11.799749845688932 13.38696082971053 8.045285505618905
Au 16.002365402797505 12.445943884247018 9.311091705595901
Au 14.052155946099218 11.728470891316281 7.473993450589032
Au 10.63749928695262 16.694635171143453 11.45132235142413
Au 12.466526362068372 15.556348636924808 9.788236310928681
Au 14.3792050522625 14.41744571157477 8.239016357487653
