47
Energy = -125.04567366 eV
Au 16.373567666340573 12.654268159654706 12.53306618842648
Au 12.34242326150532 11.158870384998007 18.29121840091871
Au 16.365766688264817 9.905972060233765 12.545811007427671
Au 15.356259635184626 11.227321856977685 14.732336393579162
Au 13.232628068231149 9.946082496063235 15.977148791231663
Au 14.02893226310889 8.818591522475186 13.609471032216469
Au 16.28782420053813 15.403174855538841 12.458068207138405
Au 15.417789131346256 14.048101590755138 14.854448807979455
Au 13.91209942909829 12.659502323006873 16.628621359008257
Au 10.463144910201294 10.289421137421748 16.41757771556536
Au 15.704888249815685 11.19617529321837 10.114615603696775
Au 12.109169331697363 7.844253185290115 11.729873510643994
Au 14.544249084783392 8.740702759470665 10.787217186234535
Au 13.720308094460016 11.178963812999223 12.165500432250138
Au 12.019878815543162 12.068214956223148 14.203208466285158
Au 11.057586704029903 13.033605088275786 16.70601824716415
Au 10.299978057267804 7.17166904597253 9.725740918809878
Au 13.560495662506133 13.87771349606092 12.626060306043218
Au 15.53723602435685 14.02424067498981 10.228055145915814
Au 11.337641021102515 8.882234753368753 14.153358410329075
Au 12.730744379558743 14.925352449217865 15.52231000397961
Au 14.370406063434995 16.512592128301037 14.028148538184931
Au 13.82030014918731 9.911280491289665 8.357075251898962
Au 9.351441552759411 8.391103627393584 12.064388265425073
Au 12.935194230832522 7.405129304051152 9.051628118549718
Au 10.98146710286097 10.719249141950396 11.87694233760774
Au 12.349308036472165 12.494517292628506 10.122765121472915
Au 8.674196291300726 9.469218385572256 14.486834482686001
Au 10.799139067769577 13.667679937216917 12.103239383978707
Au 14.40644530728167 12.577279819644485 8.168242530126973
Au 8.987171457010643 12.138474247396829 14.948191984161193
Au 8.125029568012943 10.974797499297587 12.231431779031956
Au 10.105877115284994 14.605432246874981 14.65558835457498
Au 11.162655561615042 9.177537729685136 7.835920740715906
Au 11.760847037721653 16.167482832903957 13.122089850324926
Au 13.901526634537023 16.314401620526358 11.213293928568564
Au 9.409494510046294 12.155804294079152 10.075335793913014
Au 11.97496928092766 11.759692904322225 7.322836315650748
Au 9.003138895173251 9.525433909409655 9.582824671403335
Au 13.21088621412246 14.921085459940475 8.911210230516806
Au 11.23132677368341 16.04692648716594 10.422516394736173
Au 8.075082210801934 13.763759172706871 12.939397833792361
Au 9.312093728155249 11.211983547995846 7.381539730040281
Au 6.749518700556058 13.039356964859264 10.669588497491315
Au 10.627087445661456 14.04588512757225 8.337670174502737
Au 8.783427184837295 14.916907609121349 10.395653333794634
Au 7.899720109678756 13.442917224547722 8.096281130671612
