40
Energy = -105.35007305 eV
Au 13.136808298607304 8.232210200446028 16.997929057047543
Au 14.58922475366775 9.008486673474952 14.8101220527193
Au 12.912193845496622 10.809026462874282 16.2008464112137
Au 11.759894103248861 8.47320828160688 14.584848331085473
Au 15.685920129319179 9.943670100275337 12.554772238610026
Au 10.457904348350601 9.562848217610323 16.74092300316442
Au 16.904750091044974 10.771921709531371 10.258664751219861
Au 14.820933180046694 11.784818109145467 14.435180601151721
Au 13.264022256243763 8.514555045359648 12.286495288276214
Au 12.975287369231548 13.412852370610185 15.70770795477917
Au 15.854999957058052 12.705732429061806 12.04622218926576
Au 11.803998952957441 11.06920787928364 13.36218936872006
Au 14.71111732226957 9.12532344285161 9.972312939954675
Au 14.571412881136352 14.530656106891 13.69323321941768
Au 10.432898326308917 12.178195092608037 15.769278718991787
Au 12.967936813207722 16.07902778444378 15.547980229922507
Au 10.45683535388315 8.702671934024647 12.209839241608364
Au 13.24838984787102 11.298797755481191 11.018402620056989
Au 9.219486121802365 10.121248907468944 14.329329005817122
Au 15.191331547960537 12.65721046935351 9.315807854783273
Au 12.720801943430011 13.64721474016518 8.85059061295987
Au 10.67493887935131 14.719830309698363 14.71505966801421
Au 12.214758850050432 13.517698800009319 12.280282181448863
Au 14.376552742720547 14.819659380778498 10.935385795542025
Au 12.382197729806512 16.24444450872917 12.900590488303697
Au 8.32448569412478 10.76197336090345 11.848679461531628
Au 13.375999412681352 10.879618356493115 8.203575074669724
Au 8.994652846198084 12.86755204494321 13.500474829581645
Au 10.580513782831689 11.987315372960538 10.694445229780278
Au 11.829254187258682 15.763349867286118 10.323378380455583
Au 11.975493877308566 8.86232702304927 9.806566932992904
Au 9.22256065229746 9.076071154920912 9.834562016311493
Au 9.828574701235983 15.176601305179966 12.105937949145682
Au 11.8020823917021 12.488639078805276 6.558324959861241
Au 8.111575732311167 11.494467823805065 9.087847883554426
Au 10.032151521716157 14.335659226536219 8.900489931185632
Au 10.593245885636001 10.598525874337493 8.058827996120723
Au 8.048604801289356 13.48533156692205 10.963999471488606
Au 9.160816795195801 12.770533070202674 6.796116584599297
Au 7.344627724308193 14.095905705092122 8.305881646034951
