40
Energy = -105.74604017 eV
Au 14.292601682249591 12.320148611516675 15.977671278552224
Au 16.10055706645555 11.143437967200468 11.830845211087285
Au 15.772970224084332 13.151260836416132 13.678488020414946
Au 14.909862253763228 15.781617698413179 12.893147412502405
Au 15.11392049208535 15.03385649126215 15.639229199166252
Au 15.280987133669187 13.814546803414848 10.958281506850264
Au 14.534444983467312 11.408425789667238 9.555595362571335
Au 14.140095313778 9.230136917407725 11.508780640704032
Au 14.672854773702133 10.285435187974688 14.154885331277649
Au 12.537288314204298 9.420951097618039 9.193657461207989
Au 12.301983159556093 16.658024371567944 13.3604572441252
Au 11.646664272592401 13.191723258721249 16.427212202679257
Au 13.487724605836304 11.982506550599402 12.252140578794123
Au 13.027916778316145 14.015783225970027 14.06090400989285
Au 13.037199944557441 15.74628849613278 10.872680683204138
Au 13.665504186635742 14.06384501705644 8.786246704390678
Au 12.553309328104817 15.876958969276373 16.096697724149895
Au 12.654357332269816 11.665194156688317 7.5259692362210915
Au 12.652418682863127 8.453492256211709 13.877823132328926
Au 12.150503262402879 10.614996860014914 15.536211393311063
Au 10.926481988902232 12.838881102240306 12.713561727855518
Au 9.619265881403004 11.947216940767548 15.03550651887794
Au 11.750313776948765 12.3169607302445 10.119798284922137
Au 12.014948751549404 7.521417467823976 11.16333831423618
Au 10.341739019741885 14.980079337910341 14.632003283703918
Au 11.794182764139727 14.208764668845998 6.759602977659784
Au 11.362885366718958 10.17702055590347 11.90549934918994
Au 10.012672256011598 9.331418126542388 14.337307872061773
Au 10.260410007928106 15.503485056241487 11.852601077589119
Au 10.93398960264974 14.989466630282811 9.268317890275174
Au 10.460419871210162 9.924385187075746 7.3741837057773525
Au 10.49493344994621 6.763728427290238 13.408941478109803
Au 8.347289499351904 13.736388302338467 13.203193036519952
Au 10.088087667937723 7.875001400536259 9.063564339234441
Au 8.969044500960308 13.283854714915982 10.544059551698167
Au 9.89062921242827 12.598402120082895 8.017515958271398
Au 9.767621321149509 5.896541402537565 10.902793402929948
Au 9.189908025670054 10.547230442843851 9.789751563237276
Au 8.60028390256087 11.080618629115866 12.482810839517377
Au 9.092936691384674 8.497136426490222 11.677038042160094
