44
Energy = -116.91372085 eV
Au 8.562409216150597 11.446720283272198 14.161070967959613
Au 7.821582867002905 9.410872220804023 12.421173938196452
Au 6.364101218723492 11.752724224462481 12.553063310012064
Au 7.504372681744861 11.509438355673813 10.044572851277579
Au 7.81020657560341 8.797804852706669 9.743909569576722
Au 9.467522350903788 13.682676350687121 15.56598998826918
Au 10.27139815550801 9.182646452807987 13.773711659748262
Au 10.037221877732415 8.080857325900917 11.239238271104421
Au 10.898368692316465 11.17353163850621 15.585595165228067
Au 8.181418623518743 13.641132526448628 11.67333442936015
Au 9.982069632982505 11.10751791580561 11.43197697262591
Au 12.45061624691282 7.935202373527547 12.489084236779675
Au 10.753413450876458 13.188637110564589 13.140996338843564
Au 9.522134447173825 13.231903954282718 9.17926451994809
Au 9.59168788423606 10.545623356884379 8.454879833791862
Au 12.778423800260923 9.104057017263251 15.022802788668832
Au 9.961773956014744 7.750492129675315 8.454714943055352
Au 9.16282575407469 15.506085488755376 13.494621333845776
Au 11.919593328493368 13.478121242928237 16.83199732381811
Au 14.954896453202219 8.143793598810769 13.588355331760605
Au 12.453498151580385 11.01644135514521 12.867332168882657
Au 10.165257785724034 15.376976066324676 10.81313330797881
Au 13.444122343176474 11.23212438784045 16.573232746366983
Au 11.636935194169284 15.342442111137917 14.786423944737098
Au 12.315852115539244 10.247640361044477 10.175952550089411
Au 11.249291338304875 17.153688579208563 12.675513520150018
Au 14.977401034930107 10.930152237703131 14.128978909079963
Au 11.710664633465278 14.86140336502389 8.498063334879676
Au 11.67342638744639 12.180672409499497 7.715496018011536
Au 12.019818231274872 9.360432532324428 7.5209936225802645
Au 12.048167554181862 12.969570822194683 10.693408133179412
Au 12.388169572214005 7.44379145034322 9.695472873758847
Au 15.831576226263556 12.429318122523174 16.210745756984043
Au 13.744305992307318 13.453107733501229 14.640013911868591
Au 15.002203611180505 10.116106133037189 11.48474080168014
Au 14.676158713655225 12.836463342118702 12.053531070552133
Au 13.209183630217474 15.154969801970905 12.468677202909651
Au 14.690633965898762 11.949336250045631 9.420457013948898
Au 12.510732231869303 16.819816896291776 10.27148068735058
Au 14.142508994146716 11.000962805296576 6.894445799100168
Au 13.93459590212775 13.70379969434664 7.284660800518973
Au 14.534339945150508 9.0001392867527 8.740814060211191
Au 14.821473391585325 7.4118817308132465 10.968447572016451
Au 14.222715591747004 14.65547581180735 9.93077384865559
