49
Energy = -130.25921189 eV
Au 14.249410778622101 7.560440631920201 9.558455869737793
Au 11.522265840417454 8.262825022655514 9.954731420168667
Au 13.13833938332013 7.713540187837777 12.132223134159533
Au 16.099311871899992 8.2664296510331 11.459918387603494
Au 10.347810741521675 7.999429316738342 12.569004855617312
Au 8.892143951924323 9.078293798006372 10.271256724899652
Au 13.255493327701819 9.55746504273037 8.057352540684667
Au 16.010581764375033 9.85832046536711 9.000211995088792
Au 7.435339822746029 8.540673962857618 12.535212113557924
Au 10.31086525470528 9.878360110764884 8.027458553606582
Au 14.801846653512262 9.342071294123315 13.650798166096433
Au 8.4300956338547 9.009370146890003 15.0077374779847
Au 14.158515654333959 10.261303674767248 10.932803263046761
Au 11.174258146349498 9.39306304496429 15.133698524425892
Au 11.783563201923672 11.348288733102043 9.891558851353482
Au 16.858472901744246 10.874822222899153 11.840947465272807
Au 12.046182248227021 10.288941283405972 12.640491425547197
Au 7.8313591096943265 11.084514229920039 8.634404118204055
Au 9.317301795933918 10.589245598443643 12.840898804739593
Au 12.062798882120306 11.610569116283305 6.761392173764003
Au 16.175464206273716 11.558079530534114 14.463415009859082
Au 14.60761395033683 12.035083798744614 7.8350509036366685
Au 6.864607413378211 11.294222379597715 13.971467585766062
Au 8.580243400769783 11.47307528432543 16.177980421283678
Au 6.749772778792157 10.856038464236057 11.164690320717435
Au 9.880649111883498 12.842234794560454 7.937790395539732
Au 9.289284069893133 12.29773608510539 10.780246663813722
Au 13.821925891671873 12.317596318165027 13.341180195748695
Au 11.34164298044786 11.34414051251886 17.149244503884503
Au 12.479891730853195 13.99212288784051 7.959644280150516
Au 10.8098021212995 12.13696659291485 14.486755977560417
Au 16.608886102836557 12.55048382896922 9.696165274505706
Au 13.645407883659626 10.800527351088558 15.69109287355799
Au 11.544568545568964 13.166760158837407 12.030015440758875
Au 13.941401933780194 12.988287180962276 10.58589530074991
Au 10.028736585143543 13.80482655207768 16.662509440923216
Au 8.232117369488577 13.771124370828627 14.526762031949223
Au 7.553002447149386 13.84266462613596 9.472149811620973
Au 6.903028386200805 13.43438124558438 12.152898523045177
Au 15.118157197938467 14.700340164256797 8.706563017798644
Au 10.442375027633867 14.873987233560362 9.72134663531123
Au 16.17926941037071 13.543853000845232 12.345222078527133
Au 12.79636653172404 13.532730655994422 15.885369248997995
Au 9.157809593982178 14.982660747008987 12.17040975141035
Au 13.741809117150952 15.052056044127156 13.796092034630064
Au 10.9169482421521 15.002565266905627 14.310418093220306
Au 12.864061344859657 16.286711486467397 9.344263566449913
Au 11.845297961758849 15.987997762168783 11.882252206784848
Au 14.673991807675277 15.638349283048454 11.327907709689855
