42
Energy = -110.98464578 eV
Au 11.21411316185297 13.561155785468493 7.28857603070218
Au 10.366636657206742 11.247886347542373 8.628232001603472
Au 9.670464343102505 13.850751487902436 9.5518017242528
Au 12.82578516204348 11.230111988266449 7.452156632253248
Au 12.171330012965148 15.181881405056643 9.373668107111877
Au 9.310175211762653 9.088064707243122 9.81014549870845
Au 8.47463320639146 11.596912979127612 10.647856616822114
Au 8.168904880000017 14.110551329524334 11.859608929615497
Au 13.953629296728346 13.818911770852074 7.8272422555542365
Au 13.004972243582536 9.38658676127931 9.39343287675061
Au 13.131913372612743 16.75354201809305 11.416828131532093
Au 12.820827683749762 12.220720759659804 10.032547086978122
Au 7.0523294588844365 11.804794701626408 12.983226192806072
Au 7.604635483158081 9.274861404381937 12.063946986245945
Au 15.440629658588497 13.450404701463793 9.98938945625305
Au 8.700823601842139 6.764162432919588 11.018974754445779
Au 10.80403551553776 12.877407081199102 12.063417785768934
Au 13.257978918868252 14.084496199243754 12.031499606632362
Au 11.225615473822621 10.21683431890239 11.489635392292552
Au 10.423416826630904 15.804219507567366 11.38372630336554
Au 11.484254154214172 7.453959277342504 10.796982929277682
Au 9.022535138861535 15.992942640208659 13.760397546063023
Au 9.091555330152213 13.262183354313585 14.395055469779088
Au 15.652903188754104 15.450851480127094 11.937492681030234
Au 11.430066952635876 14.706638732962967 14.68016237864315
Au 9.387620385671823 10.576944441948967 13.8888116379764
Au 15.186422241390662 10.729968063840627 10.693319303342047
Au 13.893568876017026 16.122642605312162 14.084874110540813
Au 9.87960810499155 7.978907318650826 13.103458018943382
Au 16.14547855048679 12.707797776255966 12.5077011159993
Au 13.273567000831598 11.476350675766785 12.847787648871789
Au 11.457917243681324 17.232312126625235 13.571311480854474
Au 13.848466374046659 8.572897501320908 11.890256629214363
Au 16.19390402132642 14.712673654864679 14.539748442213357
Au 13.838661677618049 13.4451611437091 15.16656470328687
Au 11.462665690822407 11.97594914335676 15.114369505897026
Au 11.836521378511414 9.299329215821231 14.47652518019466
Au 15.822586563707198 10.054228068417043 13.31358076693809
Au 12.334067229937506 6.749551023769029 13.378820271627772
Au 16.370610594855194 12.042758207143246 15.179109007236772
Au 13.962576242884506 10.7017542734616 15.477946212806634
Au 14.40936210706444 8.069232161911083 14.57536836307154
