41
Energy = -108.65674053 eV
Au 8.976518788527187 8.398582954834708 16.534042227700088
Au 11.471215200223522 9.193322849227794 15.908555988417426
Au 12.652126221764156 8.226769895189278 13.553935033658687
Au 13.874068983699818 10.21627677228691 15.216121938126511
Au 9.51732318283411 8.881437353230705 13.856182944616076
Au 9.226076783324086 11.020329176716864 15.849435918007439
Au 11.855254827758765 11.934988744858131 16.19485962721736
Au 11.57792937805734 10.801394598028324 13.372989610137337
Au 16.18540069955893 11.374092631903615 14.415609576308809
Au 8.132383412385401 9.544328172586866 11.580803784087388
Au 12.193830146346896 14.670362230464066 15.966429385159376
Au 13.470884965871695 8.093766206862762 10.944808928048836
Au 14.332077449713104 12.981988811794926 15.654130484599525
Au 8.650363019070817 11.689796775806277 13.259437187820316
Au 10.81519586293632 8.681422971924128 11.430259356796991
Au 15.103520610803578 9.38602197250604 12.75987731354691
Au 16.54732020908492 11.458524365209827 11.686177396894056
Au 12.247237924448035 13.414111067352332 13.257819942617909
Au 14.952435597716223 10.09270504026268 9.79824361816077
Au 9.528744481920972 10.187474180231675 9.295671139684744
Au 15.745220045695186 13.948761371442984 13.584456594268978
Au 15.410408215254128 12.94804496729046 9.56415117862897
Au 11.089688356956929 12.065351220054804 10.948070714699684
Au 12.217423832332848 9.803787098728293 9.235694562022486
Au 13.766952783521441 11.701203181774645 7.860572806682502
Au 9.803451975366714 13.52857789237798 14.969156796058385
Au 6.793212739468063 10.361904649942367 9.269739099283058
Au 13.717525524310373 11.732557112452707 11.72276239562516
Au 11.7289253011354 15.449535484285855 11.2372481864365
Au 17.15595382476659 14.123164491437166 11.306621915203474
Au 13.622092586110195 15.72668692692404 13.780833270368474
Au 8.101951256929167 12.35412399061045 10.66623057935526
Au 11.016138172370972 11.915643578601427 7.8516322851602975
Au 9.411183576581234 14.186573433226382 12.196436664439121
Au 12.46368231801498 13.748693594621482 6.429765183997256
Au 8.139640751761789 12.37491286948852 7.906759803560896
Au 9.97856308589391 14.15449488327314 9.413072513472544
Au 14.431378585628918 14.90769703069442 11.268694566700828
Au 10.817881321596015 15.877068061670148 13.829134838697314
Au 12.855721231960091 14.097479728078884 9.132775740107231
Au 9.76415001351803 14.087094906964152 6.6318521488437145
