49
Energy = -131.67874495 eV
Au 17.366377522120835 8.8811095071308 14.148672257141817
Au 14.64705167485354 8.320848742039017 13.638912603719724
Au 15.609484410763278 9.757005723061633 16.025576866531168
Au 16.52948267946698 9.032471217484318 11.552758935253186
Au 12.924154107936452 9.618154868816477 15.447709256004398
Au 12.041010650502358 8.980159568376232 12.847525781734955
Au 18.125848922309984 11.15390545751657 12.791188378504133
Au 13.936998748871448 8.18787749319848 10.941587586786047
Au 17.02717255115802 12.204277080481532 15.47855871355622
Au 10.28634715866045 10.092436592660759 14.693148306221289
Au 15.428093606950513 11.091266674763569 13.548741075343282
Au 14.359597500191482 12.182304832100229 16.435342420631535
Au 16.62086785777363 10.357911543668333 9.161153809823732
Au 11.593354664916047 11.80777064476936 16.655381292176454
Au 12.89271087899668 12.02541260882282 13.985989610647454
Au 17.19530133138024 12.609613525886044 10.647308273046413
Au 9.61102504649997 10.032358227246368 12.00940718388013
Au 8.775503404597254 11.71377771911599 16.42235805113163
Au 13.962199670092843 9.847704840077368 8.561729305913607
Au 11.64495408391062 9.556085833355747 10.102729911742037
Au 17.373938555128333 13.757735886641438 13.171881347539138
Au 7.867813336770921 11.41786142441925 13.837768753894778
Au 14.418515779261549 10.95073017415508 11.03898208957203
Au 15.326644728808024 14.424376890906252 15.059644284539063
Au 7.802732294542103 14.034120902146004 15.050059887681684
Au 12.239418955148244 12.023228967404886 8.598230395242577
Au 10.307794258268524 12.972722201426262 14.326494273644347
Au 15.81413820528231 15.951919784373622 12.78052678746765
Au 9.997882362220599 14.202972912625404 16.845164013401842
Au 13.36989264234211 16.318944841135668 14.11032497244794
Au 14.608228864008726 13.420768122422663 12.217832989012553
Au 12.715190900222655 14.397953978249825 16.052813186180124
Au 15.001935215408674 12.585156954253343 8.758755407284456
Au 11.896862090602777 11.98651039072496 11.44227471191469
Au 10.695305471535628 16.006740039805756 14.920692007394607
Au 11.97663925044947 14.439129323198198 12.674467537007384
Au 7.3570558649874656 11.378441623066626 11.16720453077703
Au 9.641880212741734 11.471600867173159 9.546264992502744
Au 9.570988639592128 13.396019688433471 11.74531699888109
Au 15.70955403578543 14.895702468770676 10.166625122148671
Au 8.492280399323755 16.03991397647256 13.303370111448281
Au 13.532330110618995 16.364730088463965 11.253100713648871
Au 13.17372401755549 14.631624259090845 9.021696551366723
Au 10.938408814673164 16.99706630567719 12.343931317008055
Au 10.416448816277805 14.109396123894623 8.928588819699318
Au 6.938895287006756 13.875545539856128 12.410133017683682
Au 7.745349954186198 13.648674907637384 9.638844384560471
Au 11.338938814747763 16.591028048778902 9.612160092410042
Au 8.87426768781852 15.977522645491797 10.60166312111767
