43
Energy = -114.14826659 eV
Au 15.451070490901344 16.267149549466797 15.553252033786208
Au 12.932494816814934 16.227693892190437 14.510361100881989
Au 13.55886670529391 14.791027380611283 16.896269877176817
Au 12.006754758803563 12.71618685342839 17.6310710497693
Au 12.057092846220604 17.750973523945653 12.442360819062568
Au 15.32728703040516 13.527096528375678 15.187740340955013
Au 15.598325198677315 15.340992556173255 12.945840505279792
Au 10.65400310099558 15.422444808681874 13.066637404457612
Au 12.266490910009395 10.573197385222018 15.926181885767177
Au 11.301624572872973 14.090577453208867 15.372550043312929
Au 13.68275210985538 15.97202975376948 11.11035304549047
Au 9.826488797441812 11.860293612146174 16.127132220646327
Au 13.301489520316535 13.711609146247632 13.155827220687605
Au 11.036370194087889 16.122078092526014 10.443289590179582
Au 16.08509779133507 12.500262028368637 12.775015957513295
Au 9.06563058734569 13.315591742084308 13.809029434167433
Au 14.510835246993171 11.02578306255496 14.468059340559556
Au 10.091215836647976 9.445129317170759 14.546882911545133
Au 11.489926639702842 13.214403408011208 11.050711532911558
Au 11.446468109764362 11.668625414821646 13.395973841015012
Au 7.767068919965694 11.018613587378125 14.54613504225596
Au 8.897812059259595 14.164441437000088 11.187945712623588
Au 15.20346373868566 13.81812885456655 10.4834540962163
Au 13.577200522779007 11.428196240032797 11.443968144567048
Au 12.943504216079777 14.372564214514373 8.910081499181132
Au 7.950380404382148 8.93411583180753 12.814954159206968
Au 12.744602703785965 9.032109999185458 13.669751950854836
Au 10.144350389276052 14.32347240867579 8.648931183051067
Au 16.249104893687942 11.241292336394027 10.374381421118283
Au 7.953023559350854 11.589323610137345 11.834881915464509
Au 15.19544464401561 9.3607621941867 12.273593826871396
Au 11.11147888786655 10.466700535573562 10.739832647110473
Au 8.970402488433837 11.944631364894876 9.325745897269577
Au 10.48877901568326 8.071500550924954 12.192931406691013
Au 14.192266172286674 11.861391094237502 8.628413662858186
Au 11.530482121625516 12.088988960199682 7.944381680674501
Au 14.963266498085499 9.077739486058618 9.39480527221231
Au 8.58442115895022 9.29674648372568 10.20176445164361
Au 13.058133051138075 8.007923478178029 11.151386628809496
Au 9.938460452332343 9.824375148499598 7.784186028965009
Au 12.663639133459458 9.63149864192362 7.962214093040397
Au 10.835302161210754 7.820139851090479 9.447302073182072
Au 13.285147514400968 7.02021815303684 8.562437022194954
