47
Energy = -125.64729926 eV
Au 14.886914444935666 13.619250555998947 15.112651662337463
Au 12.89804362104583 12.164909045375017 16.36710424277287
Au 14.401138964680584 16.23916716733446 14.386433775036648
Au 10.233943982688018 12.951863671819577 15.88256337410574
Au 15.0830545394592 10.846975285679623 15.07672462435045
Au 12.338017754832402 14.706800935397801 15.430908520716665
Au 13.126011889020617 9.358512983970778 16.29212593830395
Au 9.73908893311785 15.409146458712666 14.794428454318323
Au 16.896657534269963 12.357218979368142 13.685222209859917
Au 11.864361943175487 17.183643114008518 14.104264560979475
Au 10.697937565550408 10.492342647794647 16.942957976604706
Au 8.132140460224816 13.25041364091436 14.019239417655239
Au 13.360798722210898 12.846745780878623 11.90897927505375
Au 12.449614687745372 11.093464819463135 13.76738667648226
Au 15.608624815005907 14.560899899149842 12.568141481831221
Au 8.962007314602953 10.729156661496027 14.829197690189922
Au 15.989639069625596 10.01674140819003 12.549673605529398
Au 13.902404015115868 8.600800755493855 13.76797091197563
Au 11.005189891745129 8.794596310394208 14.627379615200653
Au 10.866710638715995 13.333434662389694 13.037362708449606
Au 13.219864964852249 15.842615113728852 11.894649657417082
Au 7.759376839923589 15.71620887809106 12.767927359671484
Au 9.217158288887108 17.855696206861623 13.7154550539838
Au 10.448123992104469 16.10010316901598 11.942895055930737
Au 9.225347781407969 9.126206396126143 12.524025189686933
Au 6.466754356726622 13.518231397727225 11.759977494264586
Au 16.281253890768028 12.371821463431695 11.011563427853902
Au 11.753371701372336 8.263260039846477 12.02906403345805
Au 14.38564241672737 8.319267073866136 11.081619915925122
Au 11.668923214742247 14.479687190570916 10.056546468264921
Au 9.022344200721248 14.050162098082884 10.807729473485225
Au 7.194244104906088 11.000658168336749 12.758011132745908
Au 16.49557365600292 9.87157931395651 9.84810355971295
Au 11.229133257493146 11.052462124774127 11.308445049937731
Au 13.73752532015809 10.832838787673184 9.958540696445404
Au 14.515632330817809 14.31665710258285 9.903195761967458
Au 7.142689515993178 9.10375220992431 10.725937082393664
Au 9.638732057986832 9.553402499924069 9.59061314591849
Au 15.69564312366005 12.321650336983527 8.335545519181583
Au 12.158006482169416 8.445547023149176 9.377026830466585
Au 14.65062449789188 8.434146353866863 8.3015172732469
Au 10.216521441159895 12.372675231795425 8.95633021837911
Au 12.851378180928881 12.835083274753732 8.173537537036564
Au 7.838295120475972 11.691259914809295 10.135894041822295
Au 16.628839108173146 9.950073252192514 7.095702309554551
Au 11.489494511394579 10.393211823907889 7.580009732223765
Au 14.025085779082877 10.766048606514943 6.762036633680521
