49
Energy = -131.53538973 eV
Au 15.962903982601308 14.432793434297071 15.383494073764687
Au 15.070901142315561 16.191602226916135 13.424403916159779
Au 17.61228513466897 14.822921266635083 13.154992737259096
Au 16.56380984508341 16.163229155488978 11.033154120944312
Au 18.52398531789353 13.374785462207816 15.349383427815921
Au 13.857199629929688 16.665562904117085 10.979685765777898
Au 13.41089610672618 15.388139132203236 15.510045897936758
Au 13.949933306756925 12.738793160046576 16.3621712179019
Au 17.161509843793795 13.482847567544349 10.734906190546681
Au 17.79805886870385 12.018148348682594 13.097397306310556
Au 12.315622290858165 16.69674716412612 13.276721460860088
Au 15.184782548192088 14.78243448266081 9.146038549166406
Au 15.019828925453504 13.3238358240235 12.896617340133698
Au 13.112550964932769 13.894200685242517 10.962473749114755
Au 12.625903645726188 15.863592608736187 8.646303180333076
Au 16.397799110518427 11.634746767355114 15.568205734126636
Au 11.022837204102471 15.843785660256053 10.973755961270761
Au 10.814914977255373 16.32489000481098 15.55386129357923
Au 11.35967853646761 13.804147683066054 16.563743405174215
Au 15.61620727823787 12.102919758751337 8.839305199757773
Au 16.91966345492011 10.724910752579635 10.896347639836103
Au 11.600564033046043 13.967728810317823 13.45619461267005
Au 16.017325607143484 9.936304709738296 13.40386583386382
Au 12.950838226359979 11.644898650363574 13.819110080643412
Au 14.187941900962215 9.986700853659448 15.588318658136968
Au 13.222447256468453 13.168584674560725 8.051269961307078
Au 15.040265611563445 9.481106848404222 9.368565187837554
Au 11.745665642949517 11.070135855198691 16.648019776975342
Au 9.396952592058527 15.630274781909435 13.232361052478614
Au 10.193243104916906 11.607683338239694 14.21352714000532
Au 8.662603490564987 14.733070039264916 15.789018876420334
Au 13.880007712911155 8.32030763269275 13.334204875678621
Au 10.578858215011287 14.056240218998946 8.936133551307574
Au 11.246600355184892 11.883423271374724 11.620540317386455
Au 9.21971904885034 12.120771111870187 16.81899608630123
Au 14.103817712662007 11.29186270800347 11.264689705057945
Au 12.893181784516472 8.660805580376671 10.801691210275056
Au 10.927732743667342 12.061614234096353 7.075401705281859
Au 12.229265337164916 10.692627411732937 9.113400698551716
Au 7.646778927068622 13.445016732287005 13.496092206894303
Au 11.631568286395153 9.105264168757216 14.795291062810227
Au 8.950869934595593 13.866592701328065 11.140256190353282
Au 9.149736304008728 8.958822810501225 13.466947092790653
Au 6.690570587795477 12.86877651880344 16.06731175754453
Au 7.498823568985683 10.799609769041863 14.52322393815908
Au 11.297601255651042 7.448691824932629 12.64867814615757
Au 8.321897893255791 11.219466575767488 11.907616973895905
Au 9.467469795133692 11.59845354177465 9.427727382445893
Au 10.211583258044508 9.365332878330205 10.90374005307276
