45
Energy = -119.71765256 eV
Au 16.66501039029532 12.184524121367959 10.702281803662078
Au 17.891362620182868 9.926731197089088 11.723948036191485
Au 15.596772176187429 9.020580726290227 12.974153071706754
Au 14.921544447756474 14.155649001600231 10.039616910829036
Au 16.664116449464892 11.573221030611624 13.574863513299388
Au 15.79568259479247 14.044534806702714 12.68191401059335
Au 14.200196315764353 7.40061752782897 11.228067534716494
Au 14.308011865629913 16.17692810098048 11.941456945214727
Au 15.67690944057517 9.517883494797868 10.129317927607264
Au 15.22256917403395 13.212258902114334 15.254168111334417
Au 13.347609495295728 14.889484517848995 14.185589011862776
Au 14.358280898239554 11.591648738275415 8.910500693418
Au 12.803232987318722 15.945257355918889 9.661910342635533
Au 14.14107218775136 10.712557710320196 14.707299803162606
Au 12.375140772379616 12.988935498307676 10.483355736890756
Au 14.227891008213943 11.389595397551249 11.890288941367299
Au 12.931552228685266 8.449570756261163 13.502418909497154
Au 12.521736471021667 12.716465959581793 15.877590041753994
Au 12.014419238027473 12.59396335672745 13.156012217288316
Au 12.960461105182793 13.748388663026015 7.888910907497149
Au 11.5520132332377 15.432158120385985 12.111833285940088
Au 13.031452403515905 9.15610570780337 9.373684773961294
Au 11.709607981548489 11.212168870390004 8.01705247113226
Au 11.28423624199671 15.970882601687924 7.410647479769018
Au 10.105380599394286 14.897022517905535 9.692953409518957
Au 11.682826168498405 10.262875164404058 11.742842819308965
Au 11.480515349581069 7.469616030446432 11.121326331241287
Au 11.50216031008007 10.171849629164724 15.182894429637688
Au 9.84847243219698 11.955939905882264 10.653243100020797
Au 10.556629424837437 14.529490094991843 14.545903550120316
Au 10.13088581778841 8.40996200621043 13.415539475639648
Au 10.218398869891336 9.205335086430962 9.30736724081366
Au 8.851491943952789 11.276243131594619 8.048642564147428
Au 10.219311612632534 13.463397453271948 7.2760207660546365
Au 9.473662760768233 11.364435325204678 13.342197018558398
Au 9.017311950034117 14.33536992267359 12.125453019805226
Au 9.774911190984469 12.254177139915969 16.04037429845462
Au 7.647986892759877 10.207415977100151 10.230332887394923
Au 8.771866134238802 9.65979020444724 15.506632749218632
Au 8.708344751300267 7.7544950293250885 11.150845342599053
Au 7.741545715505688 13.309508041421282 9.64835495021556
Au 7.920036645798181 13.738231021515237 14.56634537386649
Au 7.3781171135255486 9.409022091710256 12.862283738889603
Au 7.056743648304688 12.23993961421207 12.120321095598014
Au 6.7078552416849 11.308984235744658 14.706719812489215
