49
Energy = -131.41177388 eV
Au 13.500966661282604 10.78887109324204 8.300523570018928
Au 11.22132207170386 9.127579698224583 8.064649136465057
Au 13.26534748945065 13.545531068953913 8.632841741450623
Au 11.006145881611282 11.924947840797026 7.838715569494236
Au 11.146045295582754 6.77149649891901 9.575306508685252
Au 9.091707556193109 8.552828069422624 9.928704705928912
Au 8.372283817587048 12.939931491689435 8.410933920416163
Au 8.756980803929745 10.301812301178481 7.793227933132275
Au 15.209193220849567 14.913048289101724 10.199780209944672
Au 15.862603834323576 9.541818775932077 9.276068752609925
Au 13.537643775605046 8.114351359648223 9.249242403746438
Au 15.715493064684589 12.298530848649149 9.3373317957078
Au 10.577009037331718 14.497973005207857 8.87704662573412
Au 11.629601441067523 12.37160793966895 10.558724969708045
Au 12.173924746814501 18.167545001671783 11.3632477550969
Au 11.558397929533244 9.594887538497023 10.989979905153891
Au 10.568629936039388 7.310122444783529 12.253348786041874
Au 12.71796112131403 15.988399596009579 9.819863373255975
Au 17.015064340570426 13.365709636211143 11.500340696047896
Au 16.829994656490097 10.573841388949967 11.642831802213847
Au 8.034622509671097 11.076178670949917 10.405794258877053
Au 8.792005048504345 13.82150189836334 10.991798250140993
Au 10.130757634546052 16.332126804814955 10.885530167705692
Au 15.141256084440586 8.24188869320442 11.66523846514106
Au 8.337580772759566 9.083868230329735 12.514275075323118
Au 13.120151440165579 6.418726109225464 11.460858896539678
Au 14.036119415469448 10.857262007440804 11.119367676475187
Au 9.84948343095014 11.333089086273707 12.450662422042518
Au 16.982807402303084 12.08408808286746 13.946710259557179
Au 8.079393397036508 13.035682141995984 13.632950917358569
Au 13.64510118274893 13.55590981972829 12.043522987152913
Au 10.966366861951881 13.817303472057556 12.962900596283818
Au 15.677150459416872 14.559098875496204 13.657055480067047
Au 13.994812638318542 16.365011957338584 12.413223650432288
Au 8.777404953255928 15.73107998828022 13.178462262050731
Au 11.37963972144823 16.71190908734948 13.496919118091759
Au 12.480806470874695 11.351170941558376 13.333746591766145
Au 10.497580789363449 8.92101034890119 14.47220678464348
Au 8.296407327647954 10.545233897536297 14.844358626559046
Au 12.993252160427488 8.274314856125768 13.476405186396674
Au 7.655991078854227 14.97956709511087 15.556015858486417
Au 15.131681321375883 9.994688714401672 13.857539704097821
Au 14.484685968803968 12.425896204623248 15.067462670467638
Au 9.068730702005235 12.757948874451293 16.34078997003134
Au 10.412723145584996 10.443460768189999 16.76190350418317
Au 11.859376986920903 12.68103448271312 15.979109629456513
Au 10.437945343569574 15.045349943318843 15.48072590943162
Au 13.109821090173691 14.854582369220543 14.704519096030417
Au 12.913657999985373 10.03642572165222 15.696095665994902
