48
Energy = -126.90990189 eV
Au 15.848375779318706 10.56955469502917 11.646111227648225
Au 15.734568243258034 13.104482364959901 10.203105804411223
Au 15.613883896898868 12.898265791043412 13.10894713717183
Au 15.052491609407474 10.714587005588394 8.9663735742994
Au 15.27250253599135 15.378941000224989 11.816298870614702
Au 14.18911098107944 13.234674640704085 7.830023953052644
Au 14.963890823745164 10.400474332415303 14.34720492178039
Au 15.181815621704969 8.237352419291193 10.202626597694989
Au 14.83354409514101 12.878021841965618 15.723082264371548
Au 13.578534834240115 15.203947457458497 9.594202719032314
Au 13.916271754363615 15.017555848886568 14.21947971320047
Au 13.022130285500628 8.574705098953258 15.1837821717739
Au 13.158102142293705 10.273008968956 11.32399162450208
Au 13.214298674978295 8.536907145837011 8.345152185907793
Au 12.994621454337098 10.959477583442153 16.464474522108336
Au 13.518133112067533 10.78548136372184 6.695748576393297
Au 14.320225732466666 8.149247948309489 12.794438251865513
Au 12.19598754963511 11.800427548636193 9.162774493031952
Au 13.307312480712053 13.14011374921713 11.539339377917967
Au 12.62568267374696 16.228324168202075 12.077707911030677
Au 12.605086189860085 11.768011158882388 13.774409262583816
Au 11.461356008283023 14.252691130722628 8.013100438731737
Au 12.167550911876663 13.668466934133548 15.980030670093841
Au 12.639962116862312 7.137972608195233 10.731443076748576
Au 10.671255950466694 7.448769500634493 8.70076528372956
Au 10.811827204319457 13.71686905895993 10.860055810693874
Au 10.933720301445865 16.316179584203184 9.803498960177288
Au 11.024017037731422 9.475667910670886 13.013597658398766
Au 10.369808868776397 11.414715293019455 15.496589317262114
Au 10.603651867725189 13.641505257907566 13.653201803741663
Au 11.428406573008589 16.087244910232368 14.673432121535082
Au 10.999718753349152 9.851374276875351 7.314949448788665
Au 10.698822311642765 9.788487896397301 10.267458292262146
Au 10.292748964200138 8.511024894714348 15.444532884068467
Au 9.577751946275885 12.160203902316999 7.8757810789573
Au 9.577268213142014 11.595668318581895 12.097428446814941
Au 11.809928072994147 6.85289914216498 13.385436205970208
Au 9.903966586570402 7.298083124091624 11.355242271979709
Au 9.87615671555119 16.240432745786467 12.282964108235292
Au 8.65620292780244 15.436679635863623 14.586676137577687
Au 7.965612025884424 12.800280319536276 14.485394024776657
Au 8.81138094671612 14.465359625509217 9.167174510432206
Au 8.353747544688161 10.029828551835854 14.179360603998731
Au 8.555160467366768 9.630416312088807 8.553372837154615
Au 8.097493807597443 14.033286137877768 11.89147049748656
Au 8.002135173330748 9.33950257236997 11.26855355651766
Au 7.626569129579961 11.938279035631595 9.870278330885347
Au 6.660718156652203 11.510293554591238 12.411911716890492
