46
Energy = -122.58832691 eV
Au 7.52155550496855 11.411973999859068 10.523420472516374
Au 8.273120713218301 11.656458488023862 7.8883008795699405
Au 7.394515530580038 10.062693941409371 12.95715463629746
Au 8.555140832693276 9.181678477873477 9.052713009673338
Au 8.981726737454629 10.69918779048838 15.146649653959741
Au 8.437082970066356 13.982414516463445 10.735550523904793
Au 8.142169998985004 12.668621099611176 13.112983000812791
Au 10.436835441778094 7.396508468814193 8.237203178437461
Au 9.900525032538194 7.3692788799218585 10.928942370514847
Au 9.41849910269815 14.213243980102677 8.234578568408761
Au 9.669664985044324 13.536420670561174 15.309144422900985
Au 10.614409064177476 12.50890267093147 6.447702603938604
Au 10.631810657839754 11.479433782718488 9.262980155533514
Au 9.525383440868731 8.354177084502489 13.582509631995412
Au 9.527511305655937 15.118287110681871 12.945825957694467
Au 10.353910941354401 9.809027052601637 6.904356740890125
Au 9.828744822177077 10.11171560888119 11.450896234995987
Au 10.939245315408101 11.678341218366626 13.479920385352193
Au 10.723389675246722 15.551841267523868 10.3936637018362
Au 12.587321335883429 7.6974981982529105 9.912632250175367
Au 12.801682116355806 8.525690759810496 7.270980848574991
Au 11.121318191997553 11.642485017235007 16.69080460338053
Au 11.662169631397244 13.061265745067582 11.257443834079446
Au 12.084400187591967 8.08008376550779 12.656901906241593
Au 11.664745765005023 9.453759749241259 15.085316782049345
Au 12.556545052463264 10.356195338087423 10.945731529081835
Au 10.727397395967149 16.071759739316867 15.307896278196889
Au 12.170076731358499 13.861539955413061 8.460215609793996
Au 14.540578124038648 9.727675416413481 9.040334215344522
Au 11.906997468446397 16.69773454319737 12.663055775358385
Au 12.174925356861333 14.17279161506675 13.779757054302792
Au 12.526088904731322 13.967138699419843 16.59733455006994
Au 12.879914276696525 11.29073940591533 7.480438819132696
Au 13.618704098554465 11.967434460281698 12.975566233091099
Au 13.702209328506314 11.537399816947081 15.786270866824339
Au 13.504566397311315 15.114024964959196 10.53607421996282
Au 14.674335194400886 8.33303087561483 11.553941464479879
Au 14.23146106369251 9.34222589430857 14.121515213387582
Au 14.32673328088345 12.53027716823259 9.59862986427045
Au 13.458789820031052 16.242240827935415 15.307364659539628
Au 14.604494050356031 15.994666273140995 12.866851216162294
Au 14.941489494649044 13.931906255282923 14.819164920766418
Au 15.573679072018507 13.63121882920183 11.875935982317491
Au 16.110249934061983 11.56443120997154 14.118838450610216
Au 16.83025781646904 9.117227978866197 13.058642336396149
Au 15.77313704930025 10.922891129377224 11.272349167015678
