40
Energy = -105.29989168 eV
Au 11.714320605339223 17.61062134162083 10.917462089451734
Au 9.325582860545381 16.12854881589032 11.143170018757173
Au 10.677415923058216 17.26786657662492 13.394276756533662
Au 10.989262679901758 16.08204614365533 8.805068004414895
Au 7.73178671734338 13.876345628776225 11.602799240810223
Au 9.620697007130051 13.783621787035113 9.607678714131474
Au 13.556503847962395 15.725218326525324 9.992700853222306
Au 9.34394299308109 14.802482339589508 13.617154382077624
Au 13.349780861857155 16.466759901496157 12.858558321635858
Au 11.698284204490522 14.47711711218605 11.723610738024647
Au 11.753259571023898 15.202792956618538 14.903375455014995
Au 7.531466712398939 11.232191715571398 12.242389324578072
Au 12.204868464964536 13.596459988523197 8.621712138831894
Au 10.092069846526458 12.343572836632275 12.121332764890994
Au 12.809764177117765 12.71458242531173 13.667492074302073
Au 14.896414565646504 13.441452622949333 9.289354264854632
Au 14.489392433272338 14.83115545308482 14.742640548762147
Au 10.72091195342021 11.325618122982574 9.282676717011348
Au 10.27873790318179 12.862988378622832 15.248703271471404
Au 14.959804987873447 14.357916926633568 11.985380629650672
Au 13.053065955313539 12.054614622437493 11.023854654178708
Au 13.441853645772246 11.062002993634426 8.389358087649118
Au 16.036371715512818 12.636836611662954 13.908342260267293
Au 12.87961604780768 13.122172976055095 16.467786967041633
Au 9.56098077775119 9.655890155334207 11.210918018323067
Au 16.257409724295226 11.124001894829428 8.596836849873373
Au 16.243854636786484 11.972912890119398 11.259301504457143
Au 15.70898205493727 13.14908218880876 16.61231088312144
Au 11.97278242657163 10.218113922460095 12.797780818750043
Au 9.342174237364008 10.457841890739488 14.168196142625987
Au 12.180153087942895 9.14800762835614 9.999762371414704
Au 14.847529999447888 10.286963992187026 13.024947793085834
Au 14.942235449458419 9.550036040814506 10.327630616134275
Au 14.54147477489975 10.90344558073519 15.741382594885303
Au 11.746349647548383 10.645864240835126 15.785333980659129
Au 11.104537586057727 7.57683261751518 11.96822476137351
Au 13.891016734873173 7.819648516137441 12.072217463389686
Au 13.654234342645294 8.543114466333215 14.888422239366374
Au 10.87686729287513 8.297943509339163 14.665661519325296
Au 12.566430390664369 6.199062215461743 13.89182230847456
