42
Energy = -111.91305188 eV
Au 13.612413657101571 13.741411846480379 16.104185399305923
Au 14.490833774856807 11.484600840384626 14.789394206641603
Au 14.799518453710077 14.04673534414005 13.662836381711589
Au 12.392823182943967 11.286765869486146 16.624182160984205
Au 12.196157052275272 15.091753488235128 14.161948612750596
Au 15.062258303603425 9.305036497744554 13.221323185388197
Au 15.980180538892743 11.813070936573421 12.424044116075152
Au 15.854906020647979 14.28071195655 11.127652923722698
Au 10.79207206231093 13.744780966157919 16.159275306485043
Au 10.265654349550283 9.889615942702413 15.561987338381465
Au 10.812453966783098 16.173351669888543 11.997555647755231
Au 11.494279746445441 12.03748983323286 14.060879405424519
Au 16.681604520865548 11.977694182820626 9.781641966975663
Au 16.41644847219043 9.467419064842213 10.765751148722073
Au 8.76137253943483 12.169720382559317 15.13696075915012
Au 15.791725313962583 7.0032066464818366 11.9635635941125
Au 13.262488253846206 11.188282380642814 12.076383489527716
Au 11.703095456759018 13.484521289951902 11.6488907883103
Au 12.850275892193258 9.138009416702507 14.914911816761778
Au 13.55749036634442 15.72543136231129 11.823167079420486
Au 13.232252763758087 7.154969459928717 13.067006377469967
Au 14.674434416873515 16.14566367588098 9.382801758343808
Au 14.383823751173978 13.365015710662382 8.964224851077796
Au 9.48065528566132 14.445013344235331 13.737377674664916
Au 12.144215497887034 14.906529385425909 9.135004763728809
Au 14.196530589307732 10.675494146295305 9.394702410958999
Au 8.486651672069119 9.9344136005563 13.418457113933883
Au 9.714823707935771 16.579983247634843 9.54287051447055
Au 13.853582199638304 8.210684328143492 10.49113849243297
Au 7.723937497124261 12.601225737477174 12.630543605709116
Au 10.540336583518982 10.992902557960639 11.759061045744325
Au 12.279095568794624 17.509395118062105 9.944683768014773
Au 10.682621765300897 8.18982436060761 13.383027340717963
Au 8.34052473496473 14.982117261268415 11.303077238105082
Au 9.654020657432216 13.791014620393655 9.137467267326599
Au 11.860272070182377 12.125346561931075 8.963974507752596
Au 11.616477342451116 9.459242445885957 9.548593566659209
Au 7.153128386572337 10.385135693835036 11.034434244235898
Au 11.428121700163654 7.0034231394313515 10.96762600810298
Au 7.212700916436214 12.853558759659276 9.902257493348253
Au 9.304744097362818 11.00543021799495 9.280678748925979
Au 9.236279504553442 8.611289342720836 10.981738514548802
