41
Energy = -107.33338248 eV
Au 9.379201696900688 15.05227475831794 9.672596662263366
Au 8.142052281603595 10.504142547171051 8.515768080050812
Au 8.80194154852756 7.988488455120626 7.657911132183378
Au 10.083364776341 12.682529228854502 8.209649341493515
Au 7.67705850262969 12.906236407954982 9.582500686867453
Au 10.824205814474297 10.036070146212014 7.716777452613723
Au 12.771700425985008 11.885749390692544 8.127076829965922
Au 11.98377886530253 14.522040706104967 9.094470947445775
Au 14.62159086871804 13.801644822038762 8.904000235289404
Au 11.11786299568904 15.580143121854384 11.792527817162396
Au 8.41676146076513 8.337030060407272 10.361681711684541
Au 10.076070137469115 12.912127632105133 11.392582254079326
Au 7.78029157868492 10.79894041782383 11.38557972304073
Au 7.404489388002733 13.401649308543819 12.286176767221209
Au 13.130637086883016 9.480125166288584 9.571215666791419
Au 10.576418462727545 10.324999170519638 10.586469360362454
Au 10.990371611764436 7.7598420618737585 9.355513178541626
Au 15.163914765026604 11.301357920537306 9.974702112875866
Au 12.771204833200109 12.331718447061808 10.927449064788131
Au 13.81706235309867 15.22808669663227 11.11115425097477
Au 16.40122291625884 13.851822361444198 10.93745686585399
Au 12.607706380177726 13.620311405057025 13.355417732852448
Au 14.429218652997907 9.481552340238627 12.000037029286018
Au 13.149077947575146 16.358584729087102 13.6018071074031
Au 15.436754048711288 14.844794220427858 13.410374330436634
Au 15.128578229074535 12.074673486251392 12.689993403533844
Au 9.44693161318115 14.330951785027706 13.807407963937854
Au 12.062938261715477 8.028125410323124 11.83720042746015
Au 11.569688243417843 11.053431545330003 13.056498150386776
Au 11.382987175266798 15.294517082315615 15.406364976676924
Au 8.713259355833735 11.575641206556389 13.956434017752851
Au 17.741135994382432 13.443934252251948 13.330107413405202
Au 15.484113442170164 9.98489507521989 14.554117561009807
Au 13.957918388774512 14.391796689705851 15.704306907043872
Au 9.18045965700558 8.96419773300038 12.900147741602776
Au 16.019131954592662 12.594332636171675 15.304647470229172
Au 10.811515755211408 12.557404278834808 15.538964391081754
Au 13.023054242624463 8.852126904167232 14.354957601048843
Au 13.351863079897333 11.535353552118634 15.332525159248148
Au 10.523902301513386 9.822283065034114 15.276054891834953
Au 10.79484956056189 7.23728889276996 14.164133761293812
