44
Energy = -116.8033895 eV
Au 8.857972538253273 15.512693208848281 10.744582455140755
Au 11.090393016883766 15.719902189508637 12.394753878200978
Au 11.383993037857438 15.91774891668402 9.6895870902289
Au 10.682817175249223 15.099467146014057 15.015120360486836
Au 13.651799546283417 16.079036012519317 11.302351758030404
Au 8.828904678915729 14.264499026994615 13.16776024462267
Au 10.228775407402907 14.38722766627538 17.617540880991932
Au 13.314666335081933 15.302878633654055 14.001534882540575
Au 8.837900919133109 13.020863450108008 15.617681319512364
Au 11.506357139392758 15.190302593334762 7.017219153338296
Au 9.454230544707315 14.028489056582046 8.626099018374855
Au 12.822495506357528 14.11719093646709 16.545622082791798
Au 15.693254651222322 14.810247157487897 12.732755494507307
Au 8.641189531078862 12.713552553404536 10.847445031445856
Au 12.07725363262169 12.63506393872595 14.252334172528924
Au 16.060334459954106 15.816858604960204 9.973618246455956
Au 13.00872476880115 13.360896253721451 11.735098663713961
Au 15.141324042898306 13.544963193636622 15.137589916496552
Au 11.055952300481064 11.85560216323138 16.914716424464295
Au 13.838337897219896 15.667417874912054 8.427191174793096
Au 8.454626337667548 11.492610165601441 13.331659183948288
Au 17.23769283290393 13.480598301529675 10.908782923457064
Au 16.963832066033696 12.365582062970596 13.362249476607516
Au 9.100398770027967 10.261390798661445 15.725872074942808
Au 13.729258144620147 11.438278985614138 16.525629636997007
Au 12.296092848902854 13.144735292147502 8.692365180086346
Au 10.992274236587512 11.501871028979785 11.930184127078457
Au 13.461636485556351 10.711932443472639 12.95085281361204
Au 14.871320365282104 13.298555393458317 9.531704895406234
Au 11.761267166503318 9.5843742151905 15.552674189192157
Au 9.443014294089778 8.48033638135343 8.93416371111105
Au 8.775597096949932 9.93269992911688 11.075217759575958
Au 15.764350673863914 11.13363030136625 10.995839968192326
Au 16.283917312518017 11.042067005238579 15.653099059006028
Au 10.028901885424661 9.123255992528394 13.40820521801574
Au 16.154291024626538 9.680586763736711 13.228323230793402
Au 10.476866593781846 11.04525560856056 9.031589366615375
Au 13.206608174887078 10.964417600107176 9.997883167593798
Au 14.385474214243716 9.076694055032384 15.237188419749605
Au 11.468153408536285 8.768312515850774 10.77701830489781
Au 14.347641506274066 8.699312514376722 11.262055786303522
Au 12.553754377477194 7.956934863465548 13.470749120761221
Au 12.841006286192464 6.44384131910312 11.257712456015124
Au 10.478990049985756 12.581469168200142 6.652020964107156
