44
Energy = -116.6333907 eV
Au 6.690361490608663 11.994389148528205 12.094446371646352
Au 7.809373658594835 10.048127554211412 10.34908225619199
Au 7.693610257129945 14.569475856366171 11.766092734647671
Au 8.384756427604867 12.350237007134432 14.306687382907059
Au 9.405801642656709 14.880044977234503 13.864053990885914
Au 8.029221358570036 9.843963425255058 13.153226282227067
Au 10.764830032208563 13.207771454405025 15.662120135777648
Au 10.230004183975653 10.464042837887941 15.101374527806039
Au 9.889271843532073 7.938941574563072 13.914421603074162
Au 12.857692995584733 11.200867486319277 15.672331103767377
Au 7.23276548971768 12.89644098386029 9.511306129659824
Au 12.474265943705046 8.721969041414992 14.611182366914571
Au 9.435283688930173 7.969287338207195 11.15401843460947
Au 15.128843486265977 9.591954462663288 14.737346437274457
Au 9.378434943915666 12.360149381094343 11.189529385875224
Au 8.311522374916073 15.482165895083119 9.226919245487217
Au 10.00529073448244 16.00792185559219 11.372188518060574
Au 12.02894851764379 15.52474917662674 13.258297481584904
Au 11.35289695341638 12.834921343011414 13.027243766249894
Au 8.04380189120135 10.96053120167606 7.7581901293373985
Au 13.510765767350442 13.71736542816761 14.68466853882894
Au 10.739066774614932 10.149550400941111 12.3248677300271
Au 15.489137232387167 12.137988377008133 15.704247221007735
Au 9.249070212436914 13.431308226829081 7.630676141399699
Au 9.682735757794223 8.884564384823765 8.55349136115851
Au 11.974453405303855 7.178507441680357 12.259854984769582
Au 12.690422379047837 16.232186322055636 10.674124440054753
Au 11.936444724314079 12.133227660065025 10.40923155495444
Au 13.373638334312355 10.818346396691586 12.763080062830769
Au 13.939130037544654 13.898525603721978 11.948925024128185
Au 10.988104623882599 15.295214664020397 8.808008366529771
Au 15.923745862831698 11.775916492888847 13.009186495341414
Au 10.708729922212084 11.084359390608572 7.143103430252482
Au 11.568261702989512 6.986161987499572 9.512052050433374
Au 12.548786076575574 9.433276261087228 10.444357608775983
Au 13.532523214526384 14.024535112961845 9.187633735440226
Au 14.86699767952479 11.766906858796247 10.395538444639996
Au 11.914227386203901 13.567139158419655 6.899396454021822
Au 14.55586154358146 7.3251982523629 13.353989340169846
Au 12.3283498436935 8.92977855701981 7.6823781358791265
Au 15.647975014626539 9.327939979757911 11.724498203654553
Au 13.357590398929576 11.460177793127109 8.056286185043623
Au 14.258612751595983 7.084609998960479 10.645836442976567
Au 14.87310427786863 9.246283038287402 9.010831089503029
