46
Energy = -122.85109918 eV
Au 11.146158986888665 11.972837023347605 14.51226461033949
Au 12.098109708858921 13.67835781768465 12.175055999195669
Au 13.27908176643255 16.343511097946877 11.883531224825902
Au 14.45772478675251 11.30084421139273 16.821678017078817
Au 11.02036120203226 11.075940225376872 11.905619887514398
Au 15.940195494938695 15.831698106940369 11.300759463855362
Au 8.34054080072017 14.313251358542557 11.193842740395228
Au 10.580555107576723 11.528509892814608 8.0855601325042
Au 13.476632351200813 11.530694238312734 13.117321915694221
Au 8.663619492013195 9.63546860457902 12.19543087927416
Au 12.321973727877056 9.618788950303669 16.288627963110354
Au 12.709657303765281 8.901365756050444 9.666118659847362
Au 12.314654406280724 15.865034816875385 9.226880658772012
Au 12.758745722279542 7.81429844928092 14.287234847168813
Au 14.83028577593866 15.191109367330856 8.364489756058735
Au 17.07048695628722 13.527367125581165 12.475826648808683
Au 14.728178127672239 13.178778178977076 11.15713858494344
Au 10.35915298819938 13.960077490471685 9.3386395624715
Au 10.281621721452803 8.97329874217804 14.472897113969811
Au 12.603981645255272 12.158635796669053 9.889074112010935
Au 15.79005793544468 12.447230440755414 14.745918384371558
Au 13.506526841909409 13.727344841908971 15.854846698433699
Au 12.586728225785414 13.644288701153837 7.537642838659226
Au 14.464091561427146 17.54725679311123 9.712850613622884
Au 15.138218268044216 12.533428471662177 8.127688621279264
Au 14.786785695875293 14.818491294098997 13.684172888070805
Au 11.951079788459284 12.068062096039919 17.54696037248106
Au 11.295900733219197 8.27844142973448 11.997702534478039
Au 10.768260227690519 14.278020609684583 16.24921721669581
Au 9.389630448184528 12.871768182737732 18.17047570995608
Au 8.77593132098644 11.781095927335766 10.264800841521097
Au 9.953743274157487 9.315199148905043 9.756962886877421
Au 16.980448751470707 13.909459944488013 9.633440411026129
Au 13.257610536272303 10.714936656485252 7.473394998480245
Au 7.827842875474154 10.246958979782745 14.726885045558792
Au 10.590202629813177 15.866106388842796 11.458401008848309
Au 14.94284101105468 10.487373830703115 9.963018279731934
Au 16.121378904285596 10.847190916403179 12.455132701808356
Au 14.091712687390352 8.858434299356277 12.055261334551412
Au 8.38402013024947 12.826193624156186 15.592842377145669
Au 11.186162061065174 8.925174210856351 7.317897383819416
Au 9.555842749925226 14.469637058894117 13.700209060667598
Au 9.744160489924244 10.547992481877596 16.685201438651756
Au 14.82587073208453 9.639851294605545 14.658913883752115
Au 12.095607173300404 15.545987140541236 14.23673179329552
Au 7.875816564072526 12.272397675211993 12.903627588365367
