46
Energy = -121.65499346 eV
Au 13.577427590174754 10.026042227079559 15.864569609740762
Au 10.969003041270009 10.280924882942315 16.697712965474608
Au 12.07306949028839 7.976065068738422 14.692282024760582
Au 16.21472028329169 10.269476395403037 15.196827018444912
Au 12.306479787564252 12.666680512058196 16.221855321400017
Au 9.378518534003813 8.651475384871079 13.367503562543018
Au 14.633688085433002 8.520205204853449 13.737438177654846
Au 10.655708806422647 6.263365673595168 13.114982716156897
Au 9.624895593657282 12.496269138171694 15.700794523858189
Au 15.031546527085176 12.647862754689488 16.023360302474114
Au 12.843620328006788 7.336358972830552 11.946551518605979
Au 11.345034510854884 10.533683746378067 13.959231882545785
Au 16.176810151146817 10.471548735827637 12.453500581508855
Au 10.464597930338131 11.386075837184842 11.37886849818907
Au 10.23974341501439 7.789869877123221 10.800575837534831
Au 13.547149919820681 14.614681963097992 14.60798956874851
Au 15.093757100212555 8.406756703583486 10.877012297099196
Au 10.791254141941948 15.580573194471516 14.779660901402533
Au 13.885953569272205 11.991791084613375 13.553459464645249
Au 8.486356051498035 11.21779537184989 13.56112362880851
Au 13.034016873293977 10.197085269863537 11.752770698368948
Au 8.507527897689078 14.039267216746273 13.6873324150443
Au 11.266535814370872 13.238628303493083 13.459650321349637
Au 16.468514002243047 12.98899750599175 13.5929207132172
Au 7.42602045947857 15.260406467590013 11.467343579870127
Au 12.710853290975582 13.02312775239382 11.12572176502068
Au 14.855734900830363 14.671008182475456 12.092203265145386
Au 17.167072507648804 9.997637208373659 9.948173036195524
Au 16.3467547889317 12.630374452425444 10.73901241192291
Au 12.551685427310625 8.715167649477106 9.463309679019597
Au 8.20664489683558 9.816240699850503 11.094487229895503
Au 12.328750765015611 15.823298613901823 12.374044316336832
Au 10.11442043232473 14.261676515644512 11.136620824160175
Au 9.613251564186376 16.710314206606714 12.626307688104715
Au 10.052609229453745 9.830794891244487 8.980645862760468
Au 7.760101997535972 12.567894046959212 11.232859923874937
Au 12.142423883022545 11.551069324540723 8.643018394310916
Au 14.64968302204215 10.743254498248568 9.308744091484593
Au 16.204295692178235 15.205924262039971 9.717161829099277
Au 9.489484425658484 12.502019238539402 8.85141489135062
Au 8.431988255768397 17.557809044368085 10.287472463553327
Au 13.617007963676144 16.03367122217476 9.845676719998423
Au 11.616378839048748 14.387138707127692 8.666530561204743
Au 11.039065387542273 16.821545773350227 9.972165339890775
Au 14.273131987024735 13.41808061166854 8.880359411690415
Au 8.897399842395096 15.195734931943349 8.835824387326715
