46
Energy = -123.39890607 eV
Au 11.145872746914968 6.800791997759891 10.379502910679076
Au 12.893858312712936 7.765965085890038 8.491766342547416
Au 10.277938837514162 8.794730536960573 8.647413605058277
Au 13.928569829893078 7.941683944688131 13.84154769211991
Au 9.355500099381203 8.630208825047394 11.32148897335709
Au 12.398758430965662 10.398905719694213 7.958107426762339
Au 11.374816483692538 7.67890441488415 12.958724409217442
Au 7.985802807406447 10.094431789404176 9.381131880947276
Au 13.653751453363235 7.599684156963292 11.157273397195244
Au 14.647156493339413 11.96942483121792 8.065708556530508
Au 9.574542061363715 9.528812067725948 13.935052841057662
Au 15.921141250748743 12.176377743282552 13.321417271214047
Au 15.320001019092413 9.642758194908476 12.208077248828916
Au 15.19124571080448 12.928143238144505 15.950267675344072
Au 14.64827342002826 9.619098244629567 9.504787632945234
Au 9.850900579410872 11.594255547147249 7.981661328208311
Au 11.043989690572534 11.083266473703308 10.44551233995366
Au 8.20616445033707 11.008946868618844 11.992837596217697
Au 11.998143310344497 9.179339906952613 15.307096650873508
Au 10.059986964624395 10.749702694439039 16.384781437422493
Au 14.480389104741072 10.413010915311503 14.87200995264495
Au 15.73101523608914 11.95946363676215 10.60549489918662
Au 12.164834467856599 13.141540493610547 8.379963062113722
Au 14.318641721945129 14.216381810379097 9.665182430266638
Au 16.117575634536042 14.481843542797831 11.757523103320537
Au 13.285574586709581 11.443565831806701 11.999964619215215
Au 8.497492652717321 12.182492821555408 14.590741848760246
Au 13.012965545425654 13.059686429308874 14.281458337414488
Au 12.247778529329889 13.979892334089426 11.810139108005378
Au 16.856534670208855 14.509109123169202 14.44670315532301
Au 12.725832981426457 11.483830706212714 16.749876480365597
Au 13.034519751971395 14.223736144690566 17.093475913090902
Au 8.10228059691153 12.817556448036362 9.84584163124324
Au 9.763429704325095 14.394204676894184 8.336518165366828
Au 10.725900674951356 12.006449551741328 12.993449605947031
Au 13.976392274514074 16.307287893815563 11.415785554453485
Au 10.669529596799949 13.387214388345742 15.907248774043051
Au 14.64713495424146 15.770110399144604 15.542061741743908
Au 11.329872578739577 16.59092586077769 12.396941016349949
Au 15.965501009420702 16.79717042552335 13.247888856672928
Au 11.842264435446713 15.65370106223232 9.666346291500313
Au 7.559698224961276 13.650498787645445 12.432403008675335
Au 11.864346627078275 15.787110739126872 15.081314209538185
Au 9.42760379861941 15.081693824542088 10.994294395552737
Au 9.678658495965658 14.788170180007649 13.745716560422691
Au 13.420051844014335 17.610153341867633 13.829733713760024
