44
Energy = -116.13708117 eV
Au 6.959378464767524 11.995214456654269 14.641088759736828
Au 7.632982287669091 9.536484589076904 13.487074288358784
Au 7.1528131587365795 11.70694084004835 11.826332457626725
Au 8.838299208303138 13.72738928973198 15.699862671127878
Au 6.514739533250193 9.348021272411541 10.693046274243308
Au 7.941364702676805 14.058640015421945 13.0732673877486
Au 10.20174316512554 8.478221805410577 13.857212466457623
Au 9.494695397360955 10.972181836937922 15.044592612855078
Au 11.473597574673338 12.733928164517536 15.7044697542635
Au 8.785371555568283 13.364172588286985 10.415432002081625
Au 12.168637506931413 10.181882697730938 15.031209188648072
Au 10.186478154743357 15.68540304408283 14.064864054486014
Au 8.914765504732483 8.244627566984168 11.272924843159306
Au 9.960697493594031 10.732557189187647 12.219795923042588
Au 8.843764786680294 10.61829021436012 9.581157659475084
Au 9.239799143953235 15.8974732073199 11.487782469986495
Au 11.015284288208862 15.288752048977791 16.59241021653597
Au 10.754366140481558 8.446900805691564 9.21743827331461
Au 10.655318064913201 13.27024106130277 12.78343730849642
Au 11.476352761287801 7.3170842629995985 11.660731770801462
Au 12.660842344691913 9.937238691203364 12.092625710818202
Au 11.267647820454387 12.086535485757889 10.22112767807875
Au 12.862463956541983 14.83950418400589 14.489698417666018
Au 12.846575577687592 7.682368798267866 13.99443764922993
Au 15.500500797522372 9.210076219060815 11.457012323146191
Au 10.974993844267571 10.768226214694641 7.788885568320236
Au 12.05216846571422 15.61618410610668 11.897677845793886
Au 10.828776424958498 14.949961371512035 9.426784111256303
Au 14.091223618805136 12.212195323646426 14.874844368419595
Au 13.265419853670048 12.893671685602873 12.134832447751348
Au 14.760687728706166 9.649261175128876 14.095201227464997
Au 13.81260711406345 11.168188899794577 9.988378385000626
Au 12.27994254815297 13.264889817208253 7.815544388844831
Au 12.792486555299433 8.516994022929742 7.352910559071081
Au 13.465028313714706 8.112226598125105 9.98399272801322
Au 15.365075339708927 14.238819354232202 13.53207756087441
Au 13.595334058877446 14.883002713925855 9.609706090505176
Au 14.740678172491911 16.181744865053 11.716215016805645
Au 13.639888928725945 11.062299587364876 6.992555161859606
Au 15.99780610364669 11.658206707933143 12.717448288308042
Au 16.629643323206746 11.292647562564971 9.952948919501608
Au 15.352049885477506 9.416436672966736 8.383120588553835
Au 15.137113144080564 12.970235043770844 8.294544575681266
Au 15.914131044029679 13.78165156570995 10.84193954061227
