44
Energy = -115.70382909 eV
Au 14.466092820968564 17.22694455784185 11.345862973576413
Au 15.689087175830375 14.77395769498393 11.07328179032138
Au 13.566115824886952 15.50173243471333 9.338028987407194
Au 14.104324768665672 15.463407024956254 13.453107014943772
Au 16.5342289483563 14.18929422491401 13.632951796121414
Au 14.398797954513876 11.211092271700203 7.202179929246507
Au 11.997805155543702 16.06855557513131 11.668390228416762
Au 13.405776789585541 14.241468920143426 15.811403736686215
Au 15.237963010274495 12.949192574443087 9.085675715147978
Au 12.602137289411303 13.42406933182523 7.850773996435639
Au 11.3477441485566 15.728189651540848 14.327720552872279
Au 9.790122526662254 14.55666164704562 12.280820223231457
Au 15.852678562825044 12.123765697355136 11.835318285100964
Au 13.147938253317589 13.302183944921133 10.911973114704583
Au 11.588777779908327 11.12822878430881 6.56610223518918
Au 10.939379672266787 14.934098561615677 16.954440253965494
Au 9.893162055689887 12.211563889782981 8.3563476485415
Au 9.40264476732793 13.765922343235584 15.020838059776702
Au 14.770351941257738 12.269320183962101 14.466996173141451
Au 12.196874163954616 13.196104473245196 13.490009792205788
Au 12.655261486910028 10.997815511068017 9.3542000492644
Au 10.707006104255786 14.568734370879456 9.615390319346675
Au 15.275952142267991 9.792087493910776 13.40159414580069
Au 15.343634295926456 10.247884309387382 9.894920955035497
Au 11.527642556763698 12.265224041627807 16.297509816448557
Au 13.014323854103095 10.813942377138671 12.132095846197736
Au 8.230097204641494 13.197424145780074 10.365416990018787
Au 12.948709633170832 8.820430072714974 7.363042523863944
Au 10.661136368633896 11.97027568156865 11.136240200826414
Au 15.412683797774909 7.928635199793674 11.425259855520503
Au 12.94889025636893 10.238987191206327 14.984715545430078
Au 7.982246693461727 12.548349870999694 13.042587789023358
Au 13.035084743682175 8.309071322912498 10.06964546498743
Au 10.470434412119316 11.067103129036743 13.739316708465388
Au 10.54744848241852 9.309631473847654 8.606984871135216
Au 8.281185107594537 11.281337651020609 15.461144610808198
Au 10.572282460236313 9.734059378175614 16.356654103253717
Au 8.538854042529083 10.281154177037894 10.11182257568678
Au 12.9844909645481 8.090855057300393 12.859850912106198
Au 10.596687358707984 8.83664167779197 11.324944169645205
Au 6.349071412130589 11.150039228624918 11.414883523221995
Au 8.19435430629617 9.542910358740366 12.805645330603575
Au 10.51380209207172 8.228186278083847 13.95684789780955
Au 8.244513674462347 8.535216987968736 15.472954373727713
