41
Energy = -108.55378083 eV
Au 7.553005506786709 10.928851002446489 14.026397249426823
Au 8.372501189828986 13.51184778504233 14.666923304657592
Au 7.976571150657517 15.31133551905836 12.577492331757213
Au 7.306547336131488 12.771902860927456 11.93702673823447
Au 9.918072403985493 10.66987541295817 15.354713643867006
Au 10.83515761636099 13.282840893389139 15.891313385404548
Au 7.3211185979709255 10.09272702232752 11.429669843289215
Au 12.222543971118213 10.190536601333065 16.708005438887
Au 10.001664114313293 16.79850950830725 11.507997254372274
Au 10.412116286171258 15.335684274933095 13.960372914272368
Au 9.485347854288875 9.116868684340826 13.053181089592897
Au 9.907979620671844 12.186254535913822 12.792605940019271
Au 13.492777373330863 12.643993901083894 16.491147549013764
Au 9.44905567098582 14.160042673284126 10.524677498348781
Au 12.519377799160244 16.470637010174386 12.578866926111274
Au 9.200995898804301 11.484431359111715 9.899991722013718
Au 11.98729876280525 8.937346139951504 14.26997795647634
Au 12.434914894683342 11.832502181276448 14.036698478119707
Au 13.024045886415136 14.749166443594707 14.742881090414206
Au 9.35005849711077 8.680435953845816 10.290633319491446
Au 12.11869219703774 13.723182873562015 11.921330417150111
Au 15.280298047566554 12.990808637931448 14.49873845908711
Au 11.764440970601584 15.555725662716156 9.822404150282578
Au 11.955259828811124 10.792003069303524 11.485327994969929
Au 14.914014489226652 15.08982884883232 12.687557180840928
Au 14.492547878148446 10.24393038333827 15.09307275167005
Au 11.64571884101144 8.012650592125189 11.683861739853453
Au 11.519179698534197 12.83259056038865 9.133421117529204
Au 14.25326831706694 16.704072996710014 10.451140615347972
Au 14.180076991774458 9.0277740700535 12.550510837105575
Au 11.365628479560694 10.020198011363346 8.925637490951274
Au 14.403723458944734 12.14206100175353 11.899028113813293
Au 17.044170472984828 13.316201629955058 12.376717453387748
Au 14.036776292038981 14.040815034427016 9.530617907998415
Au 16.431396033003868 10.612568077664097 13.208235843541097
Au 13.870843453974706 11.274322780944429 9.118228187777525
Au 13.598010338626965 8.60492460291108 9.869626129675186
Au 16.504598256604023 15.162220843230635 10.349066445451557
Au 15.965179295405244 9.802403839688523 10.467300559596643
Au 16.33425688219369 12.482747369826168 9.736536787149292
Au 18.27811083350406 11.163469785139679 11.198291334286186
