43
Energy = -114.09948775 eV
Au 13.438212469492797 11.92133279201742 6.409290066833907
Au 14.805204457871195 12.347842582937957 8.72802852792104
Au 13.46452748093508 9.933085662065587 8.337837630859028
Au 14.897556237576676 14.98967245457068 9.491946391319352
Au 14.75323104001477 10.43811666465348 10.813587813052068
Au 15.669392039941211 13.003466046773466 11.269070097623029
Au 12.673799818428279 14.175667818177121 7.95399313541307
Au 13.175498710903588 8.180118282529431 10.415620643366207
Au 11.329439555876638 11.758844553987913 8.194295193740167
Au 15.347938857557219 11.275227577748167 13.430168635415143
Au 14.517293137964149 17.57217529356568 10.178285738029459
Au 10.796886023710622 9.119896933987615 9.017333960134208
Au 10.739797179893019 6.908821407985329 10.715773731898762
Au 14.597951045258737 15.882666380833314 12.265923508187395
Au 14.224167018927796 8.79252897273799 12.937417510596848
Au 16.09180779588397 13.949451681859447 13.76432764326471
Au 12.339929502053213 15.851886399311773 10.327152797593081
Au 12.816644645005027 12.984677188700054 10.640347912937678
Au 11.60559060498254 10.525354670902995 11.217611226665579
Au 10.34989439578891 14.008104456707262 9.568369639756396
Au 12.769347254304165 6.354118198661141 12.478466870678087
Au 13.192152894753631 13.684034055928695 13.252947654666798
Au 14.261637929842681 15.590454262229077 15.066909274959865
Au 9.15714517014867 11.390620953201145 9.769337840026393
Au 12.118588333109724 16.322181858861192 13.447251858116873
Au 12.32282440402425 11.103694115801837 13.733061841843297
Au 14.58098456582418 12.76414702836206 15.761727882248525
Au 8.985494973414303 8.956702822593215 11.225360453853977
Au 10.617485894888572 12.92374383161981 12.42028412304616
Au 9.953123207781331 15.665027245356486 11.741640731102748
Au 14.10653887302405 9.902188991902204 15.528650111991286
Au 10.772368201875281 8.090847098988373 13.24898507042278
Au 8.137938774421858 13.643457465396512 11.143253121714995
Au 12.914993276337245 7.4554408806101735 14.97105822161903
Au 12.08491599193851 14.150583571891874 15.910687134251898
Au 9.696281098798767 17.43708141385648 13.80432006129574
Au 7.328280542351954 11.034482784409441 11.811215888093253
Au 9.757818182033267 14.800054124805094 14.503162401269378
Au 11.078204341035018 9.49892505702005 15.628128907727618
Au 9.103017521303107 10.184504028757049 13.774952544441485
Au 12.369406718705333 11.567608169825776 16.888269026204128
Au 10.107948219834144 12.210397077104728 15.515592280736259
Au 8.05079686382891 12.752822392410172 13.800410146727403
