45
Energy = -119.85769816 eV
Au 10.686264805377936 11.848668802286177 7.582140954804554
Au 10.250706261553665 10.632296939514507 11.437186923304553
Au 12.260628701770045 11.705328061129926 16.295756217100635
Au 8.652171051704151 10.628270828065778 9.057338537815298
Au 16.028882311543377 12.926456162119333 8.706792088512413
Au 16.126316943741294 14.085808289510563 11.178136762211068
Au 9.50798525072421 15.741468740203308 10.187317263296464
Au 11.200731806375053 12.150096822196383 13.5216798705131
Au 12.023326356963068 7.57297555199106 10.694389852474961
Au 14.90830420254765 10.415306373139993 8.528197474231114
Au 10.772987036808678 13.24642239797695 11.014630448082828
Au 8.807999667087833 13.394445595109728 8.904656934934259
Au 8.004170339117639 13.972434112606914 11.727468225576452
Au 12.466175948781943 11.427270395981123 9.726954338977936
Au 13.491540475536077 12.753778308815386 7.47626337517368
Au 13.653611502116924 7.532889908407982 12.951467087070858
Au 15.77793393420462 12.47482656759297 13.503770570475071
Au 12.197187383505165 15.734303194480988 10.951315957964578
Au 11.185655228529612 14.144681452855941 15.423371214909222
Au 12.863401642262328 9.408397332410392 14.86046173078153
Au 13.475282297505379 7.979336575314823 8.373665559484039
Au 15.364510740511042 9.756660798660192 13.338268175116195
Au 10.914723657724783 9.118122422849455 8.599520369943598
Au 8.341501017873371 9.357708970397773 13.277250122874795
Au 7.558070511541944 10.97662699239684 15.390633985623076
Au 6.9508890702451955 9.642569652543814 10.987133489387443
Au 14.911251255538069 11.078462264832222 15.719375650277197
Au 6.843320774471945 11.720522409196606 12.839871924800859
Au 11.467948658996708 14.428012974644684 8.500828128467823
Au 6.606345362010255 12.272264854028673 10.099787035535467
Au 10.19904360561394 15.187733474954177 12.969130194378037
Au 14.110397386578033 14.792728328773551 9.269404679505367
Au 12.853270987043928 15.42390553167991 13.589079050842848
Au 13.976705574331902 13.694699818780169 15.396435596445174
Au 8.636775618691795 13.318284027244072 14.316317142129934
Au 9.57567724258743 12.242314592077053 16.732963292972265
Au 15.751714327996412 11.296064401848488 10.992568991877873
Au 13.500790004212748 13.17813100730877 11.790759773330507
Au 14.71161959657755 8.735447286748922 10.708686537693284
Au 10.922035477196163 8.286413170339534 13.122155946966194
Au 9.306049134251666 8.207339228974533 10.717392609465323
Au 12.958455712019582 10.44693637533475 12.210007068833661
Au 12.760504767266742 10.185343648860618 6.820778409260393
Au 10.201552362231846 9.99793506804289 15.217106672312239
Au 15.551229169915523 15.19595545095661 13.607228927450741
