46
Energy = -122.00946037 eV
Au 7.033688779912246 11.562896844715373 9.954502497602034
Au 11.156607741450271 10.753848565457755 6.405886536214483
Au 9.939529195219507 8.37473773042913 7.780131664103992
Au 8.942998715272 11.049851723671145 8.06804115774494
Au 7.2000009727428 10.03263678690837 12.216259378954767
Au 7.97385894814767 8.887745093057063 9.70296828975159
Au 7.972641412092934 12.904974505790888 12.207638680922694
Au 10.695989074600671 13.18394625506875 7.623035874000009
Au 8.9024318375203 13.62628080620022 9.636850066135809
Au 9.621458752882628 6.684191769178099 9.89887171857479
Au 12.663023017967518 8.476225152726961 7.206604536437257
Au 13.76916367192603 11.033159682667094 7.46466762580033
Au 9.63263436175237 10.844234368502581 10.939452497549867
Au 12.229939342937183 7.426795774422363 9.707549705835591
Au 11.41292318515475 15.364645808515029 9.447517500544636
Au 11.62238941090719 10.283286907409376 9.129370788433992
Au 7.50330108229711 8.600083061377527 14.593631334306096
Au 7.8910301811076184 11.370308928392546 14.590022597840726
Au 8.335134883361329 7.4822247233860155 12.159739604178775
Au 9.726184595960708 15.056996780779377 11.820982139679622
Au 11.647094526344107 12.830213129620912 10.357783153312539
Au 13.309812635534483 13.72167411602153 8.09333461163246
Au 12.057208425166044 16.68237020555911 11.818794065570701
Au 11.146868929922874 6.770144112658071 12.184248543872169
Au 9.85360658407366 9.614471342514285 13.51431848188071
Au 10.549083567347196 16.104411874316554 14.190408646735571
Au 14.19702006230744 14.995564254185606 10.321483865242095
Au 14.281462269646736 9.49919408005013 9.84440059202543
Au 11.252155654914104 11.928423658060508 12.964525759694041
Au 12.06507950805139 9.429277243510683 11.690498880205404
Au 12.792866632716704 14.154573596403294 12.614268900931048
Au 9.979075271549783 7.078623821257653 14.603852099605765
Au 9.183236581142795 13.775109053102703 14.502337489870643
Au 15.339263500503787 12.309005188106298 9.246589094849424
Au 13.811022638920939 11.779951013999986 11.639106575405286
Au 13.23926201387279 16.230689929417327 14.54976600015409
Au 10.583017537131205 11.459166185994441 15.571090134955929
Au 15.241375218264306 15.700484920006648 12.782634732123592
Au 12.31977544142107 8.64081731182466 14.352153795436644
Au 13.326774377379273 11.273975788049954 14.845100163704513
Au 14.56545012140025 9.400269981574189 12.952080743838179
Au 11.851734732296768 13.87980080369199 15.341473393356743
Au 16.21727005265775 13.4973491498906 11.57985928638758
Au 16.4286315365873 10.690549139620833 11.249840441256737
Au 14.596077480122625 13.81904548160391 14.864594099802385
Au 15.895404834670495 11.754382542099606 13.789527875299893
