42
Energy = -110.98329128 eV
Au 8.66294837663615 13.735458553974686 15.882512605119564
Au 10.345530259694247 11.865268519244959 16.94288409588517
Au 9.455186636791971 15.586328909476329 13.960681496490256
Au 7.604882356458836 13.438785997353984 13.365050386694147
Au 11.39307093477835 13.931567079096975 15.245745848603486
Au 13.005554407338295 11.830198313793767 16.105282630249782
Au 9.063828890836174 11.316136168834635 14.50548212228202
Au 11.06520791508699 9.632360028678953 15.453372206591192
Au 8.561117427147972 15.265290417365355 11.318767936144939
Au 6.777267645888201 13.22009600792619 10.722121414865471
Au 13.926988937741273 13.650403196186197 14.18096298961364
Au 12.110722029618934 15.586284834809051 13.064681669506133
Au 10.300639212364787 13.385960297321109 12.395910351183463
Au 13.756503086537796 9.159306433475962 16.003536246485368
Au 8.120132361586563 11.053270148780495 11.918697737892636
Au 11.985494818968593 11.459130686733474 13.468795561731215
Au 10.050798009337633 9.256325494808658 12.860698093190425
Au 11.070687814379706 15.270231151792364 10.154131465038907
Au 13.027249725243685 17.081204847288216 10.868262143882133
Au 9.249498949914035 13.336665801089673 9.347879174546161
Au 14.941602560096253 11.023216268875291 14.278141078620195
Au 15.359770256271519 8.25384657334215 13.982470112490105
Au 10.928270934081949 11.232191682865063 10.780888176937058
Au 12.613192359002317 8.43167723747326 13.46304449145502
Au 15.777297089453107 12.736833943426536 12.283971286266079
Au 13.589927522374685 10.531872492985896 11.400449448282751
Au 14.742907998272312 15.306290695021152 12.096295389249486
Au 9.11453778535252 9.07676941415366 10.241992436946388
Au 7.537147321053984 11.100736055156789 9.169271015547737
Au 12.922060797406898 13.212030919932998 11.372419838979239
Au 10.034913920482008 11.006819053144472 8.013825884967869
Au 11.783539575831547 8.32266854070034 10.751150916249335
Au 13.699745873981465 14.999963059782234 9.2031085510728
Au 11.864522022488092 13.032953689354148 8.51639953023674
Au 16.31168603095058 9.963106247881573 12.058465645979776
Au 17.02520042553473 11.664751608739001 9.990901393686977
Au 14.470847384870765 7.836385071763192 11.376268472356697
Au 12.68951632964813 10.266251455580958 8.527827888409359
Au 10.733672627002674 8.35115052696415 8.134694386462659
Au 15.247495320772805 9.625232706182524 9.359949520525943
Au 16.24090712084532 14.284904786166024 9.990732761382832
Au 14.503291634348718 12.336667948728293 8.907911802240092
