40
Energy = -105.56742276 eV
Au 16.804641401694088 11.02048251584874 13.18469212413423
Au 14.780970789397413 12.375404846378213 14.567688461141348
Au 15.04922437218561 13.949642805071576 12.381958147647705
Au 12.891910559494903 15.284939425498042 11.28440273177742
Au 16.54440997704187 12.262001454801078 10.742552895828169
Au 14.937069530594277 14.206063321847717 9.585373465756394
Au 12.731153803918797 14.144662470147223 13.978526519652865
Au 10.435501837339098 15.26090694693155 12.935564990385648
Au 15.270886422698096 9.777199107790528 11.209937711112977
Au 12.418495560881913 11.862302661407513 15.886512552195805
Au 14.548049409499304 9.682990411903395 13.923372058107459
Au 14.997368883369257 11.08064995803501 8.661322979262641
Au 13.566281399974207 12.058081920172745 10.822159021381296
Au 10.387524802716415 15.669032607660128 10.167790646296451
Au 12.33989733261208 11.366966274238047 13.184403361150611
Au 11.078247261702701 13.116381556920647 11.32527078360406
Au 12.364229019946078 14.084073017485098 8.682853207602214
Au 14.60017298975493 13.18530740082894 7.007878761511533
Au 7.944532183531867 14.319140601386193 13.6879631690205
Au 10.233426576738555 13.32268656069053 14.956007342404702
Au 7.743288579852992 12.023681868580056 15.14709500162472
Au 12.231060890365983 11.82315613170274 7.009954517817693
Au 9.67117147411485 13.522538453825186 8.595461834220336
Au 9.968135462230633 10.655484230961402 15.882837054738019
Au 10.064192174224631 10.63811539968433 11.953282460318942
Au 12.028098562690237 9.11301041916444 14.796961152777717
Au 8.340456917779363 13.95714016238915 10.991806951286804
Au 11.330556388583807 11.112238917584973 9.504562957584548
Au 12.79352790201466 8.57136638071189 12.101522127832336
Au 9.524639736196699 11.18994616867535 7.257538078348001
Au 7.519827377002613 11.754868888122948 12.384332674035043
Au 13.357808079490246 8.992465273661885 9.43878779605332
Au 8.094380847660297 11.436680849227571 9.712084379269344
Au 8.223471887076254 9.577584565681118 13.954368619597965
Au 9.702560861743574 7.894942058555915 15.62868092341937
Au 11.349647158325212 9.138608638822678 7.581477893894358
Au 8.049007283864832 8.956738671701322 11.240140192703203
Au 10.207265460756469 7.892848937591566 12.895448998799605
Au 10.771376641585286 8.188967309487746 10.211449922407256
Au 8.614994112938449 8.931684449914838 8.578138780519003
