41
Energy = -108.04192818 eV
Au 12.81770495942801 7.335876476264692 12.204604296509826
Au 15.134425219913597 6.449798839597058 13.334285750238704
Au 13.107347225575024 9.241484532695766 10.07431496873286
Au 15.344300402561357 8.4121179042031 11.497373587022274
Au 10.615788425152182 8.519344026962898 11.176341149215132
Au 11.11135435082414 8.66747274318498 13.890699674012117
Au 14.144895255465519 8.895839572407075 14.13499879665286
Au 12.720037023278296 10.769940247699344 12.50586762076627
Au 16.390848181171837 10.338746185732928 13.130785886159362
Au 8.384818013297398 9.787384507985866 10.277913921907718
Au 12.369906881849218 10.352583356470845 15.625537802211245
Au 13.263318176760512 11.727833584400242 8.901972933838387
Au 15.149384384274267 11.148223868924177 15.349067902840691
Au 8.667199330782747 9.75323495943296 12.989167947869174
Au 10.828603228795975 10.284859333426907 8.983444093934118
Au 15.314838864990676 10.949384388177066 10.547727848145362
Au 16.588792851659537 12.819955666321666 12.110927401384817
Au 13.062647125843487 12.85352979649514 14.325784522176718
Au 14.87608241581579 13.662750586059119 10.102927772904032
Au 8.72551929745603 12.155075786051398 8.941831656115196
Au 16.03489249913806 13.132832150166337 16.959946788726157
Au 15.807160071779547 15.42449498020684 12.105056708928904
Au 10.313182169694759 11.714713179280654 11.50741243187308
Au 11.052691635397089 12.547430193561494 7.439777266596944
Au 13.619324230952666 16.157852576002856 10.652087327427322
Au 9.544874410446031 10.175076188607735 15.560252736945289
Au 7.2882600237624375 14.284803225618578 9.894565725631502
Au 12.41957444766672 13.399204237976551 11.598261831312097
Au 10.81496693819514 14.491570361204793 14.106883625446486
Au 15.672855419513343 14.022340633922951 14.451181764025595
Au 13.377841230833049 12.57474601518281 17.059229453830543
Au 7.5251632661060235 12.068297964671236 11.589145438229744
Au 12.545080848914866 14.40465448446737 8.796250746613227
Au 8.954759548669998 12.382559037473797 14.025634865554448
Au 11.338258084125552 16.874744607938005 9.256812296223742
Au 9.760637327931844 14.693588472245375 8.47274349549852
Au 8.791306432387792 14.481510612513095 12.243022239810388
Au 13.369267212796702 15.442711541618674 13.402341378372514
Au 10.784689636830777 12.592803226801307 16.1106470246317
Au 11.092187402449648 16.07883821120458 11.896942057626667
Au 8.826418108077306 16.48099429740602 10.317431824622215
