43
Energy = -114.33362189 eV
Au 14.575532082205994 15.396202550804153 10.126383491230023
Au 11.771322273649046 15.673323708995596 10.512450163619413
Au 13.556506374571843 15.779170462491688 12.60648750908466
Au 13.453338744047187 16.772590579937358 15.103066964777133
Au 12.921166165399816 13.96200332111666 8.579218544431912
Au 15.566280846830256 13.700087227177004 12.106067463041887
Au 9.649069813767575 16.966529848406065 9.175418267546723
Au 15.259828612423451 12.703502746618847 9.5461161046993
Au 15.022734668000899 14.490793392732451 14.6752274063662
Au 14.268185844558648 15.239945666584552 17.26422387987986
Au 9.098714692310358 14.768438306066562 10.741235920081628
Au 10.259078864216237 14.603498939926563 8.159265725288796
Au 13.995980493436111 11.797688484910362 7.303103799624788
Au 10.919667245862142 15.012619760500042 13.16080764645941
Au 11.006776063278796 12.811173643789276 11.262223255970506
Au 15.510166492840272 11.786541778233355 14.220473851552574
Au 15.920439561934526 10.976718233429494 11.597450156649211
Au 12.222081924469649 14.337154761631515 15.600790608530101
Au 11.20166397230411 12.321452831792852 7.149800322043378
Au 14.318203518852126 12.593430527527559 16.679852648281525
Au 13.023325280700703 12.907489688251534 13.158389439558094
Au 13.21386366150858 11.272982382410783 10.777889262216165
Au 11.926464387136459 11.562730445673136 15.716483797472348
Au 9.839365283254692 13.178863517506185 15.031836178377954
Au 12.18539434519683 10.033410314297017 6.093801873384539
Au 8.165267511316316 14.491943859521761 13.276124052127138
Au 15.255451889374791 9.106917327400023 13.505175361230208
Au 11.59954959288456 10.598494613343279 12.88633796018408
Au 9.28669547555897 12.204725202924793 9.138652911589894
Au 14.499716846377343 8.707057063832165 10.90802027306948
Au 14.246981247863284 9.980817098871995 15.976443769364487
Au 13.376868109489967 9.464173135672768 8.575960113607044
Au 8.057284520510745 12.261087501953256 11.581358803410678
Au 10.600904846446277 9.834757542504867 8.338679525320089
Au 9.533771678553457 10.363502185229368 14.868661738744052
Au 7.4394787439501 12.071854236701524 14.306547079726274
Au 14.067168325236784 7.306851549410837 15.28780641749155
Au 9.194248989385972 9.877732591354846 10.657654334661137
Au 11.668950529173125 8.622634762982432 10.614272923946306
Au 12.85243142778142 7.612100008119271 12.862313197974608
Au 10.052144757251058 8.303368827473905 12.891646060315184
Au 7.67445271215929 9.75192097823594 12.895350166167606
Au 11.801438527813643 8.849675337540283 15.138887974784597
