48
Energy = -128.66334244 eV
Au 15.879728050309646 11.477063799824936 6.855658526647684
Au 15.346498709476588 10.053292073424219 9.109619656792617
Au 13.27217550192809 10.736922113307529 7.286238216207426
Au 16.12662671000171 12.71980500862633 9.339845149410307
Au 13.158301051793275 8.403964699761667 8.932957891997322
Au 14.084326937208836 13.47597878165747 7.509483329235927
Au 14.538314052166998 8.800296009613 11.41728742800762
Au 10.83443618792539 9.917539373689523 8.152988095345611
Au 12.259516550338201 7.1380944414552605 11.20663164204528
Au 16.26032327277417 11.017688801321553 11.562198683398794
Au 12.804265224820277 10.980551481341656 10.24062345069619
Au 11.38527620459531 12.598447992418853 8.09664772623442
Au 10.638652741202486 7.2873083466621855 8.897460688123894
Au 14.53688266042229 15.018383819374208 9.82104457355979
Au 15.36584163802564 9.809296446666343 13.92011923743771
Au 11.950552262973726 9.968389073443007 12.741908130820132
Au 8.900423994630541 11.836055245000084 9.09746370423448
Au 13.399707787142512 7.790993826532085 13.75411566533908
Au 12.18563232806214 15.135112281776598 8.51743678908007
Au 13.970263504413177 11.956489555974073 12.82920609928944
Au 9.923788901194031 8.840217591623368 11.060969182509648
Au 8.31360002057725 9.078268973366132 8.852024329658017
Au 15.919820254842946 13.76475658042099 11.83556877740119
Au 10.684117688425436 7.468397158014602 13.463863956832945
Au 7.588310549478721 10.540949366868663 11.165539092763572
Au 9.9738707541171 14.299548144602324 9.912856146225977
Au 13.561480023712665 9.392200319011142 16.020463678811875
Au 12.474422286107227 13.662149174509382 11.336056035790632
Au 11.770980866033636 16.324525165735945 10.949326013261068
Au 8.054262515648718 13.312755434715376 11.611775515642792
Au 10.908331499169357 9.364104912416382 15.420304720752085
Au 14.096144436005554 15.86004456203834 12.446297955964074
Au 10.384291613285855 11.727505603422996 11.420764527227817
Au 15.156682715039068 14.151084009424642 14.373163554196191
Au 14.63713101603485 11.85318205621317 15.707981927884996
Au 8.923146840367085 9.653286993383412 13.491053402023589
Au 9.527322356911471 15.522742092759522 12.411036551232318
Au 7.029269975352175 11.666523815554884 13.619360478311977
Au 11.92773468542935 11.688879459466545 16.411374493814467
Au 11.512139051215469 12.732600925244679 13.81985371410051
Au 11.705360119045583 16.84236192080194 13.611558859180091
Au 9.280518718153191 11.669599038749206 15.331509584344792
Au 8.175500494763002 14.023441951685486 14.340309788369598
Au 14.05761003521152 16.51831456206072 15.119072665144524
Au 13.21174213010336 14.137791830761 16.377928018557586
Au 10.414511912896199 14.037046245251206 16.124831372366813
Au 9.349232048961532 16.363987137828005 15.04250281048112
Au 11.686505699796736 16.443546001295537 16.434160421047654
