42
Energy = -111.06072409 eV
Au 14.469894500502665 12.398596782447935 7.905209288273775
Au 15.007789613869775 9.017007115103578 11.50851228950817
Au 13.59242973804809 7.366479508971101 9.570074772484501
Au 15.123507720091526 14.238878780524354 9.84079498668228
Au 14.95775997273014 14.991028322076465 7.237142206934548
Au 14.992618059297874 11.017100792969693 13.448197081587821
Au 15.571911236639641 11.595964154130622 10.719518747084418
Au 12.471262616834407 14.436436669093275 8.189383225655783
Au 14.533237363806709 13.630716634258384 12.403184123951824
Au 11.854560894524907 11.447926279450265 7.791019144790789
Au 14.049018423275916 9.946543414378043 8.925301806763173
Au 11.128347579194353 7.455084459410949 13.502793181353635
Au 12.83652986408087 12.194113707941371 10.338868546597578
Au 13.614722924119281 8.71204973017689 14.082543766651714
Au 13.98323376012446 13.10373188700176 14.996428580402938
Au 12.68855191534841 15.173136919342387 10.932808725727254
Au 12.041661013526555 11.72136634884982 12.955464395078632
Au 10.412923452394974 15.816797744047781 9.480404832825036
Au 13.427939432333835 6.7803632422537135 12.200395061042444
Au 13.574381102642871 10.66840975698225 16.018253995509774
Au 9.350335965979472 10.623910573720597 8.609419083666204
Au 9.919624390812578 13.346287618116131 8.232171134850498
Au 12.113536590846461 14.52324521947847 13.612485425909847
Au 11.456600542863779 8.823977298619287 8.51665370276078
Au 10.498948043193437 13.31331026893318 11.077140642944437
Au 11.206163749702409 9.494643780758578 15.356701037013744
Au 12.223119902705179 9.458737951440684 11.44790261738087
Au 11.041204268139829 6.968911111220013 10.73076305974393
Au 10.303641531283407 16.10539345628094 12.233782125909032
Au 11.278245584890797 12.335695086354724 15.512761238858527
Au 7.719588259790081 12.538835434290062 9.748499140799908
Au 8.702259683394027 7.788462389896737 12.026021827328291
Au 8.085560435660723 14.647402145381687 11.553359877149473
Au 9.818528089525786 10.652745423196464 11.615661205237213
Au 7.800144894099498 15.18561192509902 8.873721276472798
Au 9.478282721785384 13.653414285893156 13.773118307245289
Au 8.92602900119103 7.957154856103028 9.304987702327981
Au 8.8506179897492 8.218869979645238 14.750935917923597
Au 8.995449409395496 11.031287803591363 14.560337744736778
Au 7.380551781403449 9.93042106449396 10.560271361774234
Au 7.4643056577390885 12.09934566307767 12.47825694407281
Au 6.977319683445751 9.512943775982537 13.301089227970714
