45
Energy = -119.31761337 eV
Au 15.254292929718146 10.78201208178102 14.571179895863239
Au 13.455339505608338 8.833612575842102 13.730063199918016
Au 14.730164064933545 12.032768344647325 17.00122971863985
Au 12.75289937630231 8.046946570050347 8.270174469174869
Au 13.336934600056868 8.266639913052966 10.977224159302748
Au 12.71248739807263 10.490220218627549 15.87412546539816
Au 16.520879464934428 13.15786974053521 15.31102849862881
Au 10.828272633405865 7.2011849083608395 9.98508704533508
Au 14.585676157454303 10.013404204837359 9.154036897058392
Au 11.482332824204057 7.231636885938426 12.737793096840978
Au 15.843420248688918 12.728523005218204 12.665509260164356
Au 12.681531919914834 11.542211400686698 13.231198033875875
Au 14.215819332520185 14.598101477076897 16.15438072411936
Au 10.144463766295218 8.897111891378897 7.841939110278229
Au 12.123518728564896 12.93807992338181 16.992981996024326
Au 15.014573142061911 10.27306610673335 11.839833645291273
Au 8.864142566762375 7.227567597610242 11.924010201612916
Au 10.706850891022281 9.373177837749 14.399757237418592
Au 12.37232515573583 10.686434396870146 7.665185454240827
Au 12.413134265352644 11.323943835801595 10.47792107444148
Au 15.648803264095418 15.278807397176692 13.86684458433781
Au 8.164618407542067 7.6207060541367895 9.307197010397223
Au 14.813352836579732 12.65506220959557 10.004800753201247
Au 10.425957977669214 12.085021220419213 14.894886902845736
Au 16.07319956198294 15.00416085775391 11.16087880467124
Au 13.095608526984973 13.926637035154982 12.086188149137888
Au 10.502051790456918 9.666362492239974 11.557807432777837
Au 7.26834692306418 9.410293284094154 11.293406937145093
Au 12.409359861786177 13.314112486390728 8.376450294522815
Au 11.818949373110106 14.43982153973477 14.714978011487009
Au 9.998749697492887 13.850321251030016 12.686160413707498
Au 8.069646751973517 8.923070025597598 13.90727963468254
Au 7.766642561275197 10.214336640153366 8.666709815145305
Au 9.798558131492733 12.050818710845 10.361059632304057
Au 13.393044700158411 16.748451820764704 14.707183582001871
Au 13.770369619420048 15.282335962044149 9.66247109752094
Au 14.09201093300554 16.711897413844838 12.044510322560908
Au 9.864486441913746 11.594937372367363 7.450344919371332
Au 11.089725352112708 15.110060037899304 10.275137996343894
Au 8.63228098595715 11.444752151854837 12.952806628588887
Au 6.985157763690822 12.047941794666745 10.750953057212916
Au 11.444882237530223 16.287350891532927 12.695941513917235
Au 9.85967210848447 14.257828715138011 8.024229630663607
Au 8.400307341477037 14.443378143924807 10.489550341999522
Au 7.485641661584241 12.897505357911385 8.168047132280144
