49
Energy = -131.01791542 eV
Au 13.680226290493582 6.690903232258363 15.873165106765434
Au 13.96077360176888 7.341317855958026 13.19964554337833
Au 14.858719858795872 9.068201780265747 15.380345850098145
Au 15.684053869114928 9.453548883534214 12.679367329946366
Au 11.318590434051373 7.590194807340156 11.650946890674861
Au 16.094333679395042 11.362439266235015 14.69993446634614
Au 11.407240487879925 6.84372781427358 14.268424753193125
Au 15.608995975076 10.511890784139345 10.100820649308474
Au 16.539921082384257 12.28884303200438 12.183382794918048
Au 13.748017885014608 8.636326167420316 10.809397203788945
Au 12.171125508984575 8.968996627949144 16.323248181238657
Au 16.46008455135217 13.029862776161814 9.514747852771153
Au 12.188423961722393 9.630356368269162 13.558762156270586
Au 13.999087173524117 14.01767482845854 8.713369371687381
Au 13.485189956022014 11.486172388118911 15.716616009445794
Au 11.647478526107646 8.675511666295126 8.983474675655247
Au 9.143066761728385 8.145523532255368 10.011733352238595
Au 14.546938532940345 13.53268444322949 14.071978118895558
Au 13.719653045535194 11.520397601837935 12.264242829518487
Au 11.877508261445934 10.684067355430516 7.036538864363371
Au 9.70902903237034 8.862141492590672 14.822144770592148
Au 12.921991255144945 11.096646524424447 9.6295352514249
Au 14.776730445010683 11.63331764767016 7.6225295641963084
Au 14.770716989090282 14.274827097460218 11.402245910571933
Au 10.731232509901782 11.251636542379641 15.964829936909723
Au 12.854985788878423 13.136599129129122 6.319118888145707
Au 10.712169958968195 10.397330309983923 11.295142383869793
Au 9.362073585420468 9.721334162769814 7.678460687805466
Au 11.251394248828802 12.269319207587992 13.367617961753945
Au 8.408485281414846 9.159120342689965 12.441438763026591
Au 12.878147346170243 15.985233151339266 10.255614129458062
Au 10.245942778482007 12.05485922920693 9.066443147637171
Au 12.122199946058526 13.910557825038369 15.405297364497038
Au 11.903871619768697 13.407942852565549 10.834056418819369
Au 12.572973258331004 15.229117039008623 12.935721103286683
Au 8.337546728602689 11.215640813571248 14.416351493181883
Au 10.114595128346325 12.9675470863457 6.4461198544598695
Au 7.504530121353289 10.278961273344816 9.717228951330958
Au 9.398318257264005 13.57792393014623 15.368202157876896
Au 11.357289617623481 14.809262260027014 8.15410165446874
Au 9.155058155796748 12.741070343451636 11.498968472262224
Au 9.833914194431447 15.09346154272675 13.135113656076772
Au 7.793049208241091 12.026914632666628 7.542340168431517
Au 6.748939140667772 11.354364805286393 12.156402905649626
Au 8.62949538028222 14.498618817321224 8.590584798798679
Au 10.203160812640583 15.862202327910142 10.48605253734083
Au 7.374938983108226 13.721968200770014 13.50288766239365
Au 6.716022750081824 12.923554534698253 9.90039456895866
Au 7.631000317012232 15.18894983035181 11.145904652380429
