46
Energy = -121.3723087 eV
Au 15.803536114163197 16.529703458168353 11.146781131255105
Au 14.190730407792785 15.248865473006552 9.288723849228534
Au 15.228412913316163 12.726657099745648 8.304471867406793
Au 12.471562065008035 13.675926993649314 7.939062701157519
Au 16.173611290898663 13.869958288091267 10.683954787535665
Au 11.445108898068518 15.400776933794136 9.812658522481348
Au 13.254642287739307 15.927559453996949 11.88662588280517
Au 13.416002389828062 11.210781403104063 6.957009625826008
Au 10.7151700867155 11.991640024284662 6.701216064942168
Au 16.634060120255924 11.206825123751276 10.359213243355969
Au 9.706869794412407 13.319393670296945 8.956249059281896
Au 15.304562713713192 14.690857757379293 13.275849711237866
Au 13.704534624221377 12.421941741932821 10.620656211052136
Au 8.783314310339525 15.455703336129737 10.532398735113068
Au 10.68372613779224 15.60858001227685 12.574534513251722
Au 14.591904991432575 9.904078619425983 9.101218178361938
Au 11.502874426650278 11.120107062196697 9.295684852498718
Au 15.820035796347012 12.07339591121105 12.853427940004392
Au 12.326483839158335 8.799289565524395 7.924164701196836
Au 11.140904993893717 12.957434528654133 11.488130193133825
Au 9.741131607511448 9.527910563316254 7.283743307424743
Au 12.72269025536588 14.269844855784594 14.06584940075
Au 8.527833748729998 10.80018342303749 9.49794205938256
Au 8.068529180268598 14.867385731020937 13.155701436560413
Au 9.446446199961667 10.530467051892673 12.212213083022624
Au 14.978560010453664 9.514388356511883 11.865537007334707
Au 7.737673696006356 8.284156981745019 8.609763501152653
Au 8.195701395237903 12.836456676788623 11.293437396101366
Au 13.924443180412396 11.828790530394253 14.821402738259957
Au 12.962546265564914 8.17367944094915 10.561606401609843
Au 15.834102553037635 9.872364206107813 14.459335701842017
Au 10.270275915813285 8.36178507592872 9.873310603931673
Au 12.009188118991432 12.965129826074676 16.436416978453313
Au 12.254841843795669 10.448534361587681 11.928378120272292
Au 10.034030734150654 14.339543200170036 14.986203559764471
Au 7.840737864463785 8.411305314501007 11.298179198953536
Au 11.099175063314567 11.807588295866653 14.047303732106394
Au 8.118319747161351 12.309240813971899 14.152922679365613
Au 13.215500961223192 9.022902057977014 14.12488453469561
Au 11.884339501384433 10.21307702619253 16.276969449186815
Au 11.053529886334553 7.950864212129243 12.537666457090474
Au 8.652374762266781 7.653216016310298 13.831823247173642
Au 6.988121760883698 9.894628140806683 13.450334619282346
Au 9.362439460859381 12.192946423956085 16.695937074153125
Au 10.947276705137153 7.829921188020884 15.326081003064296
Au 9.093706495745586 9.903378076834626 15.331000366035523
