42
Energy = -112.0675175 eV
Au 12.00656037812017 8.663616181979497 13.46048636919398
Au 14.675165495457732 9.184205605551924 13.652665325644113
Au 17.344749592567677 9.85449062561739 13.692298276385202
Au 10.416121059138483 9.547079812922874 15.581596541725022
Au 9.268600938704623 9.112912891155606 13.126205769384933
Au 13.478998839052666 8.805808629518545 11.117250282953982
Au 13.047414936104568 10.365453550416525 15.542007145261953
Au 16.04146099182475 10.020339361372049 11.26740151621843
Au 15.676574233219915 11.22656335918691 15.446010420858267
Au 10.995355476071062 12.255406868431049 16.15017451649673
Au 10.694588705669597 8.303721503297696 10.964957186155457
Au 14.451768867218329 10.436197075784232 9.066034985381917
Au 12.062068475216272 9.046523748737608 8.676861950364067
Au 8.641908562903721 11.53301218751045 14.772407034415817
Au 12.598032012821117 11.088205987873557 6.974249714200997
Au 11.171038678922805 11.525620762871023 13.403597230667076
Au 16.405109567500848 12.334270909506149 12.941468922485832
Au 13.697072802283403 12.817989055216039 16.631178119711585
Au 6.96333330433403 10.486658946846216 12.841800266205237
Au 13.785767671589156 11.59173472956238 12.020269182446714
Au 13.048222913071047 13.438430353944712 13.942477223415343
Au 8.72613511054423 10.583198307474001 10.679909428633904
Au 15.706139256220714 14.027163447894342 14.996374314902557
Au 14.415451929790848 15.459571835830841 17.078904092131033
Au 10.157879584046707 11.080131103786345 8.30219279588777
Au 11.469713295079329 10.98804359046295 10.731068531179174
Au 15.710101494086219 12.724985512944277 10.239789103415163
Au 9.818601208971343 14.094279401969036 14.412765220335869
Au 8.336516380694158 12.861178128087735 12.345511535575493
Au 11.869469716715193 14.950221603994008 16.057661929258938
Au 11.883038679320894 13.605333089598751 11.45953326122771
Au 14.499639763411976 12.86823683837015 7.755461442585173
Au 9.51541073515144 13.29384295948539 9.897589015157894
Au 15.050017802917264 14.598644762037805 12.232159731603426
Au 13.912562310884557 16.11782196898508 14.397599110303139
Au 11.789280899963618 13.420834637493902 8.29498377859807
Au 13.879565948841568 14.726794501102624 9.692023403841691
Au 11.106315198566747 16.531661972249488 13.939496609947978
Au 9.481388614608308 15.29890943590627 11.927071316005632
Au 11.179630789343236 15.708318269779356 9.702518594204806
Au 12.99300728273203 16.34676499598453 11.82335450904499
Au 10.689791904133934 17.78273120522503 11.510851876944233
