48
Energy = -128.59243509 eV
Au 14.910105497932808 8.142757703504795 11.516916558723729
Au 14.953051641735334 10.217058393481075 9.723341095202041
Au 16.95103955053212 12.073655109642337 9.805659940201357
Au 14.48537682017027 6.356146778480788 13.592867962098197
Au 12.626032419649087 10.972388793731362 8.348034901692841
Au 16.82695005624796 10.093287112483468 11.784380002169845
Au 14.506633278664797 12.993777017401559 8.899542441251915
Au 12.676794369265806 8.713266898381596 9.938871091459005
Au 15.816384420366106 8.689669098773352 14.139379273290627
Au 12.339851778395845 7.51354219005999 12.408789907891665
Au 10.364723654990739 9.411819250866058 8.60705238855291
Au 11.784055875053141 13.60833214399516 8.463643634694085
Au 17.714622707944383 12.75197931639234 12.391580624590617
Au 15.909172962486675 14.458545676619993 10.76299677717145
Au 10.168453777534584 8.678088223951455 11.239251784180292
Au 12.74297942371869 12.05306465060954 10.946371916153106
Au 17.153887655096035 10.975646607416806 14.416865546560842
Au 14.993048822138743 12.228231332916215 12.5650111408228
Au 12.995547795354238 10.506436052246249 13.193025313997007
Au 13.187348430983024 8.402217456662308 15.022711874841137
Au 8.065893831458768 9.9722647350898 9.96357223693501
Au 13.376868383210192 15.391849133916608 9.86521987177008
Au 9.99632228700884 11.945072796777895 9.884221241351062
Au 14.596466182543859 10.716297232534918 15.706392430811604
Au 16.550212194149783 15.001335850682832 13.400678521162506
Au 15.756038190085166 13.160475179842129 15.276846274603226
Au 7.211372467995384 12.226762856089412 11.171485694674306
Au 14.431591941576501 16.28085765715356 12.233538080782283
Au 12.64072340279669 13.538978769395039 13.35275663849734
Au 10.860115775177658 14.205303557081908 11.352059620125663
Au 10.584632893722866 15.939149371531894 9.218198585240158
Au 14.281692447498202 15.45656571973352 14.93238894957551
Au 8.234642233904278 10.146948261027676 12.745693562143781
Au 10.593556325718074 9.048840597242378 13.916886475816696
Au 10.39949683304041 11.880173789261637 12.748856633324039
Au 11.787163109485354 10.673764924547113 15.887822142483781
Au 13.082779179564083 13.146832698647467 16.05895694455604
Au 8.415373610491903 14.341974364408724 9.816497664237458
Au 11.814580745451453 16.933155176214058 11.566181240695466
Au 12.886125087483999 17.694451295632923 14.062300537022756
Au 7.044573495935389 14.718864955330243 12.231769562412476
Au 11.543909324864856 15.500167712834692 15.142175240226
Au 7.7967666527004065 12.715191405358556 13.94010440277987
Au 9.035883141423726 16.470980476273457 11.544230455178724
Au 10.3325210382253 13.113960528719751 15.449371379287232
Au 9.029645264208906 10.753365021150515 15.378135159014906
Au 8.924787950382859 15.203781998329502 14.181416717443547
Au 10.199288504695895 17.56180756063529 13.78503299536461
