41
Energy = -108.3680775 eV
Au 12.46042318538881 6.883963731573465 13.851764814186177
Au 13.878117916660923 8.423858692035873 12.050453149185286
Au 11.026527434198053 7.96449935212846 11.757516830083823
Au 12.434359477389837 9.36140615764383 9.837714854545347
Au 9.552429699015635 9.10734070957261 9.81887773098235
Au 14.856955091909432 10.574813755327853 10.601927938842481
Au 13.58156053864008 9.142462125303394 14.90514011095264
Au 10.79042347018654 10.737759729781303 8.05646493108848
Au 15.526690838114419 10.359182020680072 13.290827663554376
Au 13.495497580413904 11.373517558277946 8.287069570035603
Au 10.678358251114531 8.987972874323493 14.275126430332806
Au 12.758990140949805 10.852413603959604 12.831091913631367
Au 11.835652804120095 12.575124320097487 6.327970710506198
Au 9.095080431488993 10.15377545989849 12.312293508687826
Au 15.6052258040671 12.927524819577133 9.322174710551177
Au 16.958644314520114 12.214553949424197 14.645041421826715
Au 16.28399318441458 12.746077552377384 11.955920139030464
Au 14.29407143709952 13.647856196272214 6.958019732830068
Au 11.23713294358337 11.869270233704638 10.772339716020365
Au 8.613936184822935 11.764946669364996 10.049194197202938
Au 9.145116460874624 11.234076641882554 14.816285647496164
Au 9.572998624898293 13.223299045024252 7.850969158475479
Au 14.36842832697124 11.829001262751216 15.627735275889746
Au 9.802623975038005 12.198919380898337 17.28781240097041
Au 13.548200324653017 13.165179723921824 11.267360487422724
Au 14.396170129041103 15.42604913786435 9.082247028493716
Au 11.950684179764888 14.409801785867446 8.450978453592196
Au 11.75129659839545 10.995278918477275 15.789678932384161
Au 12.69219512954205 12.557750237891428 17.804186450863327
Au 8.98796007153519 12.93988995366462 12.586053813947965
Au 15.133013184055356 15.43470335352577 11.680937884732655
Au 9.5629642528203 13.969155764408189 15.121272342254475
Au 11.806947985418487 13.245374432553797 13.48469126428604
Au 15.140029686572078 14.141077080439477 14.109685049345456
Au 9.849421301177127 14.380085303363282 10.344223355191659
Au 12.278436202686613 15.732642578496288 10.883290920106917
Au 10.911646366788842 14.683810210268406 17.59047097866792
Au 13.071267686553147 15.892059742432448 13.5112098310107
Au 13.134957296253106 14.428440207972839 15.889213717864697
Au 11.10135276773732 16.286423744721375 15.405356295159551
Au 10.286422983224451 15.487033413394608 12.838096036738069
