45
Energy = -119.59895994 eV
Au 15.260507830774504 16.744848650644634 11.515061650168922
Au 13.225419096375694 16.730402770272303 9.447527701108298
Au 15.978445997208322 14.31134602039122 12.442531400961519
Au 15.22669610945834 14.656587418750552 9.683422273992385
Au 12.68367613658521 17.652311145542495 12.061796887056197
Au 15.523748951626088 13.923826422706062 15.180080149299208
Au 14.061230116987176 15.957438299533145 13.951704058428884
Au 16.498109963187147 11.495915461415233 16.049576512752104
Au 16.31133979843339 11.743375142744748 13.31539926187554
Au 15.884503879143258 9.28383501735688 14.290528736307524
Au 15.960496492854984 12.135481946585427 10.638664966084947
Au 13.269267477334134 14.671949899680676 7.6887894301764375
Au 12.954985117323465 14.838356782705166 11.566250261351822
Au 13.906271637523126 12.280624169879736 16.70554798401892
Au 11.1911388474098 15.943396786576594 13.624191686836049
Au 14.715551557947192 9.89927378188329 11.772776857556316
Au 14.835959809163322 9.542132429095565 16.904557714226556
Au 14.60987644562777 12.31444737980796 8.287723320740724
Au 13.51345396022965 12.840056480052793 13.535328458021358
Au 10.657996325577166 16.64925782052568 10.540744947595915
Au 12.456522387354244 14.450682783739712 15.614297093354992
Au 12.463962288403287 10.295313855516476 18.004630105088715
Au 8.535386721273982 12.503397084389096 10.40136342771334
Au 9.295983578613631 12.561090856825658 7.819655926356525
Au 9.440430008718945 10.445189712935482 12.075222621361295
Au 10.60077917758514 10.72690582485952 9.537997866690473
Au 8.78054563810113 15.09376610405053 9.26350731696088
Au 9.180373872166978 11.148404754691 14.800224633211874
Au 7.968969450996518 12.728482823926212 13.018476771430969
Au 10.166523099055542 9.50989639472806 16.698096581655417
Au 10.68400290336602 8.868316885178501 13.984543592950187
Au 13.432712255870142 8.140555081571366 13.508616802721205
Au 13.109313418084177 12.121094579613139 10.89965090466882
Au 12.014717387504783 12.132659011005325 7.475338358621347
Au 11.217207416449922 13.81110550281645 9.70093148155763
Au 11.093404745739159 12.225516563441532 16.55592707495923
Au 9.0161093233158 15.0689861050792 12.052897736539778
Au 11.922513511818265 9.31996222655627 11.534137969711274
Au 12.428083319370899 8.082971837162484 16.161685168331434
Au 13.319033444621699 10.033510164006264 9.226314529977019
Au 10.922505979662683 12.930827085145117 12.418925389971566
Au 10.626672881746444 14.861244106534459 7.170474200979146
Au 9.760053476219106 13.92972314796994 14.780032339222117
Au 12.68120252207709 10.606502821843158 14.77528255979923
Au 14.919129739704104 7.093844958854531 15.624379386194072
