44
Energy = -116.48605243 eV
Au 11.44283128823763 12.350042582161153 7.9151026777442
Au 10.212595431067166 15.647538386301477 11.219488524321347
Au 16.204594283928348 7.607756191918688 11.080329210608172
Au 11.855056520497024 12.703226980912264 10.577242959632793
Au 11.041352825847058 13.668434431992491 15.475774601341255
Au 10.464553502974079 10.287767292212436 11.756216005853014
Au 15.39561714730995 11.880964589944968 14.384131661352473
Au 9.191755816610796 11.357115635537713 9.33123298631414
Au 16.359037387142692 10.143266646724124 9.972261501711964
Au 11.812282657847195 12.257208096292658 13.293665774730394
Au 7.641442935509845 9.929234982269094 11.4413169465125
Au 13.883983250180462 13.933864199169584 8.887799239314054
Au 8.795086004077792 14.102174424294567 9.16300832469438
Au 13.23360305822137 12.004171515617804 16.125904208893488
Au 15.821570641345152 14.912898578342041 10.768326665736154
Au 11.822868378920742 15.625750224423108 13.457109290318776
Au 13.79840657533704 14.314911456053249 14.864973728496766
Au 16.348309682502595 12.724399164616363 9.220256072024572
Au 7.5493570232845615 15.095870563622865 11.390887322574235
Au 6.680831703365669 13.605241601364455 13.456091480889109
Au 13.832750810933371 7.846404211591154 12.553894460907681
Au 9.185716640720806 14.878754998976934 13.770524555102096
Au 14.005718850130119 8.585355527966335 9.71175950995466
Au 13.335583929038528 10.548827340020763 11.641917439874764
Au 13.570769096963815 9.784979575580126 14.524081944890005
Au 15.857896755683894 9.759954362889218 12.76206042050238
Au 16.895910694231087 12.1746271425044 11.864640054929183
Au 11.330122498676703 14.96122017895401 8.7984972424934
Au 9.363983015383248 12.78162081152424 11.931143374988286
Au 11.661414169932044 9.826520198647266 8.884493149714753
Au 6.872059153018683 12.43648508800347 10.78437436708369
Au 9.11966086112042 7.667186630074875 12.203825440298157
Au 14.558372978775182 16.2271530942886 13.061496562792689
Au 6.521867181069778 10.955737212561914 13.73350380726082
Au 11.3225677940739 8.361843738930002 13.766952296038806
Au 8.736959531641556 9.492100312229892 14.224001210787291
Au 9.316171724357668 8.595195267747844 9.597798665550112
Au 14.157650503826842 13.17258631516418 12.083551491937644
Au 16.422273869944156 14.278387303219077 13.54413833237247
Au 14.076011541784704 11.168745816150302 8.643709904753296
Au 12.991307768560272 15.65503473254687 10.900326047822809
Au 11.622698356477523 7.7784903710337785 10.936548541163841
Au 10.951507039756532 10.627562605115887 15.423856821727316
Au 8.726148350159747 12.27364885097652 14.862044404457869
