49
Energy = -130.15504058 eV
Au 8.517360809817841 13.908844549904446 14.040483634453878
Au 11.529758623177724 7.881407231759618 14.050158856897697
Au 10.662337105141964 10.535218467630212 13.313933007906455
Au 9.600982739515766 9.3485825470921 15.557067318718085
Au 10.382042298594941 16.01182120469367 12.980841547498807
Au 9.97920148958267 9.756813114367286 10.610787087200734
Au 10.761828210235443 7.0283957666963275 11.34251668723317
Au 8.165312329615952 7.742460210240242 10.319241090045663
Au 7.9263268878432385 11.077659368837129 14.044904093858735
Au 8.805296307262267 8.418696569033143 12.985988477905407
Au 7.173388851290699 10.233574157398856 11.35614075670136
Au 9.160890910214935 12.299636318800063 11.690681402259356
Au 10.934610220342664 14.316760044029298 10.627175084465126
Au 6.5496873262816475 12.837367383132563 12.256409286347333
Au 7.5213329524350945 12.661875902782164 9.467949093496708
Au 10.472046686847232 7.947539541680093 8.59659511395967
Au 8.113553475330326 10.066524080750183 8.621884233987409
Au 9.136334019040698 14.783919701417165 8.610548170684803
Au 10.087070501571489 16.893807402070337 10.331137227386675
Au 8.165251329903263 14.978467202492974 11.340256383559556
Au 12.081351990603356 15.758446202895044 8.585721710524323
Au 10.156073658014222 12.09025368721034 8.563147711226048
Au 11.765050874613118 11.762962840492593 10.908049346091223
Au 12.280612172988532 10.187342714166734 8.56253213702894
Au 11.244990221608278 13.331862801334486 13.314977880022905
Au 10.12696591080643 12.111082631335435 15.764163183902058
Au 10.738461262262513 14.86061780674226 15.546470841238715
Au 12.760066155061322 16.501154803562752 11.331693067547976
Au 15.704370616788195 12.608815671284544 8.620965947633554
Au 14.629350947885229 15.03387036751784 9.47314422020605
Au 13.541738322487697 13.743397564018018 11.699932344377139
Au 15.262282966294999 13.504160689795828 14.046930682026343
Au 16.36078500153813 13.270770143433964 11.350209990194784
Au 12.882600150380496 13.020357339169632 15.736931752810456
Au 13.099743061734973 15.41860074428835 14.044615748173458
Au 16.132848427002106 10.857073896488867 12.976835382096432
Au 15.31881364719748 15.735247905130121 12.256006963347861
Au 13.386536165814496 11.427947354530636 13.309815422743009
Au 15.044221643878432 9.407500239901424 8.626026992242558
Au 14.3831479922666 11.219726032336304 10.590087845915296
Au 14.94955209200586 11.100816039478156 15.55722308162403
Au 15.373508348548402 8.55897196084108 11.356160289097865
Au 17.031104755205632 10.677726694853613 10.296489083490107
Au 12.596069088858917 9.239551232801771 11.6979956429934
Au 14.2683804902072 8.776605386045773 14.043641155010624
Au 13.091608716116983 7.616242187516845 9.476164647162792
Au 13.419251237013528 6.703137133517629 12.251472395272183
Au 12.859609439726922 12.995678345698488 8.559500292230464
Au 12.292589577113741 10.17700682149313 15.734693689202285
