41
Energy = -107.56294203 eV
Au 11.850347479026825 16.963208394369268 12.69590653309676
Au 9.275484428263422 14.7971046166966 12.89324236989018
Au 13.789182851060158 16.43764419913128 14.558853494725359
Au 11.307810969295874 15.132057945505103 14.794222175578788
Au 13.886253596442582 14.247473573802417 16.394084869778325
Au 9.941316111810075 16.48988482931196 10.792358791476
Au 8.214062432818602 12.303922813170779 12.190716426759991
Au 10.617869362451945 11.813581440320222 10.72876687152465
Au 10.7090840004686 12.487209696879571 13.57861778761249
Au 14.34370428209386 16.196346736338924 11.741525197871054
Au 11.671005110761527 12.73249473459125 16.146040177130153
Au 9.080212059381507 10.309555990285386 14.039030321414554
Au 16.041002591547784 15.888761853328651 16.232282472600517
Au 9.00974938068487 14.07410381088123 10.054988973972712
Au 11.806494190378327 14.34075660460189 11.558299659893533
Au 16.355232810484047 16.160676286628256 13.55975169530022
Au 13.4166513610083 13.58036738104752 13.657968394811952
Au 8.2404429389299 11.568740815556357 9.30855142330891
Au 11.733361266142168 10.19526969744932 15.262804450747913
Au 12.465129156635456 16.412958974357 9.77327819341624
Au 8.65122879072034 9.622918825007226 11.337567784898285
Au 11.568674575298498 13.999028239087538 8.67773935965208
Au 13.21914947823421 11.905827661285176 11.528019604413704
Au 14.24066836131109 14.243227479626853 9.684892755818828
Au 9.352510762311292 7.728947690371445 13.218841981586513
Au 16.07719051102993 13.517106524658894 14.690496348119488
Au 16.06353918184378 14.00981994481111 11.875805366455761
Au 11.473452336524753 9.836435278910471 12.467170272469737
Au 14.221900380143161 11.5174310682837 15.435587787039324
Au 11.92834554244927 7.634340725905141 14.309932936538953
Au 10.79106904978216 11.45102061276597 7.959446919973149
Au 9.493525457393785 9.167439042460735 8.724781399137957
Au 13.419302458544506 11.755908889347383 8.685432880584257
Au 12.16089784395373 9.438707989877814 9.628328130310395
Au 10.259559365924536 7.39535431015115 10.591437721443356
Au 15.75906202295875 11.926069626799991 10.163458824477392
Au 14.627118862436602 9.574448063378453 10.992535257820457
Au 11.10500460542141 5.64664175796626 12.525411069341368
Au 15.680898770579851 11.400866656502636 12.955367866740982
Au 12.939809281999366 7.5579563791659465 11.663460755429888
Au 14.046813562702212 9.324474764269556 13.765853523234307
