48
Energy = -128.30576608 eV
Au 16.283557441227757 9.524001635184568 8.334517870009964
Au 17.50925745111371 11.09499665997126 10.287624872597354
Au 16.096433911107617 12.668021923381728 8.139437153738292
Au 16.59024666106061 13.604937772626853 10.80280059729215
Au 16.025678129191835 8.792288058711247 10.980115464331694
Au 14.026067315887596 10.340568241714713 7.0946232625600585
Au 15.531844778629004 9.065079129137477 13.616857720914076
Au 16.459745744841534 11.591238048465616 12.806094590436906
Au 13.735274227786869 8.459267222120541 9.212025441790622
Au 14.683706170176958 11.183823408758979 9.919153716224953
Au 15.232015555225534 15.692105259888073 11.920712657101877
Au 15.247796965795354 13.803909554159356 14.001819103284548
Au 14.499180134683206 14.823035026482167 9.268858991075646
Au 13.30754199719238 12.868623300811723 7.734705418279677
Au 14.638715567996332 11.330676678437277 15.04266366717736
Au 13.56660282617191 7.858572153455729 11.90582252743107
Au 11.197838209643662 8.634467218825591 10.516354129023899
Au 12.939184804298357 9.04131020238094 14.585581840692527
Au 11.539625775350329 9.835108663346501 8.078843415376536
Au 13.57015900144699 10.678060816248824 12.356375891048485
Au 13.764262643690783 13.343992678003925 11.503839424408568
Au 13.186304356964298 15.705982797659386 13.899080047991166
Au 12.590667704901088 16.114422685586774 11.180799687564317
Au 12.000740113130124 11.623869232083015 10.207414379247865
Au 11.088340111121571 7.6321549815699035 13.022893406952146
Au 11.636307142101737 14.69510617785399 9.005407378120221
Au 10.53406226823098 12.386807200863178 7.943023349084824
Au 12.153610688083875 11.06141852565988 16.304890222987567
Au 13.403244505885036 13.844549151716796 16.24223284750609
Au 12.420413998814833 12.835122717452705 13.96052310554108
Au 10.53492897384093 16.32619405425128 13.151052157645713
Au 9.347293999531482 10.687106785683294 9.921725544681223
Au 11.109122782800748 15.466822302534034 15.705132948674098
Au 10.723531397331998 11.12396491200444 12.721410212888589
Au 9.810632932705682 16.160579882590135 10.453129145341778
Au 8.8641854522298 9.258515201275134 12.349665719564758
Au 10.932910503654693 13.812677237631366 11.776302169800896
Au 8.897050836002684 13.522321968612456 9.831566613277735
Au 9.4806343351872 10.963342168444026 17.001959594798052
Au 10.208510811531998 9.328016551610416 14.97116706520004
Au 10.891732800451738 13.310873009477726 17.319356209524525
Au 8.469286545476189 15.644235428861139 14.888918801260298
Au 8.103933830159948 14.87604289957907 12.176611584959678
Au 9.720583686578093 13.242518323716256 14.221374499247794
Au 7.843004110923941 11.954541127036656 11.900693466014637
Au 8.00160676524845 10.920417819851046 14.550530997896544
Au 8.195436752491222 13.315912517682575 16.522433861783856
Au 6.832674555946868 13.377887960445605 14.087364501492765
