47
Energy = -125.90639592 eV
Au 12.788760234078698 9.572288144924148 7.895593993851914
Au 11.947122699209581 11.944453989544389 6.85426095464399
Au 14.530689900199382 9.407163822313152 10.00546089191458
Au 11.207285824797598 14.51548447749621 6.068209753140833
Au 9.732204095773382 13.269978750754273 7.988248469480784
Au 11.883591287619891 8.518321165138678 10.317538204438174
Au 16.397544360667265 9.237452661532489 12.023049732289403
Au 12.928782002283207 14.229048634918566 8.186599337360818
Au 14.206843313957036 11.822187793721325 8.644796957073083
Au 10.56247555256072 10.760539393400897 9.002803042360112
Au 8.53494666047491 12.221281292800008 10.189212356791936
Au 9.563917022578268 9.833518055584797 11.419822322503892
Au 8.677867916365171 15.077367164918305 9.831366486087001
Au 13.972932068109193 7.839122391392106 12.206613620057134
Au 10.797310300669485 16.048072060896914 8.30774473921671
Au 14.77010344630147 14.071097881409662 10.197909775677012
Au 16.045742503568885 11.673153022327543 10.687574811208627
Au 9.38911635693914 9.977607603842392 14.196520282894072
Au 12.186487120306472 10.923620011310417 11.609502667203358
Au 7.6234238616851036 11.443025821797608 12.683740257625342
Au 11.333879996054613 8.280712777244478 13.017594611348395
Au 11.256445226656735 13.390734887746351 10.416035906201596
Au 6.964715334222042 13.971903842506334 11.6471574153685
Au 14.494887506242305 11.020550032490206 13.13761700146731
Au 11.168145767170534 8.65245295660151 15.811429236812364
Au 12.78152232883276 15.940537374576039 10.37507998949784
Au 7.857972863690052 13.76184565095089 14.272404333996512
Au 13.21137020532702 7.19390963971289 14.764826181732179
Au 12.85925734870089 13.334163790665295 12.69766265056586
Au 9.08465168267879 15.578643659069229 12.556541580323596
Au 10.135549890571548 12.694807720343965 12.853822940352547
Au 15.635069504439839 8.417184850927766 14.50092057298245
Au 10.36722822130437 17.159987677405 10.761941574960174
Au 17.338868435530667 11.574570130520115 13.221401920398199
Au 11.631287230400154 10.983411887662792 17.19937427778747
Au 12.089529139236951 11.111015367891298 14.42991217871552
Au 11.80341669979174 16.127335045071018 12.943827056579323
Au 16.757043739526697 13.995997435157525 12.070607073799712
Au 13.806716703066998 9.506219847679445 16.279861375971148
Au 16.070926189909226 10.911075513777822 15.556002746607213
Au 9.59691403128616 12.261462637051594 15.74195710350337
Au 10.370179931339718 14.877694923841918 14.935970248576943
Au 14.530807380599002 15.5220422711096 12.654400002569828
Au 15.584555055856926 13.522709386223585 14.508045454167037
Au 11.618137906319877 13.72640412766867 17.059204601654006
Au 13.200372560223105 14.838742488784264 15.079982159404977
Au 13.93756355375725 12.406731334157165 16.40945391569538
