40
Energy = -105.55604286 eV
Au 15.080704560808929 11.157610882163652 11.134038574789177
Au 14.54939797055699 9.010505297982332 9.559667900124321
Au 14.044545467736658 11.557374853317699 8.491678907525108
Au 14.493489004502859 13.520746068185634 12.35885159030721
Au 13.787187972687446 6.885294557095963 7.8657375739510185
Au 14.299341309585396 11.220067813129836 13.820680956168868
Au 13.906948515611342 8.877140823038253 12.2927993088167
Au 12.521755580432188 12.199730090318914 10.68654840649657
Au 11.521296975703166 11.78177689268653 7.110037669005028
Au 11.198930793114592 10.081401848174739 12.291533276548993
Au 12.668465381709897 15.10205069024414 11.04277418214128
Au 13.001655478192083 6.934133446616112 10.549336161762191
Au 12.576501280149328 11.935556556949958 15.925388511997536
Au 12.45121639825515 9.425726738693257 14.713983710169586
Au 11.803640287746243 12.607453820306349 13.305531587303781
Au 12.672455561934635 9.348969149393328 7.474404107505917
Au 12.89592587539867 15.263137265363119 13.783460721110924
Au 9.826248854357269 9.397742669382344 7.184566494104339
Au 12.573615616170697 13.962317457991942 8.513658330160604
Au 11.130055732610305 7.253942983149144 8.396969498768515
Au 11.624687036035692 7.370330226148648 12.904779609573788
Au 8.808893388818456 11.828176193524547 6.5546760513523346
Au 8.79766181936601 7.999187673183217 9.481209228732192
Au 10.379917487075334 6.072512962092116 10.76947506136782
Au 10.144174550107374 14.171269425180615 7.114381309232834
Au 8.820556219181281 7.739898622720077 12.292087729204242
Au 10.857773601138302 10.22629318745982 9.588725455492252
Au 9.849013591231433 12.295909237724537 11.178856373733762
Au 10.26688202995423 14.940475886912695 9.74741657191952
Au 10.354736718229907 15.038716935725015 12.698450203650648
Au 10.762617256896679 14.082646305753473 15.381130439779797
Au 9.851717761992704 8.636864380633604 14.610756323529015
Au 9.99063946917933 11.304366444231027 15.226781986385475
Au 6.928309440904485 9.230903727272432 11.063957876518053
Au 8.160782101458475 13.254769370290047 8.85984892600979
Au 7.73900686699756 10.509189291387473 8.758157661339139
Au 8.596700914580499 13.072241377255429 13.653554583384544
Au 8.120156377120166 10.368136367847793 13.306702097644843
Au 8.04016034886643 14.51895524562735 11.330267437756767
Au 7.106716672076814 11.929378504689165 11.160751660576723
