44
Energy = -117.08921241 eV
Au 12.07675332 14.07450871307427 12.07675332
Au 12.07675332 17.898802058986075 12.07675332
Au 14.223205729893868 14.223205729893868 14.223205729893868
Au 12.07675332 16.082363652960698 14.164816958977093
Au 12.07675332 12.07675332 14.07450871307427
Au 12.07675332 10.078997926925732 12.07675332
Au 12.07675332 12.07675332 10.078997926925732
Au 14.07450871307427 12.07675332 12.07675332
Au 10.078997926925732 12.07675332 12.07675332
Au 12.07675332 12.07675332 17.898802058986075
Au 12.07675332 6.254704581013927 12.07675332
Au 12.07675332 12.07675332 6.254704581013927
Au 17.898802058986075 12.07675332 12.07675332
Au 6.254704581013927 12.07675332 12.07675332
Au 14.223205729893868 9.930300910106128 14.223205729893868
Au 14.223205729893868 9.930300910106128 9.930300910106128
Au 14.223205729893868 14.223205729893868 9.930300910106128
Au 9.930300910106128 14.223205729893868 9.930300910106128
Au 9.930300910106128 14.223205729893868 14.223205729893868
Au 9.930300910106128 9.930300910106128 14.223205729893868
Au 9.930300910106128 9.930300910106128 9.930300910106128
Au 12.07675332 9.988689681022912 16.082363652960698
Au 12.07675332 8.071142987039304 9.988689681022912
Au 12.07675332 14.164816958977093 8.071142987039304
Au 14.164816958977093 12.07675332 16.082363652960698
Au 16.082363652960698 12.07675332 9.988689681022912
Au 9.988689681022912 12.07675332 8.071142987039304
Au 8.071142987039304 12.07675332 14.164816958977093
Au 14.164816958977093 8.071142987039304 12.07675332
Au 16.082363652960698 14.164816958977093 12.07675332
Au 9.988689681022912 16.082363652960698 12.07675332
Au 8.071142987039304 9.988689681022912 12.07675332
Au 14.164816958977093 12.07675332 8.071142987039304
Au 16.082363652960698 12.07675332 14.164816958977093
Au 9.988689681022912 12.07675332 16.082363652960698
Au 8.071142987039304 12.07675332 9.988689681022912
Au 14.164816958977093 16.082363652960698 12.07675332
Au 16.082363652960698 9.988689681022912 12.07675332
Au 9.988689681022912 8.071142987039304 12.07675332
Au 8.071142987039304 14.164816958977093 12.07675332
Au 12.07675332 14.164816958977093 16.082363652960698
Au 12.07675332 16.082363652960698 9.988689681022912
Au 12.07675332 9.988689681022912 8.071142987039304
Au 12.07675332 8.071142987039304 14.164816958977093
