45
Energy = -119.92886216 eV
Au 10.00719557007075 7.98535867322313 12.139890681414064
Au 10.796082829960994 8.764197901538461 9.521055054790148
Au 10.796323648503906 8.274591795407153 14.788251005615777
Au 12.649597943141293 7.679528355060008 11.271892750560136
Au 8.558006228593694 9.899852888465633 10.729160119895797
Au 11.390868060803086 10.987198655030127 7.882229137365321
Au 13.359663226782327 9.826651618176147 9.51977931154468
Au 9.546402272726178 12.365001620114239 6.4017959144293695
Au 9.037261559659342 10.230668847133554 13.486662324909728
Au 8.963748671646103 12.147753584862032 9.037985728059184
Au 11.102079788399655 11.330322034930637 10.681157201044183
Au 8.530165998531839 12.442718194440921 11.808815409542387
Au 12.939709683215522 9.35392330265032 16.185386832999157
Au 13.798424345468483 12.327859891864684 8.240371423006073
Au 12.451390031274812 13.688668951485441 10.334524399768114
Au 14.837138299514162 9.24516666498428 11.874573038805153
Au 12.652021920004824 11.822074771649849 14.75062463160273
Au 8.907328625580295 12.774564345026945 14.540080014663506
Au 11.964003017098433 9.954281175178862 12.920342040835273
Au 9.60628984104615 14.520005230885573 10.307775719592849
Au 11.190382171593413 13.939803501117195 7.821531490688898
Au 9.565754231137824 17.16890884950703 11.058660952465704
Au 13.51294527651527 7.80894157391122 13.930333355904335
Au 15.902710842597529 13.957106432946992 9.239683932295417
Au 13.745089649467602 11.92515148972366 12.110513517832562
Au 11.207749291092247 13.112676267395779 12.779398189131266
Au 15.647070650862585 11.208913528066736 10.048588282662308
Au 11.555742430525918 16.335975584599332 9.321703749490878
Au 10.356902813043028 13.426797797897375 16.892253083708326
Au 14.257295833853018 15.701591516657265 10.896261784332902
Au 8.761810672181184 15.302940129254432 15.70813673766149
Au 10.26298584780653 10.737554739661176 15.930927598932897
Au 15.290145347108057 9.861446921819086 14.594609892371297
Au 17.928173201730313 12.671990596542035 10.59317881583235
Au 9.06496197132696 15.123695140845628 12.963433790095289
Au 13.699161566131114 15.104665267064972 8.170703587807308
Au 12.201769106883946 11.625508759029808 17.64751853627061
Au 11.374774854651921 15.065093955254877 14.844178112798684
Au 11.754908586042506 15.965788700419587 12.166777553193226
Au 15.918026615668321 13.823355876568376 12.070744471767688
Au 13.78436734515042 14.72242767877929 13.554548886122344
Au 16.7386606907737 11.166310829500127 12.660901711114693
Au 15.420788586797368 12.713603512781457 14.586623756871582
Au 14.828604005745664 11.367499010487656 16.915237673841602
Au 13.451133497712902 13.899108929844958 16.30080489255472
