45
Energy = -119.54979281 eV
Au 12.188469007837066 15.734618112115369 10.098990518726561
Au 14.748537718028052 15.811509051959757 10.970817963079456
Au 14.123632370040834 13.700688452527148 9.28447682824125
Au 10.229569196445048 16.748591269400624 11.838313643868604
Au 12.88410153577223 16.454377290037723 12.895493089303141
Au 9.494103832804257 15.235686685171984 9.593587827719627
Au 11.474394855866446 13.570078806403643 8.48109736782321
Au 8.891439032019541 13.465212922678777 7.625368937894866
Au 16.301613578139147 13.619251212614953 11.186703942589029
Au 15.043299203318497 11.25134563600745 10.282452988317928
Au 10.519205891901636 15.944236116950746 14.507759734723262
Au 12.51397386268903 12.284142582665378 11.049226857866683
Au 12.82599767621211 11.160811534081255 8.569676322457882
Au 15.246903548834117 14.9616349860921 13.503677550860655
Au 11.257820460545789 14.23477596676373 12.463998813342828
Au 8.007711012703805 15.157998878224014 11.890520102594886
Au 9.934321226128864 11.033379232666713 8.455626680402489
Au 9.738066972234291 12.417220443067327 11.108802146648642
Au 7.252357167084473 13.397165378611703 9.9265282237761
Au 12.909743993187854 14.682057336256662 15.06943210663057
Au 7.1253936165301175 11.400900222096949 7.964953413826381
Au 17.55712250790725 11.254244201792382 11.452618415045855
Au 11.554470990052746 8.744011534078204 8.516473867221771
Au 18.32511213845736 8.662262964711353 11.646425536260555
Au 16.799397010120757 12.639214661397773 13.731053497053528
Au 15.240269996381073 13.487653326456751 15.81196281550278
Au 7.66882648377224 10.650651688066908 10.514174075482163
Au 15.645709367280174 8.954926926070284 11.78851727069256
Au 7.233545299440843 12.595492632596311 12.631713432772644
Au 10.142215634859605 9.371212225415801 10.755499259516103
Au 11.276577908770339 11.68212063319584 13.40173985866281
Au 12.904508473826812 11.938692608495336 15.794494537642167
Au 13.934116037594258 10.815931341823207 13.000240978885847
Au 8.171101390634439 14.553258260765984 14.521638236351345
Au 12.959411333644116 9.228975144253486 10.859374299035942
Au 10.52700243074159 13.375840143130675 15.678592069344552
Au 17.53896367659006 9.963758931671858 13.937197965861925
Au 15.422249080562077 10.782148417874058 15.435952065572904
Au 13.476602135470088 7.479468996956485 12.971578866619243
Au 13.046081400618167 9.216316078520437 15.173079098371721
Au 8.314536359593358 11.865013664592382 15.063756188683273
Au 8.757852899942383 10.169059252698819 13.00092465361974
Au 10.497928702014516 10.316750356761156 15.58429439289662
Au 11.085793227264649 8.711706867636975 13.229548852241622
Au 15.582032820057542 8.14915070004399 14.534683918402076
