48
Energy = -127.66850613 eV
Au 13.656811191037566 12.1416296448572 16.87135074683269
Au 14.053373467206832 9.87647397566344 15.418321684627749
Au 11.44634777672593 10.561313362281254 16.18650430547158
Au 14.392806456938311 7.7526640768577675 13.65077571875299
Au 11.165597848540472 13.305822539600602 16.62553448989817
Au 11.805998047435256 8.240333280913633 14.511659240961563
Au 9.310831158097242 9.054999564631244 15.27951192223872
Au 14.11322854574284 14.497437725485733 15.62909493731783
Au 15.936881474369684 10.04125441657522 13.212660586367779
Au 12.563291207475297 12.648320843401182 14.30057267557162
Au 8.929803562706091 11.750737262544057 15.635354073774401
Au 17.09893374241893 12.451708385461217 12.756358790015069
Au 13.144478718100247 10.310103014088945 12.788276815824021
Au 8.92084793522973 14.47239353987104 15.61402887952102
Au 15.937440723842755 14.791754644523683 13.44924027752622
Au 10.537448821966603 10.985776280861158 13.388286798443556
Au 12.248845418158105 7.446157099206124 11.857147968449347
Au 11.558027243545514 15.47454817748533 14.922621449958912
Au 9.637408486551328 8.18828795527071 12.704491141221833
Au 14.33958140167057 12.880306973972273 12.24449101559425
Au 14.691216546345654 8.569083909256118 11.038261771256137
Au 13.981470880306903 16.664005783433794 13.954660078472163
Au 9.483619740855117 15.107417733330168 13.09847703581919
Au 10.381600232947049 11.178373947986659 10.693639961722884
Au 16.286879511626406 13.889859683618367 10.510790018884142
Au 7.5665601133150595 13.08798537629376 13.55264635235236
Au 11.567811973581092 13.45832151297213 11.70561409677017
Au 16.08391662975461 11.06348761485471 10.605330326379804
Au 7.825058321608975 10.302152655039437 13.30892472700423
Au 11.947128788724838 16.262147527607073 12.265744091525782
Au 14.854541918367607 9.714575256174879 8.5523091829717
Au 10.112000534994545 7.543568265349624 10.096062851374288
Au 9.882613625124456 15.893638654898309 10.52120643647232
Au 12.488071156464711 8.554164853176191 9.25988442447625
Au 12.37340279556919 15.42660465413266 9.582297460289002
Au 8.403186797198082 13.664145276503042 10.94900625943632
Au 13.066427465041418 11.414301655545405 10.235910472898045
Au 14.53034273598938 15.903613912411501 11.28542898133162
Au 14.80724512536284 15.119704533521197 8.544881389888804
Au 6.663670521625697 11.64259653693502 11.227677416088808
Au 10.193906628862749 13.82419344830713 8.812747512275863
Au 14.98976338980513 12.427398438519223 8.382616738663462
Au 8.187603392399282 9.433068182560392 10.622764214040329
Au 10.095442375930112 9.65875877672639 8.326450615903466
Au 12.56233498263563 10.834262220891341 7.549870644121212
Au 12.6116055007105 13.62601452618581 7.431415489714866
Au 8.224098067458893 11.722323507216645 8.863880028386735
Au 10.207476666455182 12.009188439821585 6.842197549930951
