40
Energy = -105.88102955 eV
Au 15.742482466584455 11.080198362543443 8.777749672998945
Au 14.550870653730769 8.768860979826448 9.698409137021335
Au 15.906592815419112 13.071631789812454 10.664901375294377
Au 15.8093256359353 10.505565966418745 11.562621416356889
Au 15.146235619259745 7.957125984869408 12.48447167260673
Au 13.219794140776466 6.6753699859754105 10.955268663106573
Au 13.94965515399902 13.271049124033947 8.609864447611724
Au 14.94393506477283 10.183815422423152 14.15382058125684
Au 13.066541409858756 10.633132545768039 8.1877554179597
Au 14.967821649276056 12.8010311675497 13.278917640827357
Au 11.91053941170029 8.171113890827842 9.071648880829642
Au 12.958801584753258 9.573876691537986 11.993980805975227
Au 13.136555756037279 12.182691733182816 11.057536929830816
Au 13.998142521310436 14.834095100393995 11.474746594991164
Au 13.231427754082066 12.015950762616656 15.330451438396516
Au 12.582234879228658 7.225757227161389 13.588476508581762
Au 10.637293512496106 7.624233257576877 11.650777225012064
Au 12.012958107801483 14.943331794236864 9.504256853002369
Au 10.680078123818637 10.830603079735802 16.00627535303095
Au 11.421504556480842 11.54920237459776 13.17744622691288
Au 12.776689699301643 9.193855391022861 15.47286640705404
Au 12.941289840929933 14.513051269768614 14.068791156495784
Au 11.131047207022247 12.666174051630035 8.250887572396454
Au 10.694373282926648 13.41166320777235 15.2132220260812
Au 10.909138342798219 10.61880577431992 10.46532732103125
Au 10.389553398541755 10.085961100346596 7.667234931363466
Au 10.312142853570638 8.927559606348387 14.061751614598178
Au 9.145754679914928 8.366659994182397 9.516812599649041
Au 9.645376138852411 16.060212673197352 10.173213434994654
Au 10.5073124605111 13.354509988856133 11.319502425247785
Au 11.600937715402873 16.001873476734414 12.120075694316755
Au 8.786764898387448 11.486165735219773 14.057249226895657
Au 8.705277594296186 13.680352744887358 9.172934455547038
Au 8.619995920308623 9.677352861330863 11.963538072767216
Au 10.582689081051145 16.066793155025326 14.658574225193464
Au 7.772298007626154 12.38350775138127 11.633102503470463
Au 8.342013523570623 10.993781305886223 9.345591225341419
Au 8.956471609679085 16.944621818482933 12.639893032705205
Au 8.724748899668674 14.254187474863155 13.46785684152018
Au 7.270627702672599 15.101567052010033 11.189492066080948
