41
Energy = -108.19436384 eV
Au 16.868600167070426 11.955065153646908 12.512069224966547
Au 14.959551457152017 13.407039552340784 13.885496249054924
Au 14.438003238394263 12.011705493081891 16.2693208873796
Au 16.755235097788216 11.892809378469012 9.804031787877529
Au 15.15396696725675 10.441916211789067 14.073559742998393
Au 15.022974763080779 13.664590130475025 11.08856252984662
Au 12.459936861702664 13.608959646269579 15.034342591518978
Au 12.908815660811673 14.747473669214651 12.514724394660055
Au 11.889918404803057 11.908614643447276 17.194722115602875
Au 15.264207755781845 9.992912946024488 11.313824599816368
Au 13.132056381396168 11.720482879562628 12.528722956898644
Au 12.689931741112524 9.999422803474346 15.274028602368693
Au 14.692855865443777 13.13597806514832 8.321085708921375
Au 12.825532666121381 14.742328112966508 9.658730127450564
Au 9.792847261943974 13.202966841617187 16.00132316523205
Au 13.257019957219605 8.737620837181087 12.881497784832812
Au 14.842927068129585 10.314385429077793 8.577201723169003
Au 10.344485970572702 14.7710209942563 13.679414852170988
Au 10.733799820417499 15.82138178703172 11.117056686567691
Au 12.718458668518847 11.781169491588376 9.795315943060183
Au 10.621243465040097 11.661428885921277 13.73403104246635
Au 7.701807021792894 14.29758659472559 14.503507627869965
Au 10.742709965493546 12.985915531307418 11.327243262369313
Au 10.567154809295017 8.770919203984361 13.852520366085242
Au 9.927969474808455 10.275391108267955 16.111698971531577
Au 13.324633817647534 8.481597318275252 10.077841100772037
Au 12.736771548962702 11.641425033931819 7.042189451128592
Au 11.091328437732495 10.158124985482132 11.303785899750995
Au 8.155482610647718 15.59144854423007 12.118884593900264
Au 12.827333225426257 8.877526891133389 7.30920822068206
Au 10.48821352910486 15.619219680105566 8.370129261466628
Au 11.198843539934762 7.367947402674703 11.550926188360707
Au 10.496549077123369 12.893329908991161 8.194310571390583
Au 8.405254945552576 10.042719313765822 12.340980529325499
Au 7.94170081269085 11.523574561995774 14.594920511889901
Au 7.842952727004893 12.803812837950431 12.09499124603819
Au 10.535730833446106 10.157953005726238 8.220403443717315
Au 8.591553890062047 14.188562178946016 9.779872271889875
Au 11.065445555293197 7.422170804260356 8.784906862153267
Au 8.980481632128056 8.648412002827776 10.05869200320239
Au 8.65635120876898 11.396520606760664 9.846282940772289
