48
Energy = -127.84131268 eV
Au 15.883203980419408 9.117504071511812 12.740992477409101
Au 16.095089939351148 11.334183641966959 10.99919957354856
Au 16.124318500481994 11.669215953688749 13.78925803538324
Au 14.411300043430156 9.008538080765158 10.438256393006828
Au 13.641326298530652 7.560541152663036 12.883921777225213
Au 14.459561489117522 9.814612882098478 14.986715861650085
Au 16.166382191269026 13.850279796445339 12.171955746760407
Au 12.208718003186398 8.29489775953238 15.401571238854228
Au 14.579033999110408 11.209489360117342 8.597390039553417
Au 13.350324307764811 11.588584728449865 11.138340682177601
Au 15.017116341339701 13.705776930264369 9.692004310514648
Au 10.837534834179522 7.313962148796886 13.088955203746284
Au 11.853588638004275 7.900055326309971 10.60926301371643
Au 14.456869159899531 14.615787667121825 14.1613763343389
Au 12.854114169038207 11.163987957850718 6.312639039037817
Au 11.933522765238546 12.719614635739699 9.042026063798504
Au 12.555841604592457 9.316351043741012 8.312803758808618
Au 13.83527160151009 13.568464968315674 7.139358462225315
Au 12.124080984759676 9.821219904686304 12.952525768507199
Au 14.126523978301385 15.615310840684522 11.54101711458081
Au 9.741204810806854 7.092585572390458 15.59659089586478
Au 12.926052421430736 12.262218078899505 13.786954591163079
Au 12.351789237818537 10.910195183687415 16.38299459090973
Au 14.633165169191965 12.492699843885658 15.958029037568476
Au 9.823752804324329 9.767850114206283 16.104624082092755
Au 12.048444341915145 16.010742869694177 13.527605552163758
Au 10.83741701758495 10.525913735521128 10.465204755294062
Au 13.006497641827456 15.47455316542552 8.895505343030923
Au 8.507131729707938 8.75931573589774 13.761461716798234
Au 12.254233554139445 14.096218781760923 15.775621657139649
Au 9.935314712982738 8.474262865430445 8.459171330713916
Au 11.060241229615396 13.843171639511763 6.716080631549143
Au 11.877068668138625 13.89132248455887 11.672075339941044
Au 9.52228227126949 12.993622253663043 10.450936686471216
Au 10.115869575839474 12.459121200932339 16.207489954169414
Au 10.317129280967606 10.969101729315827 7.29032342112925
Au 10.291989209007255 11.895915032560902 13.003248552909792
Au 9.052797317643266 8.3970751929227 11.10887997850896
Au 11.675926288574907 16.818505720153546 10.865248096583931
Au 8.094057750751606 11.385051725796234 14.657773563377676
Au 8.290184058592095 10.548654297265259 9.166278862255448
Au 10.242685570153295 15.304237828304563 8.975510354054544
Au 9.868624736265776 14.463320679775546 14.355897374741394
Au 8.590407346644188 13.153883619553888 7.832024800273688
Au 9.49117695565229 15.482156923708974 11.795393927957488
Au 7.837446168272179 13.391470880926262 12.697088470000542
Au 7.722421805568337 10.713561746258994 11.940256352008852
Au 6.846965408195031 12.695926519032792 10.024799957374961
