49
Energy = -131.54307751 eV
Au 15.286531436140654 15.491039464159536 10.432737482005722
Au 16.402536713699238 13.166392181583833 11.538985828182142
Au 15.272226101867675 15.135888945406968 13.204874209719467
Au 15.891885817415769 12.620070815984624 14.365793265409355
Au 15.051458096532274 14.783029936538199 15.91218674783628
Au 14.748292516225812 12.235075603810524 16.884785192219347
Au 12.4875841815458 14.227490867574945 16.81411821004526
Au 12.331594872687976 14.258892915826479 10.521512437952394
Au 12.648492878076308 12.30211748934707 18.700519901838046
Au 15.872787470728145 10.53545467157365 12.578785497639872
Au 16.2221729138533 10.98316346871899 9.870505898691125
Au 14.959834033593625 13.250522422810196 8.909931866850501
Au 12.810293421626183 15.650621644451448 14.47389326541281
Au 13.842148226605563 12.690256973517265 12.309559809580067
Au 15.027542585963433 10.052649955987023 15.197045002260133
Au 11.390168288236381 16.846246122782716 9.938376693108998
Au 10.437519602366951 14.229434761954662 14.980110558297154
Au 12.749388257461044 12.155239528555736 14.799615203102201
Au 12.875422374789895 10.098712791370902 17.111618584551216
Au 10.71740319692759 15.930713943148296 12.69254693519356
Au 13.948870779870962 10.703916383116269 8.363098382652788
Au 13.421222426141297 15.557313830215474 8.359054994751444
Au 13.28908766699685 16.600076200238423 11.917816491971877
Au 10.663462688409183 11.90663678240374 16.72124033650547
Au 12.485784332707452 12.937777664045369 7.6114939100530625
Au 14.77189958794092 8.126319732877695 13.215667622020113
Au 13.163450783347866 7.94206779230374 15.583267521096122
Au 10.751691147475178 15.089734131968916 7.876273399785572
Au 10.872548136671096 9.591863162195938 15.15819077217085
Au 14.383926538568856 9.076826806229452 10.592581688568028
Au 12.671680358545396 10.217735636278357 12.84433297604758
Au 9.184240029260321 11.704168526342478 14.399997350952415
Au 11.087714075862774 12.781786674871464 12.612959641667926
Au 12.090247162130746 11.502971596779812 10.321144936629597
Au 8.561836471859571 14.149571029667857 12.949606988761866
Au 9.78882239057284 13.160254715278853 10.1731530137696
Au 11.275186590347953 10.302927028833878 7.932299722916371
Au 8.932973813631044 15.86412167451716 10.619849252709443
Au 9.729110871838367 12.480496718263035 7.384612701518443
Au 13.465434179803022 5.808038171045799 13.944325963186536
Au 8.105910351466148 14.660699516904442 8.265163050469726
Au 13.22496709330198 6.66704721816473 11.292679584050855
Au 11.544720600989756 7.688858525215857 13.225341826207924
Au 9.774667820938959 9.654402483556252 12.534859617222912
Au 11.566755984751936 8.68315163397353 10.403002575203312
Au 7.962651906198781 11.60270874281766 11.862554728147717
Au 6.8858121973383914 13.962549111372413 10.7909356954092
Au 9.31433313476667 10.15909906368458 9.841275864166995
Au 7.486868614567076 11.959491560721556 8.983772927749703
