47
Energy = -125.36323956 eV
Au 14.915268450323467 8.479667736887352 10.758385912218206
Au 16.220634160691542 10.542252449972022 12.179240803122266
Au 14.005808940604634 13.522550051671498 15.360992472422888
Au 16.244171575584406 12.824883559205979 13.723948007051966
Au 15.947070223491615 11.638216849581086 16.125700269349373
Au 15.842877364482751 10.82760878048553 9.490833603530643
Au 13.51189820971332 11.374879627708298 8.184169226693687
Au 15.453518759339898 13.324279725785157 8.334317004686087
Au 15.200445495142159 8.343806242399246 13.511594424633149
Au 14.384185645800528 15.24122570032029 10.043691405342628
Au 14.304849177581575 14.609797832400863 12.77518195015442
Au 14.6557553494495 9.124392845659715 16.159800077557723
Au 13.471609527172719 11.444609382496115 17.28992972330362
Au 13.548951567477443 10.8840397530843 11.236973325654207
Au 12.776623280383069 14.03116106205287 7.8190368346740815
Au 10.87192363749876 8.33345120570741 13.542159618829391
Au 10.805819584988003 11.875417389151501 8.467295913502848
Au 13.044997396960083 7.315536882107467 14.880965346936605
Au 12.218726910339939 16.046589108059226 11.677169970934345
Au 11.417454412735578 12.5064168642078 15.802328100983527
Au 11.948784262927562 14.996548553761224 14.303248991903128
Au 14.065838252297938 10.869206982241439 14.037518635823083
Au 15.999819342774357 13.187776967043488 11.051596902851486
Au 9.799822109899642 16.10977945048225 13.010702122680343
Au 11.909038394260365 9.752652351004848 15.692152105154232
Au 9.950108020411564 17.010539497562394 10.27882216402453
Au 13.032431706329609 6.952257339537019 9.508877139621909
Au 12.966947273832597 7.04398951570738 12.205798994980016
Au 12.20189492915883 16.54207346224778 8.912192457341286
Au 12.048221918442852 12.479331502032036 13.055120350664103
Au 8.580565366543247 9.233173190558098 12.378130142888992
Au 9.816798380061519 13.476459181487476 11.481731547628652
Au 7.6431818756037995 17.223703044763223 11.722608197778078
Au 9.41837302847198 13.577519702223462 14.27784728031345
Au 9.772284322293071 10.794666730971846 14.310796298033754
Au 10.216052013441745 14.54232875968653 8.737128667688953
Au 10.809483716830638 10.67699154017998 11.408252015149005
Au 10.569194036113624 7.671778217300889 10.820486907827163
Au 12.359325616347244 13.28998115471816 10.454345090601644
Au 11.91640872873069 9.356680409662289 9.023439379475436
Au 7.871968823400964 15.07171361166044 10.013413374709947
Au 7.787157577204471 11.879269157492674 12.619268374051275
Au 7.365865823692637 14.59713547195903 12.723332109426757
Au 8.179129568193716 12.439824003057916 9.428523583143845
Au 6.787138790582313 10.328861598443924 10.516600011354596
Au 9.187692068293117 9.8044980730833 9.24662836727897
Au 7.824557692610489 7.671150790697716 10.288398104535274
