40
Energy = -105.02219387 eV
Au 16.738261887238075 11.043401139455053 10.83468867932104
Au 13.124197053955331 11.58847058731846 6.834260190588467
Au 14.611184852924906 10.966611249118987 9.037592601016566
Au 6.863048165915234 13.609344437011014 13.9179524981551
Au 8.708255571061967 11.467358866231507 13.753216267869254
Au 13.091272064248844 8.79643092590299 12.072493059547334
Au 10.533753065247575 16.35226427427656 15.069169969750751
Au 14.607143070511071 14.72196348468433 15.694232013137677
Au 17.208357479216033 14.948691983987771 14.526073576650635
Au 10.605971475868634 15.623830729741558 12.347448602661252
Au 15.287861495084284 15.123300053632692 12.607691550887344
Au 10.567519505182217 7.277298640992444 8.444991465113306
Au 9.177510359186313 9.765622477211915 8.767637223573844
Au 8.32257414307917 14.239398914796762 11.59606749992871
Au 6.733891135325844 11.91827136105966 11.801527164357484
Au 16.806764164266507 12.71861400387677 12.909265528390039
Au 12.93957877084705 16.047439196955292 13.78180714070106
Au 8.4790682322682 9.801108827995856 11.543256208464232
Au 8.58882272758924 12.1549058767843 9.844976010903325
Au 15.321980029289977 8.765601217340631 10.541952660075186
Au 12.976767201385144 8.484191231587213 9.26417384554809
Au 11.469635846531954 9.518792136681192 7.19619652990374
Au 9.354516519135348 13.797294451679555 15.114951765607094
Au 15.495549302655617 9.99604770390315 13.061253848004421
Au 10.710560747626769 8.212379419887842 10.986183159655283
Au 10.60123499960123 14.05172343322553 10.089646542626603
Au 10.740907611406483 11.958918539545587 8.2392935578255
Au 8.20725349463562 7.522271822456583 9.94955392246245
Au 10.738089671928384 9.728575654189427 13.244160791801319
Au 11.975139151311401 14.19521651908013 15.80574671747916
Au 16.40731053545213 12.593193420562171 15.631158936841963
Au 12.964785091596937 14.88630237764781 11.201341543510514
Au 13.020171836435201 13.252769161660947 9.010886311620837
Au 13.127514658043447 9.894718057520905 14.549360551646066
Au 8.195966725692736 15.980849459168285 13.74627076332248
Au 15.168517902505858 13.2608592098027 10.672550320115263
Au 11.076501945224239 11.664087700588212 15.145083149750775
Au 15.558537526325267 10.064363479486257 15.793462345090488
Au 15.398483317001496 17.078344520497314 14.614325786866306
Au 13.711438041496121 12.145070826752503 15.973997073526677
