47
Energy = -124.58558742 eV
Au 12.943063120005773 7.376944333800782 8.688814776959262
Au 15.2887010115943 11.315956106737513 7.2860228710903305
Au 13.10931285418443 9.605937072212965 7.108281921030396
Au 15.056506010494367 9.322136555768482 9.137653899871639
Au 15.88724762010377 11.801266471705532 10.063717214653577
Au 14.060864920226345 7.797262058515244 11.177904821463214
Au 16.148832384444454 9.647633831795877 11.685532981949777
Au 9.183073207353804 9.429755590151302 9.784170364768343
Au 12.70011804251009 12.370832336957891 7.31894367772487
Au 11.293022126662203 7.333807042360228 11.081194819476645
Au 14.898749728083938 13.787145233817217 8.378893881138247
Au 15.336924037436834 7.840567289925281 13.626311995537316
Au 10.557065723132006 10.561726150485653 7.71732356582801
Au 12.196675736350016 9.780403786314091 9.882923583726663
Au 13.106732289558153 12.624385800057311 10.311953181802677
Au 15.35279346308368 14.326217430626592 11.043829374573361
Au 10.123127681642208 13.24987056688172 7.861838083849289
Au 12.90684027870593 6.476786575180408 13.289802214140533
Au 14.59536801872159 13.058968982773813 13.374214985183743
Au 8.69834886219586 7.672981195878016 11.87467712545074
Au 13.480116913547207 10.674571354034082 12.177015251457993
Au 15.341209019893284 10.532709420528052 14.251128513586181
Au 12.38950757884062 14.850132384804464 8.638639521368585
Au 12.932471879453088 8.923965221314084 14.601928756448181
Au 9.966594843234196 15.950821392735211 7.606530935964626
Au 10.662348526866712 9.949147605616218 12.305308580504557
Au 14.645759101084835 15.839448479029109 13.240429854380897
Au 10.434781666682932 11.97809943204443 10.330943588177789
Au 7.720931796012266 11.998496466960686 9.96548204171353
Au 7.8749842114686075 14.54092867878248 8.898502820553047
Au 10.514813390273384 7.6738610574371675 13.950786935339295
Au 12.63731669424797 15.1754166696224 11.519230645906344
Au 7.00161759148913 9.846077260910924 11.507560785605328
Au 12.92656637923571 11.658408759668015 15.074725812031907
Au 11.346074005312486 12.639938181063963 12.821330767842708
Au 10.537504610920978 10.195658847918827 15.20590574508542
Au 10.198338657234281 15.193919130367295 10.25615530213969
Au 12.531374586597453 14.62391647831543 14.528154463527061
Au 8.135497570332383 9.356976515366974 14.044292518075357
Au 7.886167388414094 14.323795599173337 11.608102110524207
Au 8.578244897412192 11.869558700380551 12.769439499418882
Au 10.242536985097667 15.396270264760794 12.940702998922331
Au 10.559021064527744 12.935823867743146 15.606798892682239
Au 8.093925577529337 11.585022010318678 15.581901876855703
Au 8.120204019564998 14.216135170017152 14.284259884260864
Au 10.214659027866936 15.67168484186286 15.668659860028797
Au 8.371702034811996 13.953949198461995 16.97239439254384
