40
Energy = -105.5434415 eV
Au 10.589108115420103 16.42760214458533 14.71103215877464
Au 9.656015185966886 16.550959708769025 12.180310047795073
Au 12.362243548400766 16.841689588846133 12.391823874854893
Au 8.948316777791787 14.155072916293582 14.549508695004734
Au 13.38273691177351 15.444277876948318 14.516272665657034
Au 11.409039058169729 14.235165399775735 16.07768240672326
Au 11.255170540312287 14.084563735458989 12.989364672817244
Au 11.125003705078695 14.965603267370305 10.316333214855401
Au 9.135128516157156 13.124679569237543 9.2540691908434
Au 8.55412108017741 14.112278135327983 11.775608755522665
Au 13.808491105090672 14.553063397926167 11.888216707079124
Au 11.295153562602279 13.94199035425839 7.787326359166542
Au 10.528349132923704 11.836530792247672 15.024951589115332
Au 13.259782056379342 12.658529104482104 14.584398236617545
Au 8.082662523869235 11.653610496601575 13.660448204227208
Au 7.291403620861103 11.82545951860695 10.92741323953164
Au 13.419634416991775 13.496597662398042 9.40773477638942
Au 9.950016425753969 11.634781333466803 7.054556447064869
Au 12.775299564365033 11.841046242753857 11.887305873154142
Au 11.57994612732292 10.890382816979415 9.596200563308187
Au 10.061373209890874 11.742738838244675 11.757546172319168
Au 9.659332494874674 9.364847039728238 14.23480024387133
Au 12.52438053184901 10.010807012153913 14.499603049262166
Au 8.141850459549877 9.39195601271846 11.773817945948453
Au 14.948429791384308 10.78192899049992 13.313359195794714
Au 8.641234943513744 10.254101922798263 9.095009707304937
Au 15.395953667704804 12.443305663430666 11.129211404667181
Au 12.730297104743547 11.607443554785124 7.188287071905665
Au 10.830430712697456 9.111478810126098 7.5837415127702235
Au 13.660847728915831 9.178511840734943 8.338482390340161
Au 11.389510382766847 9.314054495929819 11.846961121626283
Au 11.741739017358684 7.424244540230409 14.070344564904717
Au 9.439807233700707 7.147412377490789 12.564216535663842
Au 9.739356854637531 7.845580564907062 9.900389697775896
Au 15.10480357085791 11.464360846945201 8.574159982642835
Au 15.335599312823755 9.704797396834328 10.727014994503001
Au 12.081093504742983 6.986021407040251 8.679726537119679
Au 13.983584285356795 8.257493533382238 12.689284108925483
Au 14.38264005528016 7.198284760982173 10.169923278530385
Au 11.923894916573353 6.566717642786848 11.359240209024778
