46
Energy = -122.08225106 eV
Au 17.096807322387022 11.639299011256469 12.981011645631252
Au 15.808156026667904 9.339008879945023 12.28363571404322
Au 16.490757586278562 13.82154831033022 11.342227722699187
Au 15.050987740147328 10.732457174244711 14.709800813107183
Au 16.687252275958535 11.174075857638796 10.317273811818852
Au 15.168384282734127 13.4313371291764 13.747268056718257
Au 13.289250583633407 12.727230849469061 15.617222493203998
Au 14.880514774669543 14.841403436593993 9.232822842646145
Au 14.25274026511076 15.400122464824413 11.94682447238555
Au 14.330843465012247 7.3287009540776555 11.192272684635308
Au 13.544858190416637 8.336102322502336 13.715887935316626
Au 13.359175182826382 10.901768588443936 12.615626607106183
Au 14.60946219097246 9.592310439435114 9.545525485933162
Au 11.581353874005053 16.11903922162843 12.72973837813021
Au 12.14268128142459 10.208087159974788 15.24518838382066
Au 12.383058003632511 13.48750655084985 13.008180039818015
Au 11.674562619792733 15.005352031337454 15.288661694576808
Au 12.20958015213179 15.66079600936483 10.083315591165817
Au 15.105094874533384 12.135023080231642 8.323170190043145
Au 12.253917366855829 7.983238984634118 9.52556915935621
Au 10.540728406712022 12.481093089849614 15.675425315704643
Au 13.836803300230427 12.785277148308353 10.726206625412733
Au 9.872987554834397 12.149874376159417 12.928774992090753
Au 9.25486418084974 10.113321166587374 14.913921371096656
Au 12.695741560986821 10.825468196340712 7.600685375838403
Au 12.663528427059386 13.609927286002304 8.105349926603807
Au 11.741225567009971 6.891774631379042 12.060771882651682
Au 10.928430585138482 13.15208947479018 10.573483773729842
Au 12.038816220053713 10.655664897224057 10.21944332517059
Au 10.143488117596661 14.951596327770101 8.363441207848199
Au 10.84234626494658 7.790745485698251 14.528604255116822
Au 10.869031354532083 9.600519124670804 12.485639923653912
Au 9.347875180465374 14.809894715936856 13.809569952866608
Au 9.3660066256372 15.364262063751235 11.07671050486077
Au 7.821488763394517 12.663041008577222 14.841952260430613
Au 10.205840112004193 12.225301107213472 7.845891564377363
Au 10.284122584571188 9.499839583234369 8.278105611921344
Au 7.278072173184274 10.746315161616861 12.944018680811634
Au 7.452778444336563 13.562796856077497 12.14096597955293
Au 9.19332137196917 10.844483187583627 10.596818544737776
Au 9.597788543450255 7.834368738555299 10.481707390448687
Au 8.044777495809289 13.477604234992535 9.390967911632226
Au 8.474974961447055 8.150654631408768 13.01672882012785
Au 7.764893715461772 10.852840032680524 8.258752827536647
Au 6.304190655404121 11.653652258688327 10.503411953497533
Au 7.067086083694102 8.99383306891361 10.73207261009341
