46
Energy = -121.8256282 eV
Au 15.32127148900333 11.808482215590066 8.67303658380836
Au 15.06478697738058 14.612398123819066 8.484569185081654
Au 13.309685700146074 13.04265502385006 7.076340347833709
Au 14.141822370216042 10.437275726290942 6.629364377809803
Au 15.84375905861773 13.371924778855407 10.84868978388004
Au 14.253233758973561 15.798933126322792 10.827492006048764
Au 12.479418212984948 15.501513312604802 8.513120558786206
Au 16.04328146869203 10.528752539477395 10.992155124952438
Au 12.981372470129726 13.149138512402544 10.026178854343032
Au 10.696618505578815 13.28209732726867 8.013413857435342
Au 15.318269840936093 9.756795704847626 13.667251837493568
Au 11.991163517276977 10.771624561415047 8.362468513713388
Au 9.790200215017451 15.774721798539005 8.988141961703061
Au 11.491993594437321 16.26953780349595 11.129628043731811
Au 15.012320507815522 14.428034005388339 13.308576083517762
Au 13.224436395899286 16.482007577143836 13.273988941903518
Au 14.191674718682817 9.227259508290711 9.123422285892936
Au 13.815788187285987 11.706544142183613 12.287450812676381
Au 11.986086584577587 13.806548477969683 12.598095620861164
Au 15.023945836416175 8.057754484136861 11.446105011961782
Au 16.609481771089722 12.200138535160631 13.244631427711209
Au 9.975939719833208 13.467443173018756 10.653183215044361
Au 12.953176174660825 14.537714202199192 15.244664932288222
Au 10.614860073418026 15.853477213332583 13.926549381123188
Au 9.201963476304604 13.4961945375469 13.454225176660366
Au 11.36930172550923 11.122962735226496 11.115018583323067
Au 14.573062656733523 12.211952222119924 15.102881248246376
Au 9.34186604573577 11.108259829507853 9.115040831303496
Au 12.887933063412504 6.41008923020632 11.195991621316043
Au 7.2528660809002 13.445465101767642 11.464020101538436
Au 8.783044185582849 15.71277965501128 11.674767379207962
Au 11.320645355674504 11.391628065270956 13.853474357120485
Au 12.71498414990794 9.072397769848912 12.768571232219331
Au 11.660656681464483 8.58078111888317 10.099932275536334
Au 10.282781693171613 14.066232403180107 16.00328965972523
Au 13.226290288800016 9.811195391028015 15.489376233911896
Au 9.381292708749319 9.22915272886554 14.062179863362505
Au 7.670711057394238 11.17100244014927 13.052273900443952
Au 12.342178516000848 12.200073179681285 16.638910476007887
Au 9.102043407056982 9.369639840340495 11.286077103157918
Au 8.90288110544837 11.597030729683146 15.445509924943062
Au 6.959438182381878 10.943671490458405 10.42123054599407
Au 10.603944609152231 7.301888178881289 12.475198570040606
Au 11.431851805009119 7.73190576420128 15.077983730660709
Au 10.659076192295194 9.780744445670985 16.67972875454963
Au 9.943590118499161 12.131208584827144 17.93584563501387
