44
Energy = -116.6353782 eV
Au 14.575418657242375 7.864682944489402 11.871302348527504
Au 14.110931959533442 8.862425163950169 9.294200853864432
Au 12.033008673770007 7.700381880812395 10.85523358725987
Au 9.453286745586281 7.754945909271392 9.922241611472627
Au 15.066275142791152 11.426937610891697 8.651169893401002
Au 15.592321776566049 10.387449273680108 11.199043664266034
Au 9.82268697170407 7.610015252254771 12.704182820250836
Au 13.352446750131264 10.112832459745738 6.890500561250692
Au 12.454043834829697 7.96720295931088 13.619601752741978
Au 11.424332610887554 8.87671509105411 8.352100882288545
Au 14.710470102696195 9.785577345348528 13.851610593047646
Au 12.784030551974348 10.900526534813501 10.65773370799208
Au 9.065411876669799 10.373616686114035 8.955095517300952
Au 7.55390464781772 9.009062598332264 11.393967958131725
Au 15.99573088456751 13.099717520801999 10.655723616466652
Au 11.142881256985083 11.588795591378855 7.567850698719491
Au 15.6591871071457 12.282116465768775 13.189324877551378
Au 15.364900413390442 14.36704833067992 8.280556802438607
Au 10.221515665412275 10.107745418730667 11.449146409813624
Au 10.222851076158157 9.143367918361363 15.005878951360357
Au 13.524925308175138 12.87301540352827 6.8022024927578055
Au 13.17086470303384 13.408146295902423 9.650057316120757
Au 12.81755650319439 9.651597059441556 15.893192103393543
Au 12.703021408003526 13.280442767991765 12.368859415031478
Au 10.42619820323853 12.63454529037682 10.062452139737053
Au 13.731187304330884 12.200132869666788 15.172589485054456
Au 12.00870954921709 10.75652648996796 13.378650086758176
Au 11.192739076704079 15.386818885625972 10.67872359953101
Au 14.456274398270786 15.356628208660936 11.262099749677187
Au 7.692741593523713 8.601120993733632 14.148277454342299
Au 11.240233989209752 14.369696705489979 7.930629440156893
Au 14.539291652492983 14.648941068332737 14.023015204133362
Au 9.99898642192187 12.555877087286344 12.918201006129285
Au 8.276364156918701 11.145112882659411 15.106190452798593
Au 13.237737924093379 16.137821626206748 8.852374125213645
Au 7.743603870586821 11.765804010737387 10.999752827995204
Au 11.872022252843708 14.303835245419059 15.029590537653517
Au 10.939948692696488 11.760094922213705 15.842454466581136
Au 12.500649418805493 16.236260140037704 13.022873941847717
Au 6.25198235783017 10.730452809303648 13.112862248623403
Au 8.597191286019106 14.403430256821544 11.150672457407016
Au 9.13179710278247 13.799906906553371 15.39554723066057
Au 9.936510308424962 15.40906135089579 13.309670440297717
Au 7.290731477141037 13.250473432673044 13.409500335269826
