49
Energy = -131.19383733 eV
Au 14.189361158332042 6.496084655859425 11.089830727661338
Au 15.664094632939202 10.605050163367098 13.172227048939252
Au 14.185048322838817 8.251109974308436 13.237335861262054
Au 13.978652766392296 9.99648001957517 15.343585259651634
Au 15.437953294454108 9.005626048004089 10.855319228306755
Au 11.763398813922336 8.499038177504266 14.727220878175146
Au 12.038051979498414 6.535631052847694 12.828862907496553
Au 15.256702354507432 12.354895197555793 15.383726724892439
Au 14.066404741326176 14.260565828262388 17.041490424271817
Au 14.10593245073181 7.771856774476064 8.697559407985766
Au 12.712896856823745 11.930248982750545 16.783436144205805
Au 16.338375352541963 13.330538764976751 13.002728117919483
Au 16.19207270935419 11.636666002211182 10.658483532023155
Au 9.994008274211982 12.005768908986521 16.451061057306923
Au 11.781690444425598 7.8107558698794035 10.328891949735379
Au 12.566143948127612 10.168686755811928 11.681918484404205
Au 15.917403680863307 15.041399545545534 15.15113418757171
Au 13.670489805117437 12.614045317126562 12.466690268595816
Au 11.692395286473301 11.28039516197774 14.161814796032358
Au 15.132992468363716 10.263245889571834 8.352307703344186
Au 9.35177755809504 9.797366074730775 14.918172321958737
Au 10.1068005880483 8.539908206355419 12.478117409198902
Au 12.400425978239475 13.948325540511236 14.522306695587064
Au 13.34506860260613 16.390768129655402 15.448465514909303
Au 12.265592869058018 9.760292651443653 8.395111386527063
Au 11.284306359341533 14.413701626962228 17.09556095372243
Au 15.26751859037435 14.27404444667802 10.59493290969162
Au 14.312725051083381 15.518512157549834 12.975992938605824
Au 10.668006692450694 16.226471560514295 15.031008579135314
Au 13.36287063654931 12.10375345169425 9.765134339299252
Au 10.034881172592529 9.987164416745367 10.151498839977295
Au 8.504742511577117 10.803806211263124 12.458682283957945
Au 9.83641269593643 13.285879623247444 13.585679181095367
Au 7.65041342054315 12.004017659094455 14.911221146507412
Au 11.141285205277194 12.645917000782243 11.274233813622297
Au 15.747750848625175 12.904296291623323 8.194892235146714
Au 13.658029612613447 14.685018566202645 8.276772999135048
Au 8.716726874252313 14.436350161722963 15.95631654804571
Au 11.25358363446638 15.506623767995759 12.304616089619934
Au 13.234848879590018 12.052017917979168 7.024323547307159
Au 13.314643467434594 16.2131861681774 10.58459778974528
Au 10.579662264509226 11.919782155172305 8.2651407951247
Au 8.457922996721646 15.72388211963081 13.480630956405287
Au 8.542498446297548 12.326967292892276 10.175523546074006
Au 11.36633912446881 14.095526621648501 6.838377397457172
Au 7.237621740443079 13.35160446558117 12.497487953063878
Au 11.127163779813813 15.153253660675372 9.467895221277745
Au 8.750462958955113 15.037593127564719 10.857125550886654
Au 8.926365409073624 14.209446788459863 8.180479207357696
