40
Energy = -104.04635943 eV
Au 11.152234955697141 8.820575256013935 11.218127194727249
Au 13.587764214901284 9.462173717666456 8.435757853484454
Au 15.157554411203694 8.290440872521982 10.438585583540181
Au 9.51622547809494 6.941583435629531 10.070616686739774
Au 15.669190557809733 11.097981215116281 9.83446015513194
Au 8.779101181770045 7.921659159010855 12.738083532849814
Au 12.788502494947664 6.941806843639575 10.070635716457003
Au 11.152181450279498 10.954896968153268 7.02066100051909
Au 13.525385990147942 7.921877886601603 12.738059640164204
Au 11.152300428531309 6.442485750151044 12.480396574590298
Au 13.531675341809683 12.196626402629692 8.241889115637992
Au 7.146995773640962 8.289872968330672 10.43858275535383
Au 8.716667044943492 9.461810743150892 8.435745883772325
Au 6.635103552156708 11.097381872563858 9.834331297087175
Au 8.772592327132221 12.196294054874844 8.241805254816143
Au 11.152163987953514 11.03233199387234 9.647770121760212
Au 11.15229313426413 8.276693153690353 8.180209332575178
Au 8.879102732141082 10.41462035723627 11.2233129155398
Au 6.590387873611707 9.80039234483259 12.69975865276647
Au 11.152202636497655 8.790037947474906 14.182001025542268
Au 12.565992444657297 13.083015041699204 10.943706244176127
Au 9.69125974094058 13.343048932337918 13.955316662803199
Au 12.612557560319148 13.343256310875198 13.955385304460846
Au 15.095035989555702 13.781546937806043 10.014202043628911
Au 15.71395337658003 9.800808228719546 12.699907295794677
Au 15.004498922513646 12.480729650991474 12.526797007830197
Au 13.519224044947018 10.569790425854132 14.19356490342869
Au 11.151785608399226 15.262034193979789 12.39148367308851
Au 13.425221988032428 10.414885385671594 11.223377119512152
Au 8.784992565010883 10.569559862192676 14.193513959024719
Au 11.152066640237958 11.3756803579215 15.385568655324267
Au 11.152042279724736 13.63931815087118 8.278550135185439
Au 12.528028019837151 15.603769826885351 9.832944454263867
Au 11.152096026066157 11.264546928098598 12.609804169399633
Au 9.775836179900345 15.603609951831876 9.832924713774512
Au 8.308019352755206 15.126280752066394 12.195958505865063
Au 7.299447236496049 12.480356311440755 12.526671223845918
Au 7.208941901581285 13.78102781299628 10.013984044475519
Au 9.737996543806055 13.08282674429108 10.943662527704747
Au 13.99561801110468 15.12660525299838 12.19612707411658
