43
Energy = -114.32083303 eV
Au 15.19139547734568 14.664368248782614 15.953424101913942
Au 14.372053766094353 11.54912680019074 14.366124406822323
Au 13.144284488582972 16.116470955032547 14.919294731221973
Au 14.567077371647002 14.226686811948738 13.325508104534006
Au 12.758115695200544 13.431355975323317 15.649203902834719
Au 15.259828109870263 12.08243869741086 11.711247686297092
Au 15.76706286463909 9.675334910848356 12.939505688375903
Au 15.041343701458159 9.515726773783431 10.09832128812953
Au 12.025781749957066 10.791427066684442 15.799437845998026
Au 13.521490731264537 8.89358384910112 14.425840778819412
Au 16.819142364242797 7.811273627143307 11.270061672230208
Au 10.11697268859648 12.778863402242802 15.904931913283335
Au 10.649983112726481 15.09112286227589 14.515278325671849
Au 14.219047691931054 7.488632654859015 12.015125071076149
Au 12.287340228755404 15.77666030881373 12.332359470382888
Au 11.046801738295205 8.284624845779888 15.347858006286234
Au 12.907805911932941 10.31191761756249 11.97218402466845
Au 13.85004518962103 14.193538231907574 10.663765221742313
Au 7.4429962258851505 12.22173747933129 16.014161124589478
Au 14.795248284840138 12.047625044234355 9.014343373358892
Au 12.070911753496246 12.868408255768294 12.861079413966406
Au 11.84296439965873 12.127283137961706 10.094186155048915
Au 11.606661654777367 7.611817070204315 12.736741245210691
Au 11.331292143028975 15.160312346976923 9.842620331961351
Au 10.25616549628182 11.02726674232561 12.111398498679842
Au 9.086851431121515 8.668364082059494 13.374446840418896
Au 13.134763410898687 9.977830028815012 8.14691680960366
Au 9.56006894388651 15.155313713114415 11.988310912718488
Au 13.044863597377901 14.014732641609701 8.05139948497231
Au 12.38013440272443 8.197146684248125 10.063527664298869
Au 9.18862747111477 10.174753616858299 15.728711441728574
Au 13.973543601611293 11.936780234222464 6.3634248080415174
Au 10.405539581733253 9.805701484614906 8.893664454615898
Au 8.246038608839994 13.812092110965422 13.954691107134602
Au 8.610619901186794 14.854664999894586 9.436422731643846
Au 9.694705921388646 8.030737173303029 10.798420983724517
Au 7.726367497898428 11.08405204714992 13.398054421570839
Au 8.101197789582168 10.239542009187772 10.658143634100359
Au 8.008672510277501 12.932513171624176 11.33398999163466
Au 10.264964477302252 14.403249160411969 7.326404104615804
Au 11.26916632889761 11.776337197249763 7.151140558256167
Au 12.172630226887877 13.84512372605209 5.463707052691298
Au 9.120705946167833 12.224736691151962 8.865895104152235
