46
Energy = -122.28244026 eV
Au 15.428795152247133 14.606044449261848 13.41923451021565
Au 16.653165129930482 12.107793018811963 13.573893236994902
Au 13.182376925329898 15.034717940470118 15.04286723858358
Au 15.208947588995022 13.020283935883974 15.711532082128016
Au 16.048645175238462 11.615550326480449 10.952387866936313
Au 15.116200598488804 14.33569157533015 10.691695851415687
Au 14.484799608194281 13.797171131217086 7.894265688344435
Au 13.219776807888831 13.621672377503085 17.456437912184583
Au 12.788855507134516 15.350181354102498 9.430241015800512
Au 13.72408628676935 10.859796047942421 16.982449042304705
Au 10.80058305508173 15.502150353858056 13.742057496872096
Au 13.125415248697738 15.579165300394948 12.240942491681132
Au 13.761510189002394 8.895922767693305 15.100428499350876
Au 13.933084367901552 12.339188991178652 12.766327879939452
Au 15.093198095644029 11.130951715577435 8.428677978708183
Au 11.736102726505347 13.662785820065736 7.329553582402211
Au 10.694420491219892 16.2586153278198 11.036636557720302
Au 15.305530935383446 9.773115212449365 13.003698755142937
Au 10.73887313295407 14.295797336498675 16.302792150452696
Au 13.134157298633825 12.459306757465315 9.948957579861133
Au 12.302112353269955 12.264480354164206 15.016127212625083
Au 13.357964025742623 11.660506861538817 6.366509153386749
Au 11.090064441264564 11.879336832387368 17.674746433761122
Au 12.167464981942485 10.232537865171322 13.093645507192193
Au 11.197467094292266 12.87420799411523 12.572621451611196
Au 13.849794318254482 9.80472943887119 10.557416915229545
Au 12.899211204144944 9.375972158496698 7.833112413501798
Au 11.218467013111427 9.685460454018145 16.03852934867219
Au 8.520258532672356 14.158872508784867 14.734943465985449
Au 9.074565931486456 13.095550364612876 7.578202919803334
Au 9.326081060915948 11.695485667324244 15.568211536581655
Au 13.442185948328834 7.753770285865768 12.422897877577347
Au 10.640407463409403 13.602453733537978 9.923609215816862
Au 8.780639740177607 14.504874738660488 12.01507492530836
Au 11.0101467123435 10.904878568053157 10.515618760014926
Au 10.765805618140249 10.97544880932963 7.00102530437085
Au 11.35669084768292 7.620435893414158 14.260620862900485
Au 12.643329233779129 7.419919739215981 9.792813998628004
Au 8.570436437099534 15.252794586860434 9.29155263477881
Au 8.305672098013895 11.945828046317262 12.973466833816307
Au 9.408670950993791 9.556832300117865 13.770271788990682
Au 8.391887170680755 10.50305856036286 8.348582464259737
Au 10.669939188189062 8.156516205668431 11.60066533733035
Au 8.040547317298754 12.48065513163799 10.24649859454689
Au 10.415095270758806 8.761045013361642 8.806331070758219
Au 8.545368671447624 9.856063582667124 11.097047875701412
