46
Energy = -122.13554174 eV
Au 15.595712444117174 9.647511708947512 11.459094603469307
Au 13.2097363751717 11.039027966773622 10.308371530399873
Au 12.964133409446319 9.873511218126167 15.624851325037588
Au 6.498837224201654 12.110823071827761 10.588928667165018
Au 14.638053253005706 12.103222121094113 15.155978073314714
Au 15.4263521710798 9.463887744606119 14.300468557108303
Au 11.680673523487554 12.857663520659148 11.699332620264565
Au 11.368132563669214 7.737550156898208 14.234350684733103
Au 10.331930749374498 14.277790800344397 13.857006263662223
Au 16.659916704145996 11.969639559868224 10.291406974062125
Au 7.471937746907512 9.599889829353755 14.583687501527923
Au 8.910796215840913 7.909373985216709 12.911902021773379
Au 8.975766842090218 12.394602471395329 11.92463281955249
Au 11.763828047606745 12.945639756288726 8.248265409958249
Au 15.968389981889016 14.634828096980133 9.863567798586084
Au 7.838578305082847 10.253549620809103 9.014940873008893
Au 11.13077427472862 8.432175250390396 8.662564655615355
Au 8.894236469381998 12.810128491323773 8.912509324315153
Au 13.280528383031617 10.905070408596789 13.000756205589223
Au 14.555667800002716 12.718158856295693 8.439902892015763
Au 10.16109997981614 10.787369241660036 7.523975465174973
Au 10.334705913452094 10.57383082888898 10.342102795418011
Au 8.773010915164315 12.152829309677442 14.82111405118106
Au 6.423094487879907 11.71069598739065 13.32675125031344
Au 13.61064621484631 8.306623457330755 9.868016511540624
Au 14.516805039295537 13.088285353004956 11.751088358783509
Au 16.633975943349522 11.658603433319085 13.083826162525908
Au 13.12972624217801 14.27405530510114 14.061343050850118
Au 7.047247721010447 9.577952733751948 11.67757016939874
Au 14.681263923292377 15.854291964628565 12.0527713222297
Au 7.518089659465508 14.261665006180424 13.446040898389906
Au 13.201322367215013 14.860072297030369 9.712820399935088
Au 15.93765531135135 14.217880483607985 13.933055095735236
Au 11.626216228860121 12.215464734825865 15.166995426635166
Au 7.890722178126719 14.669606559252385 10.722603647751436
Au 12.884222810143196 10.39252423168544 7.632440509592451
Au 10.189691959076534 9.919253136668322 15.78646118479332
Au 11.881162720771636 15.706001529858911 12.025580612254984
Au 13.71642171828255 7.947992505875358 12.637665428912197
Au 13.84816596056076 7.32995985203224 15.337908659509095
Au 8.746419262966345 7.968077276425056 10.190647788546054
Au 15.469013570150558 10.070601650324786 8.672578683324318
Au 10.465433924393603 14.842318316766434 9.82388007316935
Au 10.512489664012477 10.337584228775782 13.042349375034306
Au 11.271163656142662 7.854222029370672 11.389491715335476
Au 8.898486426332552 7.554961982239181 15.685778555799704
