45
Energy = -118.48514534 eV
Au 13.598772078763515 12.869097521611305 10.68267234896338
Au 15.98185849140583 14.182924707908047 11.013376654094731
Au 15.138995436808932 12.588176941138558 13.187485778370812
Au 12.703243895458183 11.200699401269574 12.738329134429787
Au 9.850065838914853 11.200626026484104 12.738767229128248
Au 12.692211763006192 13.334589092367203 14.7472657068847
Au 14.043663241138157 10.828496197504519 15.135659849914648
Au 9.861219245548867 13.33461912811945 14.747299002128987
Au 13.690292197705313 15.005361856774464 12.6585177008511
Au 11.276610131514996 16.16375870518053 11.023015601962925
Au 13.695355559790878 15.540090767146534 9.863109697312279
Au 7.414920170919404 12.588484143486388 13.187442960446008
Au 12.691102953944261 8.592997278077767 14.165645722005477
Au 9.862341079596726 8.592966144496556 14.165715537482567
Au 8.509796135205905 10.828454265681422 15.13568289983889
Au 11.276686265925683 10.92862030468189 15.375216775273103
Au 8.953693311994838 12.869720108251498 10.682745609729219
Au 11.276723002564244 6.533397197046012 12.870185031860524
Au 11.276666663280064 13.696912436619465 12.28980173533258
Au 7.506730038832689 9.613592383430651 12.784734997482387
Au 8.857891380110004 15.540123246667726 9.863058978156456
Au 6.571568666428586 14.182962119551826 11.013294101038346
Au 8.86300580438205 15.005654623399245 12.65846972124725
Au 11.276420351620251 9.196512230183 8.475651969044065
Au 11.276729667828082 6.714117269168334 10.018068551436347
Au 11.276531703825762 9.017779043501639 11.608797742339512
Au 11.276552725739895 14.10321974156171 9.114950401492417
Au 8.90120974585652 7.49761152498431 8.86163088685268
Au 13.652114689510675 7.497617046788163 8.861593640978544
Au 15.046594011910907 9.613643036640976 12.7848283793838
Au 13.682809839930986 7.42457998880754 11.668790002628047
Au 13.52697940759986 9.979837424049421 10.154002805314944
Au 11.277155954541493 11.521397974127117 10.284791733480574
Au 15.885791622879212 8.656966736830958 10.199585180352932
Au 12.688903006771364 11.80976315527051 7.888557377356576
Au 16.16306987851492 11.386661559997043 10.858119139647032
Au 15.335879522803442 10.793232266756334 8.215679164045163
Au 14.970197374842934 13.480916955612663 8.370314150135275
Au 7.217296057092963 10.793328353238572 8.215543498519475
Au 9.024968812868124 9.97902649533664 10.154073208947933
Au 9.863975098615917 11.8098631368883 7.88828362709053
Au 7.583036958153773 13.481135064516526 8.370248911484927
Au 6.390328929095292 11.386648023918541 10.858087966312512
Au 6.6670010155444945 8.656739077116455 10.199565380428954
Au 8.8703777658332 7.4244168058812425 11.668681014173124
