42
Energy = -111.75488797 eV
Au 9.898800009087008 12.76743157534262 7.435084929094985
Au 9.559214798416047 10.073186059689448 7.758722358536573
Au 12.195742296586621 13.891035206744343 8.326657592664045
Au 9.593272474753336 14.460064313263528 9.598661127263732
Au 11.536813574454833 16.433577262683848 9.361814879130971
Au 12.090518586966343 11.109203224670772 8.328211502570186
Au 8.756791549930526 11.841749440490329 9.821474896905176
Au 11.35100326241833 8.58162777552914 9.251753314320222
Au 8.691571423973494 9.110158588029114 10.168961142119306
Au 14.22812750893985 12.449140823965832 9.565917015730927
Au 11.759940673666677 13.374894534887225 11.109301073398317
Au 13.948304752765265 15.167507639421048 9.955402119862457
Au 8.791362842048368 13.516246574616659 12.093735896992664
Au 10.389754507119441 15.791366526769872 11.883849979135054
Au 12.87620275340028 17.161859140913887 11.66577178088369
Au 13.785177548464619 9.756219678391451 10.058603309384047
Au 11.189247825171691 10.560251780049814 11.290689344395833
Au 8.139120789764078 10.822385371780904 12.279100484971222
Au 9.988218989134447 6.835555784943734 10.933799520579285
Au 7.883891022988291 7.88028052707819 12.504652065565788
Au 15.962147340791422 11.036884246756603 11.207884630824099
Au 10.417907931082613 8.355205411101979 13.379895996193964
Au 15.59581216151533 13.813263073957076 11.72959483282062
Au 9.910739090299199 14.68809587021439 14.408832686034273
Au 12.515712279914517 7.8139407453422765 11.688665855175675
Au 15.642419188478636 16.66794832078557 11.432219586747419
Au 11.020540570683483 12.172466118594137 13.491917280772215
Au 15.041710927366957 8.555937110715762 12.291166030040305
Au 13.53588302009089 11.789703830099802 12.453016174822508
Au 8.4583102779188 12.242137747203762 14.661305884160264
Au 17.331278713913253 12.258605554184195 13.299723585050884
Au 14.260475695886203 15.694170277030658 13.550060410748143
Au 8.20216847461228 9.494035331757214 14.683529385199506
Au 12.917859996163555 9.245026917184758 14.061724303986347
Au 11.750593227222348 16.731811021922447 14.113894928373908
Au 10.690800617450801 12.777387219139863 16.29287372101245
Au 15.348107490880835 10.524278132094455 14.33053013541354
Au 17.515669692940804 9.49667169371679 12.971679709059634
Au 12.63893664266046 14.386926681445775 15.296307754548014
Au 15.064287290524504 13.292124293811549 14.519596383124622
Au 10.709375720158787 10.118341110861094 15.551997909907445
Au 13.107051223999436 11.581924086371226 15.576604796761552
