47
Energy = -124.74855895 eV
Au 11.006692048220062 6.6372329176905085 11.733281409975575
Au 12.325695870061574 8.158321849010607 9.841901461521472
Au 13.64503966634828 7.8268629203663265 13.020361201436524
Au 11.219151071979036 7.373399892141219 14.363438392992169
Au 9.122763972998152 8.816009274342836 15.550106745374773
Au 13.899324312452954 10.174999191924147 8.75541271101412
Au 14.912952888709226 8.30355848368418 10.604185263909368
Au 11.144666960700672 10.398110000533977 8.63499418802141
Au 9.624220836710874 8.559429715994689 10.243202028838153
Au 8.79338479812466 7.877007758368158 12.952354650060826
Au 11.55078554041291 9.399915968894561 12.331667380392458
Au 15.521535958306687 12.448895392184127 8.208153860251983
Au 12.791095170963995 12.541851616980514 7.812667709143234
Au 16.42707421875493 10.512009508796766 9.969448644761018
Au 16.989085449299893 12.336056872895213 11.960439880493128
Au 11.706819807763297 11.804911104850413 11.098868222251234
Au 15.518311047670528 9.991680163171376 12.639142120735158
Au 13.586070574618665 10.135768196054897 14.605206995007235
Au 7.1434782013902804 9.327822359038109 11.215741250479368
Au 8.471392241958698 10.9729180954286 9.396293292639685
Au 8.342235604324285 11.53462177481684 15.908402423188283
Au 11.762826587440468 9.056092380457166 16.406673150176847
Au 14.387862736625255 12.266251703625327 10.861275985079324
Au 7.283834059654508 10.103041555431163 13.868395383563902
Au 10.126737724973598 13.011309517454956 8.55937156292557
Au 16.558858671799467 14.247781830719305 10.01234956310969
Au 9.269532599866096 10.974266065202887 12.099800116890018
Au 12.507652567943046 14.237047699240918 10.246480290566556
Au 13.315238466725978 13.846693431871595 12.847429525639654
Au 15.967964473749072 14.759008647452156 12.732514539829811
Au 7.840210242248622 12.972874228985857 13.550454531986054
Au 10.81150644261113 11.480786900787136 17.187857203744606
Au 10.594091946600509 13.415476606327513 13.069861604176028
Au 12.774910866808622 12.71354490234871 15.42051742014415
Au 15.223215806008993 12.330657160080335 14.132813342629996
Au 11.766616694373605 15.096251936801695 7.661963349084468
Au 8.443144982861524 13.374627857327209 10.722752621433079
Au 10.77787736928998 10.937440118047654 14.445982250048207
Au 14.47534127566631 15.021750655079499 8.306028035407971
Au 13.941525502857028 16.6186478493696 13.19481949323354
Au 11.425814461098792 16.301951598219134 12.12068223951487
Au 10.070507123417705 13.742067638972445 15.79273633833648
Au 15.019269329455748 16.415323940829108 10.682735128633375
Au 11.94420255899097 15.398849768916852 14.71238695508583
Au 9.99019895055895 15.600564345614579 9.850364342231973
Au 8.81283677012781 15.412332411022359 12.450401046186032
Au 12.569495046982142 16.937025693151103 9.621133648358253
