45
Energy = -119.24601631 eV
Au 13.96135119362234 16.115470615560387 13.05630991114183
Au 16.18688754605381 14.525563700997548 12.76984733323128
Au 12.808515361281172 15.594231722355543 15.519425252449022
Au 16.151998495562975 12.5865685577197 10.76693021579356
Au 14.81606923824224 13.814059129090845 15.163811963209515
Au 14.45950563893418 14.826490279090661 10.502287468651353
Au 11.35758863433406 16.974810422718573 13.655081120236774
Au 16.120973530326303 11.900690428814526 13.650052760866187
Au 11.878495371601698 15.778283380073537 11.227418777844187
Au 13.536394402321774 13.3065960859726 12.714908811288971
Au 12.315965206965627 14.677038734935742 8.75586266760252
Au 14.304212185761129 12.670503073065754 8.63755097428578
Au 15.673641799505457 10.319417626205619 9.139863305590213
Au 14.322321811284437 11.105466571799065 15.696227266790721
Au 14.037050356921501 10.81724871427333 11.553603407808756
Au 10.223699158140507 14.715836952548917 14.951760692980057
Au 12.246371236369214 12.990290896221582 16.05714654247744
Au 16.696096200190787 9.995905260933936 11.68317767777608
Au 9.296721138989827 15.614599926964946 12.440701755097084
Au 15.665776134373528 9.220215081552551 14.09791866088037
Au 13.422171137961483 8.42096574022477 15.407396908419893
Au 12.065624177713708 12.493670957516844 10.439681578180632
Au 9.800482260231082 14.425784559448228 9.885003596860965
Au 11.670058785246969 10.33490630221814 16.474926516156795
Au 11.760377369022462 12.332834109073067 7.503730320705192
Au 12.24667406775116 11.07624731599532 13.772010577894273
Au 7.258505026016037 14.404687826191347 11.002057281243273
Au 10.724035318500446 13.126906834228334 12.691093603718784
Au 8.047763510300326 13.22982344867012 13.421797167721872
Au 13.561608624811278 10.125213762592507 7.431236636156387
Au 9.713287928005663 12.058199441981603 15.322961835605398
Au 13.422577653656626 8.297911590711015 12.596187691711977
Au 9.707630255079488 11.584654831828415 9.355762909227314
Au 11.336888923904487 9.877214081451747 11.39477696002355
Au 10.933183216796289 8.53275262872627 13.814617224457281
Au 11.02786982780665 7.5684968839567475 16.40792255685014
Au 9.100721775756252 11.892440580247394 6.699744669879752
Au 13.552930617082888 8.668366571255099 9.855030661416762
Au 9.104053394737251 9.406615767154452 15.716528315295363
Au 7.569631611450702 13.113202275755727 8.597078595762676
Au 11.140955794190173 10.11718380055841 6.070742619438029
Au 7.501456152889563 11.698410941256123 11.141605946473952
Au 8.892651752806334 10.438480884758887 13.150760194027985
Au 11.113532892004581 9.30412883299362 8.696506454397566
Au 8.806922276983988 9.302838425949702 10.607192655345791
