41
Energy = -108.29841309 eV
Au 11.978446287221223 17.37490683883859 8.870053393008037
Au 13.333527922689035 15.06405847516424 9.56372395366849
Au 11.265165755921064 15.05483911730251 7.569933798885021
Au 12.46432303145699 16.865635589073314 11.522037449216038
Au 14.751635125491282 12.854207635813351 10.231669169863427
Au 16.228111311930576 12.995165581113953 12.731015628999216
Au 17.5651584369359 10.621677644211696 13.39128686418304
Au 14.46055899385287 14.991015373288242 12.155413110137204
Au 10.357012791735173 15.563014768421498 10.190852488288686
Au 12.758574107037568 12.687671124750631 8.261160225300465
Au 12.696011190295065 16.012348683201218 14.071557422186512
Au 13.45954439332448 10.408192814692958 9.736285806005368
Au 15.757569739560873 11.615643207760593 15.149499850775303
Au 15.564464644268796 10.479643805046628 11.518389508712868
Au 11.513350020505948 12.872544748858939 10.835659257983068
Au 13.54475371531773 12.187121961065298 12.645441655211373
Au 10.152009228069934 15.804074941825165 12.928152848819185
Au 14.328896752618673 13.996441926491318 14.833517822541467
Au 10.535980068194219 12.68697879530416 6.487683413200645
Au 15.300321636237387 9.100778634162602 14.035083801372055
Au 14.26991224171072 12.510191279129433 17.198116523995903
Au 11.222458005491971 10.410898325961142 8.120017335015156
Au 12.588530753058036 11.57946895032789 15.18274018151784
Au 11.368246158979284 13.52127263021252 13.798892009442808
Au 13.528444940447223 8.675470177219664 11.96624337183195
Au 9.388334526852045 13.35268780730795 8.87854474658068
Au 11.305886717840691 10.643173598692691 12.51698676890211
Au 8.580760722001667 11.080545808145994 7.500889538517608
Au 11.431063974366136 8.575803877905916 10.169069441247162
Au 14.123293355544769 9.777918880109688 16.599306406521567
Au 8.868075029061552 13.644633337049125 11.580375377551904
Au 11.336359138427202 9.656042812460486 16.720769107379923
Au 8.32706884413366 11.233345581376211 10.334475966501998
Au 8.67299378921239 13.823456796718325 14.3034252369227
Au 12.738032468297614 8.340412404189921 14.693240297228638
Au 9.764404656683459 11.639418782063752 15.565617751387999
Au 8.960566762757367 8.865294769030086 9.019491991152298
Au 9.872869420359407 9.108271198742838 14.432073701107496
Au 8.498677994566512 11.29819758999643 13.103904683535292
Au 11.192233714855329 7.418968142425624 12.680757304689847
Au 9.07388572994719 8.94853939957457 11.750335019891095
