48
Energy = -128.72703381 eV
Au 12.110912778031857 16.121733635132593 10.444274502060566
Au 11.723086341840638 15.075768849256017 7.85105968293114
Au 8.13147528071872 15.16185300322126 14.150826398910137
Au 9.93000285196602 16.078429445877198 12.217186754704981
Au 10.55649109591472 12.574247054242711 8.061764296256996
Au 10.323333097820921 16.504271076677206 14.914940920660179
Au 7.8118845307237645 14.260351686118833 11.579052046315354
Au 14.270174909817664 15.347763693862595 8.83502444333926
Au 14.898799413944822 15.701582639346444 11.475176591203214
Au 12.539540846686183 16.47766031607124 13.1276631824594
Au 6.922267457587136 12.731234809538806 13.77067874490308
Au 13.347098148958452 12.824539493858682 8.0007347930413
Au 13.10005191019941 13.742827342093136 11.927160037402508
Au 8.498214079784713 13.105079161796994 16.00649180641619
Au 8.07609640218402 12.730004839572457 9.277026855250387
Au 10.317943008249168 13.106473264358549 12.117815131295101
Au 10.6082687437093 14.53995414575424 16.875380491125952
Au 9.747852361812225 14.867427730589466 9.710875884255907
Au 14.813548994850727 10.700639320900434 8.852024572264872
Au 8.036820674752848 11.346750291023405 11.67365090928288
Au 15.347400062188273 13.168614167987297 10.023830447331184
Au 12.074048654499368 10.21488731132872 8.075483526118163
Au 14.84877267888155 15.398420722650393 14.212681279638531
Au 12.809188775980884 16.18440517455755 15.97751437581306
Au 11.793237569707749 13.949637402083964 14.36235163234351
Au 9.53433401387535 10.412054058898207 9.46579066163984
Au 12.032140635497926 11.700885668512706 10.39290070915436
Au 15.221212044205748 15.39515191373993 16.972977431054144
Au 15.915069936402396 13.315067042851647 12.75253768224772
Au 13.65995870871843 8.122753663793409 8.87646284548069
Au 9.059556426542997 11.009403202458984 14.22679778910354
Au 16.402174605441385 11.037491321367037 11.326166588275978
Au 12.383097632994524 11.426554255863978 13.101519419753492
Au 10.994161292633247 11.82419016191717 16.054591923073907
Au 15.632699270902366 13.079876155849567 15.609265132837374
Au 13.16579271678321 13.477104948886634 16.89504220960316
Au 9.852829975332313 9.366546279224977 12.134772659299266
Au 16.13190857584236 8.587255059693486 10.029559639912568
Au 13.789332276799719 9.749704652139007 11.316187395700565
Au 11.03756435683651 8.230693701211502 9.88697930524121
Au 16.07086677452651 10.881331511565202 14.172117870639495
Au 13.634502974038424 11.08251689248211 15.601190000975501
Au 11.324301316459751 9.432848693638563 14.596518699331897
Au 12.590073612097932 6.0225812453611525 10.295304513656854
Au 16.60239769406275 8.639843056515002 12.775780195745151
Au 14.042357108264738 8.906407580392004 13.964605262915827
Au 11.96212967428367 7.671611922568784 12.47985245793342
Au 14.609961627951552 6.998504354473792 11.837344222405147
