41
Energy = -108.55685423 eV
Au 16.167895086946555 10.808135464967668 11.291579445896124
Au 14.527835248437352 8.022171119001191 14.345311613553623
Au 14.647183120805387 10.728285496346798 13.609226871394776
Au 14.577864523554373 8.57017721921101 11.702074699100068
Au 15.549258271299633 12.633135427017473 9.401663108237077
Au 14.360099021885947 12.918350414372895 11.965123781225001
Au 14.320347451110786 10.054594339341058 9.373514730288932
Au 12.226154745462555 7.0632132944451955 15.476719470128574
Au 12.452276076522502 9.81493593309217 14.912960859755167
Au 12.469270368246086 12.488204169772908 13.978182075933583
Au 11.712473297548962 7.8406940176685005 12.860575076234648
Au 14.8217850843352 14.46323077454007 7.500993502718837
Au 12.365218322601155 10.425520864063275 11.832614025548494
Au 12.465115667253363 8.033618449867738 10.077993762491444
Au 13.570985860168165 11.999707843482797 7.470657273656606
Au 13.755151849207223 14.762389252646159 10.01116204551099
Au 12.058562865641916 14.55235733007577 12.191612059832467
Au 12.003139151173155 12.360238354035959 9.84507848919247
Au 12.22554051388646 9.650903616324026 7.665689956395968
Au 9.98401632084388 8.507607991930518 15.314428689273502
Au 10.169802258275617 11.36227670165428 14.960931613637483
Au 10.637132418983784 7.422485232790557 8.124752471663653
Au 10.296671905741798 10.160824184446826 9.992536969887349
Au 10.15987352646926 12.140718338192587 11.935064135007584
Au 10.066168847226864 14.004066263709639 14.031979779668099
Au 12.060519810657715 14.447569657143376 7.676858469999934
Au 9.820937955256317 7.50625598880891 10.84371105867749
Au 11.292858161491587 15.957693916698515 9.857661856757817
Au 9.23648116656564 9.402429315669266 12.801790980050809
Au 7.798802190599712 10.101886050252377 15.437917596217444
Au 9.643870886167806 9.680440129837065 6.722287045926423
Au 8.213412260755625 8.629052558090871 8.834060833116386
Au 10.738247889692651 12.112370800819468 7.136182819685625
Au 9.580375897495287 13.939066296508482 8.912605466816062
Au 7.408937273617636 10.218912231061386 10.80413008981498
Au 7.447751032643704 11.580031867225294 13.111103542578432
Au 9.346128187125977 15.108058098109176 11.504074327662973
Au 7.868113239172045 12.912966994405823 15.47801076141536
Au 8.283538074949357 11.502726900905945 8.40647627122992
Au 7.671236878955848 13.0147530511481 10.689261902870054
Au 7.341921531022453 14.341030335205584 13.186872997914982
