45
Energy = -119.7205 eV
Au 13.367774078383816 12.632670617248209 6.222291860400149
Au 14.879683635181456 13.799983295970437 8.102399609727376
Au 11.505479567151166 12.847646353376494 8.211613712392431
Au 12.11739116124934 10.335039476909396 7.1524222852971295
Au 14.440888924508107 11.104974450267768 8.43653283900013
Au 12.743750770692618 15.096150271570467 9.226634286545
Au 16.851859192267582 14.065327526130044 12.37857646672007
Au 15.325013210057962 15.242890037531568 10.375268599817687
Au 11.404543504738365 10.560061887320359 9.830752550156204
Au 10.045434633715502 15.045385507965708 9.16303802796443
Au 13.13683970538969 17.004634855915562 11.167058119537328
Au 16.946759279455957 15.416527993811089 14.860149378890403
Au 15.847601925647114 12.476233763096971 10.362024973920283
Au 14.738433818132489 9.989364616009404 10.922739071021041
Au 16.17504312069425 11.299167976239366 12.862058803948532
Au 10.49841602020446 12.93276196710201 10.8111109215929
Au 10.572091504116587 15.59007660732357 11.816832134919549
Au 13.205194740685247 8.626450036107359 9.0299783860714
Au 12.410519358910921 16.622657953907716 13.77805983791035
Au 14.731293191165271 13.606186188101649 14.244415200610613
Au 15.185523525161875 16.334970422906007 12.923386823904563
Au 10.526664444550644 10.693999283372552 12.42560252288247
Au 12.411822456363156 8.649276448938696 11.641625616283417
Au 16.468552157691306 16.24760518664614 17.43218795081539
Au 13.150537463702614 14.319468794384088 11.969711232371061
Au 14.463124242548387 16.688326929367644 15.564994878198707
Au 9.52788572601639 13.119495699591598 13.38539551852768
Au 16.01763230487075 13.567575655042695 16.858419108493294
Au 13.19667010326873 11.740887453632928 12.604707051684382
Au 17.557438460584397 12.687695287467045 14.74858790119748
Au 14.205761586019145 17.68373642950815 18.127354573084876
Au 9.910085273445796 15.624824152819455 14.452597614344679
Au 15.38341019114093 11.103120842768249 15.589714233090705
Au 14.218511300883462 9.407150837774658 13.72439974679619
Au 11.890226017441359 15.775029647030921 16.39304167256985
Au 10.328821261679078 11.0580364227675 15.123020301997942
Au 11.49525862878221 8.749653314575243 14.19252168097125
Au 13.677342052438009 12.313884087050797 17.5344428940163
Au 12.088281641287654 13.566639490397222 14.482101242757285
Au 14.074507100609116 14.934171422459107 18.201072543127438
Au 9.95598873698081 13.5454360944538 16.276860656291326
Au 12.890163961097537 10.098283796938453 16.103536069985434
Au 11.900171503793842 16.55932750087161 19.024026077896444
Au 11.488546941855068 13.918222991025146 18.553650104509572
Au 11.093923299022876 11.369852149886777 17.763946641340596
