40
Energy = -106.12926368 eV
Au 15.37718149361468 9.772069540525855 8.246864799567655
Au 16.182502705328886 8.074454456693203 10.268390473444205
Au 12.700742429758069 10.360832730889813 7.813192710621954
Au 12.417299890501212 13.045717361153313 7.239630376288244
Au 14.554400960607449 12.421158758356391 8.813006370709145
Au 15.661481078093939 10.868790435291691 10.781751293032814
Au 13.438169131207033 8.443255892599412 9.748168461454387
Au 10.799515828215844 9.127813276651422 9.394311897511239
Au 16.27005486672278 9.137926399954718 12.825191835300801
Au 10.212812493880115 11.587835397067135 8.150875361994805
Au 12.869758823313534 14.554621990590261 9.577780267033127
Au 14.269675705741827 7.375713886331194 12.16353066482948
Au 12.65471640684589 11.153925523674582 10.558461431687943
Au 11.677859408340037 7.904906099965587 11.91084492306457
Au 14.689677809549998 13.438989385884861 11.381338345751107
Au 8.99988145852333 8.04473679808533 11.145928405714544
Au 8.417971503914949 10.441939430962918 9.9286478869972
Au 10.323059158448329 14.392943241746732 8.372397045570908
Au 15.318382633621514 11.587346946880098 13.437996560785416
Au 13.59797254893692 9.451050784802057 13.837487053489895
Au 10.481429012118197 10.502960465160134 12.17582965366911
Au 7.645204441649317 10.037231517568719 12.648092367228427
Au 10.607997248799094 15.773930210097262 10.72774802054637
Au 6.625173786565871 12.137621499561899 11.303970060834695
Au 12.286021015866615 12.431627567194411 12.958598506876179
Au 14.650222916632861 14.129551752273619 14.043212422322433
Au 10.389609082397012 12.917285771211088 10.895764300966153
Au 8.010683887840743 13.016813331895428 8.949443798600623
Au 9.681897533032524 8.369305595901332 13.818577756344649
Au 12.77134077293391 15.230887429386833 12.324967904051102
Au 11.372068249775074 10.055913289791398 15.154129584438394
Au 13.345405229928124 11.912211349069358 15.477876308826513
Au 8.142029798272251 14.632387431390567 11.429576844283682
Au 14.253194036226283 14.159206306310127 16.732850033213243
Au 8.406129826183353 12.668463757259422 13.395139922055817
Au 10.478015308318277 12.710506730515297 15.265826885511974
Au 12.166759079309992 14.83912485640416 15.115294672503019
Au 5.874983138320162 14.35520969636272 9.970023193198374
Au 10.15171198749499 14.808832593557112 13.318289333534398
Au 8.688386364743996 10.58206872143114 15.177223331448465
