41
Energy = -108.3560045 eV
Au 8.98555310917279 12.35077770087486 15.293003183422076
Au 7.579908613080147 13.987753711303217 13.490344891176896
Au 10.199698195671326 14.549692008051279 14.166368648672728
Au 12.97471482025133 14.713035553500493 14.342733862883751
Au 7.635435550076546 10.009443126141203 15.846701057216823
Au 11.749497075297796 12.349545010604157 15.216154877003397
Au 6.920868262087054 11.2318548363017 13.473437158566544
Au 11.779825206168933 15.767152993102856 12.090692458525554
Au 9.35627408853372 14.571210539913569 11.38341037883707
Au 10.374203338173276 9.922711603885475 15.32305380240561
Au 9.585134420314501 11.33027938125957 12.594273990163499
Au 14.117826480920819 14.242890650576916 11.512185161885812
Au 14.23695308422777 12.36486955894443 13.955143279787874
Au 11.72979902153666 12.965061833150815 12.302490234780327
Au 7.382576177749991 12.660092500936832 11.077766422875072
Au 8.497018100193257 8.804906845951994 13.477758835404362
Au 13.0733443637496 9.864940947617214 14.961770150554658
Au 11.623838069970573 14.443554241944863 9.686204532666551
Au 7.452859157493061 9.81944298837773 11.124029573446602
Au 9.257890139002122 13.15041276610476 8.994073688305164
Au 7.200434519447215 11.265867291151658 8.769606612138372
Au 9.729778148348283 8.131776854554689 11.049875438598695
Au 13.188840292637495 11.798041834901916 10.255956646034573
Au 16.385415871517626 13.9234367100784 9.807872481977657
Au 15.562284937745838 10.028016666717434 13.618660368032263
Au 11.660792711471679 12.51802771273868 7.672556487469457
Au 10.577389864418624 10.834816433651271 10.070492661499616
Au 13.86014490469663 7.936296618152424 13.053407141819106
Au 11.14166578855985 7.937670446974205 13.450536284323608
Au 14.019543023539496 13.76407811126929 8.460415058068616
Au 12.185976745771175 10.248938855566722 12.312852178925452
Au 15.872504251384862 12.015441789338936 11.744665997669129
Au 8.241540770158213 8.674741069072827 8.73100620957829
Au 14.854861031463768 9.485568168281178 10.943292669446674
Au 15.656724611548599 11.375671431892352 8.97182669022572
Au 13.560877401671005 9.521410550591202 8.530498094887863
Au 9.53423780823353 10.769515664897373 7.38986703693885
Au 12.470632767184036 7.8949130197341155 10.675751129917616
Au 11.961613675463282 10.053989461334053 6.335291408904057
Au 14.168522648273246 11.626450615337767 6.651439118066621
Au 10.964072783657846 8.497614643751785 8.466585904371064
