42
Energy = -111.30473422 eV
Au 15.65370126594041 10.076775319125435 8.965169539313534
Au 15.358346863124394 9.036052569285031 11.622423801769813
Au 16.174268499019544 12.67483076431554 8.604114488514641
Au 16.051833395727037 11.64700459862006 11.248578275479572
Au 14.649671233139529 7.5904844193196945 9.313360654064459
Au 15.37913766589489 13.569371778004609 13.217139613533167
Au 13.54704402872064 6.87097710263344 11.641741242056977
Au 13.316844153636454 9.348477584414686 7.613389837744357
Au 16.15610326032987 14.365424673227878 10.698052444912019
Au 12.69357526399032 9.93109363804483 11.279896890841888
Au 13.450650753550855 8.564482706136511 13.831240283078685
Au 13.7854116479344 13.034734111024196 15.449058128070728
Au 13.49597847059601 11.984335999416317 8.35734518384084
Au 15.08904895932384 10.865671402179785 13.75552670176952
Au 14.201648255439057 15.60350174460874 14.613468088602197
Au 11.831390955394898 7.917612981532452 9.614040021606177
Au 14.187937901503448 15.823233367285539 11.829270053150745
Au 13.735430540664 14.610548461094416 9.327902792639991
Au 11.105092990183007 7.737724523131873 12.475912202376305
Au 13.324236473394247 12.642944547008666 11.215285690459616
Au 13.236207428555284 10.400762584291401 15.895282311052743
Au 11.106035614337161 10.584424508792608 8.782559512213803
Au 12.313035981626582 11.532223724811486 13.521216788137613
Au 12.116036346893075 16.82071923036445 13.300869989337821
Au 10.95905854297393 12.15852078079617 15.859080667042512
Au 11.593854644207214 15.798420307253911 10.690149422779623
Au 11.15703805650613 13.902966983008355 12.680605684597184
Au 11.535945474032605 14.834699123878334 15.248491328986287
Au 11.207910865893524 13.38280417281321 9.224696262627921
Au 10.874644258723231 9.373341957522113 14.848712108936216
Au 8.720592331882274 8.757000397656267 13.231678178298177
Au 9.535264604806592 9.107169612776183 10.56210816439296
Au 10.445608086298382 11.578265695237521 11.499127841761226
Au 9.559977115613854 16.152554593129658 13.196536770929537
Au 8.692967380489023 11.065758253448786 14.678605802304759
Au 9.007873526211396 13.857757104739015 14.706143723085036
Au 9.11206423685009 14.509968503654326 10.708461250567197
Au 8.730757699854841 11.954239009819496 9.41581356819991
Au 7.649824418970174 10.755320912848193 11.743814249845634
Au 7.152869357335697 15.182721403599691 12.633769448789954
Au 6.85629222912249 12.639332578855058 13.539929891886542
Au 6.661826722685316 13.168783771670615 10.77246860177809
