55
Energy = -148.93364518 eV
Au 7.619483927070389 9.940440018832652 13.932788787124728
Au 14.603986438635372 12.750433328927159 10.723354050422257
Au 12.319095633210766 8.945111334257957 15.112997639078339
Au 9.819329811231835 10.125046896507497 9.228662765852745
Au 14.642159516695935 12.931048639882759 13.54243643601124
Au 12.29169679481318 13.198301306850924 6.579129137273018
Au 9.928242410355232 10.521218970483877 12.361582507144131
Au 7.585751177014426 9.796231013235433 10.900500646939362
Au 12.259258077171388 13.545117049335413 9.29813254247277
Au 12.33443583066701 11.38953536630163 16.55054273328497
Au 9.884144516875399 10.495718735815117 15.513321192465442
Au 12.30871915170872 13.772981479639745 12.098698878110797
Au 9.890011181686841 15.309109480522956 9.251533322646079
Au 7.7013190197245045 14.579761682370739 10.75309161963269
Au 12.343081173891935 13.916541288050478 14.936075453070924
Au 9.822282041615892 15.978425409591164 12.000028171636744
Au 12.27509334888672 10.811677672968969 8.01139176602555
Au 16.86423997767348 11.82356386217252 9.367521837242073
Au 14.711687342841365 9.947982089479304 9.136040243019462
Au 12.223564444192837 11.173210247517883 10.865945855418087
Au 17.38806104071464 12.08571914211869 12.145436629824303
Au 14.543693679474668 10.444499077862185 12.277949302747285
Au 12.275338624909146 11.32875913066482 13.686718228121299
Au 7.644723865947435 12.093698158378636 9.447136897428233
Au 14.744739611274433 10.404927156656033 15.464146042861351
Au 12.21802568629351 15.84079972256841 7.772193351274269
Au 7.728681523943426 12.40533833832195 15.08325522594075
Au 14.61775602804536 15.17034658401482 9.1350664435146
Au 12.27259794160214 16.233442191724837 10.547393545881363
Au 9.989669040594848 13.167765661246662 16.482439340517608
Au 14.723350295305375 15.750348864247737 11.899189598483686
Au 12.328600172779005 16.375123812835724 13.295757026768966
Au 12.390043171926509 13.966693149202488 17.683666805450493
Au 9.955288387198053 7.9849966165440565 11.012280778169508
Au 16.866972570721526 9.55080663723479 10.949838067827713
Au 16.920233083630315 12.249330951384453 14.97070098504438
Au 9.971150858478667 8.16309926146062 13.953450510487732
Au 16.88847864712109 9.779057230184456 13.72429302305335
Au 14.718664721379552 13.061458533720026 16.439705211343906
Au 9.89954055377458 12.631121044380043 7.928956028941419
Au 16.852525716773954 14.388224616343836 10.564112720494496
Au 7.7629273914625765 14.749883915382563 13.528098874860571
Au 9.927770880678548 12.86309107905363 10.80525833886929
Au 7.692377667690628 7.595574511386962 12.510814272371636
Au 10.00326284935981 15.666212579749663 14.82301476688763
Au 9.98064625986975 13.042012769538697 13.597346336271219
Au 7.190397922491325 12.249858901235893 12.288153193198507
Au 12.399961094628374 16.41600344453304 16.09334239451071
Au 14.622883231052548 7.9042441364527765 11.059965531985297
Au 12.285988996724658 8.59372865466425 9.76153523750879
Au 14.726509325164944 15.555042560077704 14.750854895346622
Au 14.649046270873136 8.123815349771128 13.84327849571862
Au 12.273933889464741 7.573385421629807 12.512796827386712
Au 16.89366830258567 14.583436072255143 13.356251838752822
Au 14.648493717554036 12.480283687880771 7.865412484735842
