51
Energy = -137.47992295 eV
Au 6.970995377320375 10.122638679162362 13.67389712883487
Au 8.772219486957706 10.53102852220081 15.720367763316142
Au 8.133872207330032 12.899436284874351 14.490081323607914
Au 6.408350097196623 12.447183423887529 12.400366497380498
Au 7.2003400979988355 13.180451952531767 9.906284164805104
Au 7.956411352228632 14.698608441029078 12.313120148000099
Au 10.439778658477925 12.640198198116805 16.104271289837943
Au 8.168143705937894 8.151748709232505 12.105662646862744
Au 9.455853241011935 8.149618160554615 14.569426317421666
Au 7.403840335264025 10.447385674425304 10.74884937571389
Au 9.661165929463557 8.824733814900418 9.889556309940442
Au 9.585875957120736 10.554744939719502 12.80629622349383
Au 9.778256243509697 15.198225605791333 14.435682783933451
Au 8.784953679731162 13.753457016983669 7.757472048027994
Au 8.85336673696298 11.106572353884347 8.51763341043545
Au 9.733992301494727 12.681372361187472 10.871833421766807
Au 9.22109234264099 15.354070727103077 9.890435342307356
Au 12.289395089644595 14.617003057690692 15.50534422635547
Au 10.957364170936767 7.935378548469912 12.26507328802119
Au 12.569517634312342 8.212553009505589 10.030855246726237
Au 13.112885143908805 11.813092659049264 16.124313822671724
Au 9.74226854307963 16.795386580907866 12.125630775600719
Au 11.386521985711228 9.655914229925544 15.871069229784142
Au 11.626343975263419 10.64778784633195 10.812766429336293
Au 10.935043855971367 12.916147312893285 13.427576708949584
Au 12.406686447399458 10.573232768861349 13.462719124470862
Au 11.441776595166779 9.96056675694936 8.069506463267704
Au 11.954694294425613 15.899547484513606 10.637440807516427
Au 10.679715966376499 12.162201108090356 6.640722325614346
Au 14.395146189339044 11.21381330516741 11.52171410350697
Au 14.955404508797473 13.899193384169003 16.109858771102488
Au 11.444096540523311 14.077114595542453 8.598560511502018
Au 14.089428442707083 9.243002171478977 15.262977606260122
Au 13.65501279967112 8.20161975767148 12.69184961503512
Au 12.106912507640333 16.43901899544612 13.362298925503305
Au 13.23453482479852 12.17863194209417 7.591698516359486
Au 12.48196438668582 13.232088279555102 11.16704358775345
Au 15.315483989998466 8.648159683093837 10.589290714579707
Au 14.123558928422673 9.580468275293613 8.13736611473806
Au 13.89042024746147 13.040343146481172 13.59405647009357
Au 14.3968458110399 15.387680112110454 11.890299808468814
Au 16.41599240872721 14.371885168745559 13.7042868007109
Au 15.802488853238287 11.452306865193476 15.245487078710738
Au 14.20478135843365 14.20368023296797 9.328503747785895
Au 16.040251859612223 9.560810694302779 13.216548615164708
Au 17.257092727779316 10.699311833515122 10.864132897023904
Au 15.63361868148062 11.90537134175927 8.878514957090397
Au 14.496011017788414 16.147288974874794 14.568206137554036
Au 16.3023714947966 13.436392594508607 11.101811697389657
Au 16.823456729603695 9.444362610610089 8.443447057454044
Au 17.536355706439796 11.967919629795308 13.205742032878158
