51
Energy = -137.46079158 eV
Au 16.147470540338684 14.184298508024748 10.918741392455471
Au 14.987508196412435 16.44374197104833 12.239125974000414
Au 14.724328824936881 13.05854241454476 8.894795538270028
Au 14.18149917592412 15.737893884089772 9.64774439085523
Au 12.382166614950268 17.14493450377447 11.459699250735637
Au 15.163621237479461 14.800435135409382 14.608305881847564
Au 9.728034537155004 17.113533630375294 10.626234479994059
Au 13.017906176124797 14.57234023448621 7.3216216232151705
Au 12.851951583293088 16.280263011090987 14.09591944602266
Au 17.37041638743535 15.30608961742953 13.100900113301417
Au 11.619401623355433 16.361161668612517 8.841362930680672
Au 16.085379176168185 11.377896700118656 10.852278386139385
Au 10.31455309276445 16.197653439728175 13.172047982689735
Au 13.080124951525312 14.359981981593606 12.018002597008122
Au 14.415830284449306 10.32335180315056 8.768192553725415
Au 12.837953851674689 14.16789053110871 15.81263398881709
Au 9.302030086001906 14.765900494447015 9.211266656974322
Au 10.249973521847384 14.039706328743252 14.891011004174862
Au 11.836024032910483 13.533031241883553 9.63324240061747
Au 10.434630422644178 13.4933609926802 12.049870322015835
Au 8.129452643505848 15.161709448065093 11.77367663361631
Au 14.623831041541408 12.1078259378458 15.395172025705483
Au 12.415101905683187 11.867455594686366 7.414692302063321
Au 12.390475492138043 12.16859216541426 13.650907449256893
Au 16.532093095696275 12.706233423441873 13.313812023097439
Au 13.417033515811443 11.69527086180082 11.118151175019246
Au 11.703932106730544 11.752967894913239 16.335482517496313
Au 8.013746917882964 12.990171913511402 13.476919350902048
Au 8.005684127279668 12.65670300832408 10.517236417993026
Au 15.220000227068649 10.35052882015287 13.359476775102488
Au 9.675467263871738 12.169238747163543 8.364449647595826
Au 9.936217764698101 10.740836553559385 13.28809095821001
Au 12.958335186294304 9.271823462505726 6.64286448921904
Au 8.99631389297913 11.714373450701546 15.758625805176003
Au 14.674998217662548 8.847056299927106 11.065351148120278
Au 10.815394378235823 10.974315489306601 10.693004542901505
Au 13.229169605817148 9.641096479533537 15.344970390596838
Au 10.746363466288162 9.643184620748118 8.17754487194851
Au 7.203860611835373 10.659925744290746 12.146597901806084
Au 8.472806670862651 9.849153390206215 9.822831135146762
Au 10.45101484942944 9.300596203230747 15.85059223039154
Au 12.883716539766265 7.972743226072833 9.059448146785332
Au 12.275462318077945 9.514896127177334 12.579558081835968
Au 14.344604329693471 7.738168779109716 13.628641457055066
Au 8.280597345872595 8.152948364719395 12.104764858865003
Au 7.730451536905546 9.5643320649661 14.604185777893816
Au 10.296330916768113 7.769822027743258 10.1817745444765
Au 12.654026098000818 6.902211942354309 11.541066849253848
Au 11.779171290879024 7.318178574460963 14.426175858643004
Au 9.054043689114664 7.214147146476726 14.630916688332674
Au 10.186624941593097 6.174706316474918 12.392630887479731
