53
Energy = -143.45736827 eV
Au 10.017624110474355 14.457078195096384 15.987664694191016
Au 12.535777080167898 15.537983999356825 15.602362861229986
Au 10.504287386983231 15.667455465196964 13.484922301893386
Au 8.00272928073769 10.235021788679928 14.839747101363892
Au 7.266449554285279 11.600766984677911 12.506150433697725
Au 9.873628259616096 11.717387430771343 16.44057851033216
Au 8.038262639419075 12.991724775887388 14.758478937646764
Au 9.829981514507814 8.986644924495394 16.547026050377326
Au 12.936747732473503 17.171089222206913 13.406281350866818
Au 14.757835079010267 13.863914044939989 15.366008687445204
Au 11.493131792105332 16.702686081205368 11.100159705594532
Au 12.374139796448675 12.942102126045038 16.57321205062971
Au 8.504675990775654 14.125036241587592 12.280051816379101
Au 10.811006886617099 12.825550739575787 13.856331374235257
Au 8.164261598371608 8.869321268594582 12.410966676975226
Au 9.382697238003065 15.333029098357542 9.886385012864233
Au 8.188177896162925 12.80119613236518 9.867770677453668
Au 12.25339762155584 10.131107987901174 16.600350998225633
Au 9.88944228365174 11.174308161354665 11.495039352778571
Au 10.899237140342462 10.08067421756921 13.888865520602595
Au 13.19044133450462 14.37547625918991 13.110941392555967
Au 11.218636392605204 13.768213895842656 11.183394880246698
Au 7.39945317806301 10.17681588040831 10.140883173368712
Au 8.81565433484341 7.443883409538453 14.60983273234713
Au 13.466369042341354 17.58907986843431 9.423716574703597
Au 14.682221424961647 16.244324453087767 11.475086717602297
Au 12.951009183268775 11.672334683630897 12.4516722730076
Au 16.021173316608618 14.258485605489213 12.928802161355762
Au 11.861286400279331 15.508523480215052 8.583875137364222
Au 14.6580768170626 15.320518011068241 8.433756337735561
Au 11.777847604466674 7.67158898434041 14.949558070374001
Au 14.646463571753372 11.3128854315123 16.389586790828595
Au 16.609002777474043 14.618315369023005 10.259020864137726
Au 10.307318738184764 13.329202399017547 8.054072313779004
Au 13.939617805345424 13.488432490573496 10.528863482327754
Au 10.446212438958664 7.130582606567425 12.470646730109817
Au 15.551674339456117 11.669415912164613 13.809789434145387
Au 9.50847565807137 8.350311922355267 10.01089324004419
Au 13.861462661371137 9.463888061489687 14.424362853321805
Au 9.406343302384386 10.674175112936808 8.357561016336897
Au 11.982426582961502 9.407945700593977 11.254352559808526
Au 12.072486787112544 11.602602852053318 9.58147153524861
Au 15.697586399947026 12.632864207244381 8.47582002413615
Au 16.46389927612123 12.01418713126843 11.223353311773204
Au 13.302126106492933 7.419382843900296 12.57615079438962
Au 13.145817237592265 13.255648287031617 7.457265616603002
Au 16.18509073923604 10.043879397101152 9.373099548878477
Au 11.884568368790054 6.793438499083185 10.180385592037657
Au 11.530198023613835 11.188893297094436 6.692599528289875
Au 15.029465555343078 9.679335886812291 11.907923862961395
Au 11.676128721583956 8.936249367277622 8.323024256204251
Au 14.136309406830785 8.284407095946994 9.634293767651437
Au 14.008036061345061 10.490399476235124 7.771933297842551
