5
Energy = -6.86394476 eV
Au 11.952979435893928 11.718149840433345 17.028605792362377
Au 13.91958512710597 11.35890038151154 7.192066075982488
Au 12.093402216633194 13.891684178096316 15.614647366131571
Au 11.930738816571452 11.823934786039086 5.73671959993965
Au 10.764903770019867 11.980257917792281 14.453862861218711
