52
Energy = -140.16693342 eV
Au 16.342692856997218 11.28763450306613 9.25920888572874
Au 15.49658726068442 13.880682324546726 10.046185036394132
Au 17.284320778211008 12.416606278508494 11.58382772030003
Au 14.448805701273066 12.604074839893608 7.738603880153066
Au 13.788033009715164 15.398174520997115 11.695730375915167
Au 14.598275815832068 9.490499193739655 8.05952083949684
Au 12.99450326068373 14.638855600108407 9.125673009368004
Au 16.304222488640033 14.79341218036403 12.672399065002113
Au 15.768464123835459 9.983329907383142 11.69388483449219
Au 12.466306107763504 10.81834279207794 6.813662537389452
Au 12.146740017821521 13.617533336086872 6.592946047152408
Au 14.635570831567954 12.596327342954622 12.803962832171699
Au 16.876874318394513 11.312718340544253 14.068312745141858
Au 13.82584036955725 8.279664253934856 10.514805442098334
Au 12.207146743709062 12.92527404309822 11.553003296088233
Au 15.995923426505103 13.68338461437883 15.19917373189196
Au 11.274063629942068 12.343558661990464 8.860457239104381
Au 11.995136993017448 8.544173778274263 8.425222867877995
Au 14.197203831648729 15.627535271086536 14.435765501046358
Au 11.989113771199031 16.770709838450266 13.277326617201512
Au 13.613922682027885 11.13329415188007 10.035280898577266
Au 10.290577889518687 14.902143930173963 8.297673462949643
Au 9.843608862262236 10.266997728267409 7.578857474451226
Au 8.54745172812642 12.695406184969126 8.148790746658745
Au 15.218933009074618 9.14534002293938 14.315528483722238
Au 14.916112719748536 11.28094402544823 16.066092909867535
Au 9.392637400075952 8.122321191870112 9.261913930622644
Au 13.265712508937888 7.590267786769454 13.154566366899576
Au 11.050415930675582 15.702522168503556 10.860245565655482
Au 13.029736104317964 10.283899176021437 12.660872989523366
Au 11.227742738320993 7.477559116834356 11.248793122040002
Au 13.626055700458622 13.87463484656528 16.606626928543875
Au 9.27560432330476 16.524363082757755 12.85986932636232
Au 12.495727871214527 12.303185973918724 14.575172643786717
Au 10.924736552697118 10.233212110294135 10.546335987333245
Au 10.683041280403277 14.152634833381276 13.452866695061788
Au 6.8535786017076346 13.096967231453887 10.349899741536232
Au 12.780704161838658 9.325765773896887 15.503460521505625
Au 11.713242760063888 15.685315837572317 15.777307608408206
Au 7.9847176233785735 10.503003701151338 9.74893752100764
Au 9.523876628090756 13.230426979284555 10.876869030598032
Au 12.533924352408274 11.405889644993842 17.37041493459053
Au 10.699095934733853 8.377297621553316 13.884696385552505
Au 10.337618497200067 11.292621756020234 13.068466673865089
Au 8.743830890231225 8.773974268949997 11.85115796901974
Au 7.694637726900443 14.180026147643074 12.849710156572382
Au 10.653269856447075 13.279797346399516 16.582879880756614
Au 8.94696767134008 15.158305405861057 15.31940493082425
Au 10.312782155653945 10.51292250047029 16.02218893362144
Au 7.580570447401766 11.382674052844784 12.362033750789571
Au 8.498344080419741 12.434209641898924 14.941008638941685
Au 8.311222669054999 9.68394833589498 14.392354549404113
