53
Energy = -143.34257908 eV
Au 13.366147459388074 14.690350226068178 15.665085997074891
Au 10.28564717253647 11.251015739796575 16.679173291129157
Au 8.834657008210865 13.393958285138087 15.485221523586116
Au 15.145853080128122 12.843997692110955 14.580550079104787
Au 10.92273203396331 15.974686679484922 15.407795694247598
Au 12.898563627418444 11.94800871371342 15.959920999041593
Au 11.115759159754043 13.816827117960592 17.019812206028647
Au 8.528049047811848 15.847501889765859 14.118502610871312
Au 13.174807981308946 17.11984149605155 14.239640187773995
Au 15.539031764928717 15.635865462066567 14.07371985676105
Au 12.008162967211803 9.312878099947682 15.523251624448287
Au 14.631091744570831 10.093046873946909 14.94079688580716
Au 7.442493569224168 11.111032351308795 14.410915347939984
Au 7.414219552519411 13.549892193778959 13.067778906373379
Au 17.084427521659634 13.768829386443167 12.714373187424426
Au 9.23188664324613 9.0867380669139 15.388024711683432
Au 10.802677984221205 16.95632147352012 12.77108218365794
Au 16.73143143971472 11.049659500849808 13.156522463906533
Au 13.250525105993649 14.701629116322891 12.732022346322422
Au 14.10011703853474 9.85321561763468 12.167555261768708
Au 10.116895088551615 11.3690557206213 13.863862361720095
Au 10.54688968365688 14.056318821501366 13.117619997733396
Au 13.310285877870205 17.243960504447216 11.448137511972938
Au 12.540547631868282 12.044801605032248 12.867632355698168
Au 8.736145273824969 15.62470213741888 11.380817207193134
Au 15.637897677109699 15.640839537558636 11.268848063680851
Au 13.527780843457515 7.673808414814963 13.86298400711929
Au 16.24417194075116 8.388721472893744 13.477886256733838
Au 13.754178751138529 15.562961835079886 9.233290504632313
Au 11.173252528582095 9.759862776317688 11.789243786019727
Au 14.803540865867944 12.653268435164026 11.433243729023458
Au 17.421398686302112 11.973460504944965 10.595316066054913
Au 10.798370735273613 7.619257770327122 13.573329105587183
Au 15.974603567529922 13.859870237292116 9.130489363864497
Au 9.828769558808295 12.133310139439196 11.152243191206365
Au 11.119689116905755 16.24777074741441 10.066070001766427
Au 12.065002304171001 13.681362740178693 10.41297645253877
Au 7.11127361190821 13.64010408216085 10.379036958470472
Au 9.551488074994728 14.20733303222195 9.096672789249235
Au 14.989362780814487 7.101545278899783 11.411746226414746
Au 12.940526291012828 11.070691934925419 10.036002374169692
Au 8.518581733433862 9.044205861519904 12.752385956821517
Au 15.558127842098694 11.080039447881237 8.69932767438099
Au 7.191561641379198 11.136340940990014 11.566687212247777
Au 16.5204813301264 9.346392836815056 10.70144472081976
Au 12.28576877332188 7.311190871975162 11.202049384774547
Au 13.576696551351294 13.054140596815223 7.982473117939607
Au 10.957682108106614 11.939811164085569 8.216705100867163
Au 8.273760171177365 11.726222713412275 8.79902742262589
Au 8.97965490164535 9.394584561865187 10.059450601719407
Au 11.422507843934753 8.825168702622344 8.997962982201368
Au 14.207898526577715 8.569111100789316 9.227772274340452
Au 13.147384216166596 10.354194996716805 7.354191079349898
