53
Energy = -143.15364329 eV
Au 16.34296030779841 10.432909336098847 11.634277777684792
Au 13.552883364927457 11.70288592629951 10.959643949166878
Au 14.42895065733128 11.912876913132031 16.28670771297052
Au 6.675318824221578 11.97747159739482 10.631607091429483
Au 15.04559144191039 14.20817792586196 14.886555943599145
Au 15.80225485138044 10.510167548492259 14.299219337597142
Au 11.5355899467902 13.688437441286984 12.216276018244642
Au 13.60688328656354 9.328975279256742 15.327291002763834
Au 10.446723248957262 15.58813135705968 14.768008859397371
Au 16.472132878198554 13.030308331306294 10.58577455076459
Au 9.105810529184117 10.387267589320448 15.908530138522886
Au 9.74110156675856 8.631270164478114 13.844452584221518
Au 8.885150987114132 13.094088485138757 11.910551057082468
Au 11.520304317430945 13.467558630240775 8.511307450188003
Au 15.577826314383083 15.614439028193331 10.122471231068092
Au 8.353558202403246 10.08908968857301 9.483431534464264
Au 12.4649373416513 9.608637505158754 9.539598953280505
Au 8.769081750182192 12.93259560014247 8.849758120176437
Au 13.225354021238287 11.998168960964769 13.784603039547683
Au 14.305608293374332 13.53027211350044 8.824644619900416
Au 10.349245578324014 11.057692912223557 7.666889853145462
Au 10.703474461558125 11.420264782466395 10.636242362388577
Au 9.758071360973831 13.156531652989235 16.02358674469705
Au 7.596530391216092 12.052693916165019 14.385361383678875
Au 15.086028793744495 8.41417064826186 10.15753520000875
Au 14.218990428436848 14.071239742915624 12.159612798839385
Au 16.864568688354947 12.768963944947597 13.272112468820223
Au 13.114274306579361 16.134045542526458 14.421316204653644
Au 8.173783477151986 10.240326898488153 12.26579897970747
Au 14.053560359886289 16.985521356780485 12.012214577730134
Au 7.829945426423683 14.785186990621813 14.959668124911424
Au 12.727057399310736 15.501377597451219 10.039673385967125
Au 16.422543716302613 15.527570810502871 12.864341369462608
Au 12.429249032810715 13.930229367159088 15.921342616123363
Au 7.284248293642796 14.804963314923253 10.263955268682649
Au 13.165170721021221 11.480005745066101 7.445958532631427
Au 11.738022144958112 11.250090455275258 16.342831696416493
Au 11.333521465593842 16.583822915831274 12.263862015143895
Au 14.740387213153554 8.40257398832223 12.873649760065792
Au 10.011532171764125 8.27392913219487 11.171695977198834
Au 15.599855875829789 11.016702969111144 8.977875155098435
Au 10.01303616381146 15.178006310896228 10.142850722922729
Au 8.690732333346984 15.885445946873295 12.566578604521002
Au 10.392606401338584 11.530002213936488 13.649602387018017
Au 12.172948924131575 9.715945742603974 12.379111972526315
Au 14.57944511913514 9.003077259304193 7.4982628410363255
Au 11.148502472262791 8.505085560695118 16.23011982212271
Au 10.130299077863254 8.246341884926718 8.491921166998207
Au 12.78856163032148 7.078181246697329 8.514427615276494
Au 12.24627270153066 7.372349802531733 13.885849410985708
Au 12.761356858112608 7.150165088493952 11.223461874539218
Au 11.96252270162695 9.097218571044046 6.603203050013249
Au 6.389929318601974 13.960953176244383 12.755756626580508
