54
Energy = -137.49613817 eV
Au 14.493010747648956 9.919913512745689 18.235964162883175
Au 14.623903809854347 21.180594591689726 14.177576864303552
Au 18.4143071610221 7.134602919771228 16.015885236579233
Au 18.375335404803806 17.38948432444864 14.947792326851031
Au 14.842822542106067 10.983621814043014 15.684679802333081
Au 17.082610579634885 15.090044140146624 10.924894017350127
Au 21.4173104539804 16.47217702379425 11.46938832326814
Au 15.365977041653736 13.74044191734929 9.394842462263606
Au 16.33476023375461 8.813326168600458 16.499126563142873
Au 11.2629489156102 18.268559388016506 16.50429740021217
Au 9.240409798067306 10.805998160403249 11.999884715547642
Au 19.581214410496962 15.282426861783861 9.937723038314585
Au 13.927269718656106 10.335817515487864 13.192388605530878
Au 18.893971569586835 16.421842916883772 12.380719318379033
Au 13.008260714157858 14.501205998477822 18.80435000123748
Au 11.74432967097902 9.987382205740488 17.588055386735597
Au 12.776742981900997 11.91682342418697 19.495332103438166
Au 11.535886699835448 17.206466450302237 8.717179019483353
Au 20.226577885477433 14.348585137177082 17.998316427760095
Au 13.65580315728251 16.413658422193592 13.922260934996526
Au 10.474030418338408 15.442226388723364 10.452755191758884
Au 18.117335108971567 16.081130957156205 17.432427427531806
Au 12.588352772402851 9.289396729532854 20.07121986663987
Au 9.019569734357082 17.461185348053498 15.177792659573269
Au 12.544978295364755 12.527943923990184 16.752239263637893
Au 11.244233164633128 18.056008154553236 13.734333377098427
Au 14.64703784321232 14.561155593971215 11.958078403596835
Au 12.62827139958139 22.950469315195807 14.359200833510139
Au 16.37017093663036 16.286122058475527 13.332993816905203
Au 17.65301166775982 13.594626661867274 18.518120698596288
Au 11.657802330027097 11.73385401456845 12.571528707488199
Au 12.009884989201655 14.557680499556298 12.5990122460672
Au 13.365557194307895 16.953442043030545 17.6862181853409
Au 17.070901129002603 10.934483577702219 17.979323809746433
Au 15.101552142698269 12.787843022634599 17.90565386977154
Au 15.624687712514593 15.47698884204071 18.42921278612879
Au 12.364836139922277 17.26269499830709 11.375625620473086
Au 9.490496442294733 13.428415919749726 11.988434616985039
Au 13.704079644418835 19.02904523997975 12.867201404168412
Au 9.57685518543025 15.92657115423041 13.047628294012803
Au 14.139004590352243 14.727187127073313 16.035406184104076
Au 13.690284108694268 12.946292616441232 14.091600335909877
Au 10.721697825521645 18.86660868952721 6.989851227090282
Au 20.58409089217632 16.403342298837053 16.32791701945255
Au 16.225098813561317 19.030428483819616 14.192638811772124
Au 19.669496714887128 11.739692800110058 18.238244193487773
Au 13.864851220803288 18.794986227001708 15.7351185787943
Au 19.105567765081403 9.20674521117483 17.516875657669445
Au 11.78237320276848 10.543054988549326 15.032937175094451
Au 15.901392363925684 16.9638799229931 16.09082277608574
Au 13.177127776747048 15.253823697808386 9.654271626087912
Au 16.04321254014009 6.7688207840469445 14.843985423851416
Au 20.943897724461404 17.478480217150732 13.907424932022801
Au 11.894406507799507 20.521999393403796 15.012848063434378
