54
Energy = -146.62530652 eV
Au 9.88733390618167 11.180869252393007 14.988495440113246
Au 10.5804379065014 8.775755234045253 10.080266777072868
Au 9.94026196134175 12.793471179655878 17.203685917063194
Au 9.97477611631549 9.722609971372934 12.619175011963385
Au 11.496596525478521 8.954287891610385 14.83616585164805
Au 11.855223037453886 7.645498871093981 12.279899836695
Au 8.396934149944958 12.120166620228465 12.866475454088022
Au 11.828859927009178 10.724056002726293 16.963550160497096
Au 8.749796546274432 10.86698405295336 10.38032580968404
Au 12.456358981992144 13.305919460837513 18.05976263071377
Au 8.888835459184852 13.8996552051564 14.967065295279667
Au 11.788654920394821 8.436861053082158 7.573036780341592
Au 13.504949180789271 7.137019802201944 14.368534759586614
Au 13.953062442609586 9.182848028069621 16.158582247380416
Au 11.289916207067504 12.27001649086951 12.694882643669537
Au 7.2222944117273915 13.13307806994115 10.619508336075935
Au 10.200642300546885 10.601069045364886 7.9858473568925765
Au 14.497823971406268 11.49218982626339 17.47473758752167
Au 13.08718587158708 10.795854886601324 8.329498423848234
Au 8.519960873182816 15.377301030464412 9.688563572179179
Au 11.167640481221452 15.118956357234566 16.23822387188411
Au 15.054937859985873 13.890213062324008 18.686440044384394
Au 8.834618098095286 12.932441029643439 8.374059906116127
Au 12.752939037003191 10.18600988740419 11.614374766155017
Au 8.016495539561625 14.901493516454387 12.562436222121168
Au 13.384409681780806 8.172072234381904 9.726967465456068
Au 11.20014249157216 12.456129391506574 9.856049407345484
Au 14.774838652669947 8.093520900158625 12.07250970873808
Au 10.728086939548618 14.70102713921888 11.399266936054396
Au 14.328537379191504 11.755768699491377 13.39376315045699
Au 10.838670309987412 14.791477451974682 8.19363809623548
Au 10.197509218090437 16.157767139477418 13.942985039641332
Au 12.564451527583143 12.81407514685298 15.170930346233115
Au 15.370475795191235 10.065831459872904 10.215112417091728
Au 9.152254333260501 17.253828881205777 11.677151724412333
Au 16.00890613103613 8.279442379925724 14.502484219932349
Au 13.945817732381622 15.197007147568756 16.528380432039658
Au 13.274807283152528 13.60473169620297 8.089651893584666
Au 16.17295573138614 10.847133280300882 15.405131491479798
Au 13.12081789197647 14.282610938357703 12.801575849737926
Au 13.815019425931421 12.547000807499389 10.711993600021927
Au 16.192527568792187 13.506361776307173 16.234916881041816
Au 10.654354400501365 17.25766783756737 9.391350181841545
Au 12.951427861152563 16.50270962841764 14.359999876852118
Au 13.090031874701006 16.037407816393877 9.432694584538634
Au 16.61900687769769 10.253001146284317 12.680204458713074
Au 11.990751674585745 17.208302453851434 11.851336905041654
Au 17.022080264085215 12.89901394589302 13.713716865755769
Au 15.512938407613067 15.290358725682763 14.23445353692982
Au 15.58481263758157 12.18076030381314 8.46164803660967
Au 15.452854228098715 14.715414328989354 9.702203898758164
Au 17.034746902368934 15.02597524958536 11.944014202526681
Au 14.610198341787573 16.39803013183057 11.807842799888599
Au 16.71218089608632 12.441430760714418 10.99515047427992
