52
Energy = -141.04560151 eV
Au 14.394547342594773 16.29930215318726 12.206443487128524
Au 13.386309181562762 17.194518840747 9.798309095188872
Au 12.122869080139276 17.99496220216055 12.080819669888111
Au 15.177951345726363 15.082937620849256 9.796742555654074
Au 14.840230640383144 14.807232474351878 14.468608216929702
Au 16.32058154207923 14.202016844507622 12.18527803594546
Au 12.63322031305011 16.6277416795095 14.393630708111878
Au 15.121725502250909 13.140879632402072 16.741715580426114
Au 13.552351826110781 13.50897762852774 12.129057433049919
Au 16.918519037805837 13.00993294522544 9.684350226664144
Au 17.633827009158615 11.753742600466955 12.076655673153512
Au 16.371444515161212 12.42831553240316 14.398272514727735
Au 12.911387873617782 14.844706195892284 16.4570312161345
Au 12.837340114336941 15.015013577552534 8.279038916358473
Au 10.833768523628462 16.31781727450539 10.268894448069295
Au 14.776938551316169 13.102066233995538 7.791892813937716
Au 13.186931586084699 12.349046567106612 14.711798032033666
Au 14.98398490033988 11.369350776832071 11.042892975755159
Au 12.70467344471001 12.170063853591587 17.583276544342933
Au 10.014544148329483 16.531910236355802 13.004946818995366
Au 16.99111647204592 9.452110700785225 10.713545863197945
Au 10.804562258494025 14.14802115958803 17.992127370591227
Au 14.97216729078347 10.489461481564673 15.86113370095727
Au 16.373516177373297 9.752994417145175 13.569881012944297
Au 16.078224255640222 10.724661466095998 8.380228457515663
Au 10.552078565650039 11.48910597458659 14.099560430423717
Au 12.8165961439342 12.43117724326319 9.666109013766327
Au 14.450841878053529 8.811124246422871 9.574979840741596
Au 13.41243124734083 10.604411479970507 7.602932630492562
Au 15.293956004191601 7.737879164516894 12.021561515404795
Au 8.881045998351627 14.628106403792337 11.24371116899405
Au 10.09822214542875 11.627208539791921 16.8823285750378
Au 10.292687316397146 15.843389938626052 15.765949939158864
Au 11.337716295588699 14.161657328600644 13.776631405481472
Au 8.457751376422543 13.93422898239422 16.67432430906524
Au 10.437526214347615 13.976909546008455 8.966504324296439
Au 13.818576551541756 8.697476804844868 14.117288086213733
Au 12.669832042708608 10.751717270736785 12.35049849776136
Au 7.913888272660821 11.81211895410187 15.098624250388776
Au 8.398450820949089 14.496664734595315 14.006068163858913
Au 12.14775138509079 9.933820623521378 16.024167353214402
Au 10.807716739535962 11.389634247517513 8.041809084301518
Au 11.74784657373426 8.894762092893044 9.074638738939512
Au 12.62008456942528 8.024866715956387 11.528589575531875
Au 10.787327954346956 12.613183568085681 11.524241009192494
Au 7.836801503437659 12.325919903223676 12.386059136886024
Au 8.501484112870171 9.6788795615896 13.493479559151531
Au 11.074574497394055 8.702628736730789 13.752653046024822
Au 8.622863440166803 12.09974013482367 9.721112052691977
Au 9.931726714167931 8.57198206591633 11.282429685604784
Au 9.07905145091508 9.424166142128831 8.829962047213778
Au 7.494103933958038 9.954457225374984 10.982036855891769
