54
Energy = -141.0551582 eV
Au 19.027545249906446 12.079170138250028 12.683060207780267
Au 18.99253145225204 12.337911685155863 7.374471231663246
Au 14.414778697813114 10.19872441848896 10.209483897896568
Au 7.641334022460001 19.024387057620398 15.356866536341489
Au 13.949239931964307 14.734081091790598 13.466717607292768
Au 14.424591138557027 17.134640037023615 15.063878797820884
Au 10.934605458686269 16.28857535036653 12.839834394834286
Au 12.564677616600019 18.469194247408524 13.5086203175763
Au 14.392104478143883 11.250768982239787 7.607111583983834
Au 13.410378334859546 15.522999907894937 17.14990455497752
Au 10.726910857098483 12.83334472174782 9.683445238064383
Au 12.612890262109087 10.70771784710157 16.87508716634585
Au 17.235304075558492 17.02135633003382 11.04927810636358
Au 6.819453887893078 14.754090711257467 10.747754471596558
Au 17.21077623260302 12.421069611130577 16.717582784988096
Au 10.535764125213612 15.079547372032174 15.326377117301108
Au 11.978683004205642 10.851628235857609 14.249437605256658
Au 16.942258516340395 11.015846681635917 14.38913735217678
Au 9.395077061570307 14.516033191760878 11.421802124565145
Au 14.379099127922474 12.980750623819333 10.014080006537109
Au 16.696838849622843 12.090786250328868 8.822011115428879
Au 12.187608569294513 13.350277665855309 18.411008686627127
Au 9.431811342240232 11.052087339642751 8.082371714449286
Au 15.006050839283136 15.474914935334102 10.92402793265064
Au 16.384038073708414 11.288297480863951 19.03711657140071
Au 11.869004175584967 17.474487016334336 16.059610679328863
Au 17.526377263301786 14.297000958786937 11.554436596563303
Au 16.547349742191646 11.672464426138852 11.50457553945607
Au 12.798150889459585 17.174146370350634 11.00571604176746
Au 19.084325385771173 12.604023847078086 10.031569610885414
Au 15.026039935414047 17.98599134655279 12.437046283307357
Au 9.988608800881149 18.51422709243814 14.225270450726626
Au 12.886806914821593 9.064570698448968 12.329723840888681
Au 8.052180291297542 12.897370625795473 9.408456246798478
Au 16.579441513017365 11.802727246340712 6.154780783827098
Au 12.075927926260542 10.670018055877957 8.802533646846705
Au 14.8085332827614 13.149666790448967 17.79284435623537
Au 14.490971366748424 12.054440145378454 13.46509928151082
Au 11.02492913063829 10.9645457958427 19.118776214163688
Au 13.731579774567907 11.056859543016035 19.310126926290465
Au 16.581843492813004 16.03857258199156 13.557977556672595
Au 15.642593938334862 9.375147970441608 12.58184996503253
Au 14.419091915542568 7.270369739584334 13.709618725891007
Au 12.839468077938493 13.228968210892075 15.543823296392866
Au 9.135174037242688 17.218919940481715 16.580181879940366
Au 12.335367454981379 14.488539332363171 11.082455024296012
Au 11.070401057150447 13.361435276140412 13.352350708830414
Au 10.690939871960673 15.603398853985267 18.021861021233644
Au 14.430997335006136 9.70830540155006 15.079513472042732
Au 8.623923504720606 11.236437559015524 20.171394101247543
Au 9.647351258379643 13.502756825445767 19.30002377166821
Au 12.311433799857202 11.616541867597448 11.569029703462093
Au 17.73140341083591 13.684490921108656 14.384781686574144
Au 15.750010550699335 14.799950950017234 15.848682768286293
