50
Energy = -133.48348057 eV
Au 14.455815868141396 10.014617321380255 9.607590517620487
Au 10.63054383378365 7.952992544692223 9.599158096889024
Au 12.804413535995481 8.3860284614476 11.080935769427665
Au 8.556252868584343 8.107753502965164 7.841102300318864
Au 15.127178415675749 9.345239099764918 12.365260597926598
Au 13.129080879437488 10.915365916231744 7.331669467468824
Au 10.332473846114608 8.046761485615557 12.339246570803116
Au 10.809478359975927 9.538848403045163 7.203483083569889
Au 16.108451620696822 11.73082589051665 11.038597998768742
Au 12.644062923762785 8.493823188322192 13.828930522918187
Au 15.342008724801463 12.296675469316773 8.297582683328747
Au 8.093308391411464 8.700007389778587 10.526954878619447
Au 13.128322625906995 13.710950345750312 7.176874425550942
Au 14.857845451263161 9.492952010989708 15.099937858765307
Au 13.169361834040144 11.145561215095006 11.846752415528096
Au 11.486120825633751 10.77594341247422 9.687601093287853
Au 8.036698720128772 9.437458916893647 13.133005578234052
Au 8.659661499556432 10.7480671794366 8.604117036451994
Au 7.920461468270804 11.402120664080906 11.218363685760412
Au 16.593340536718138 11.322625050833137 13.728840548510393
Au 10.18612220216813 9.407409824835964 14.84005530325011
Au 10.461225050725687 11.068000359149721 12.381829546981313
Au 13.39000441719159 13.193238799371297 10.063192611088866
Au 14.621749861949754 9.820428443269199 17.94321138599273
Au 10.63613946164225 12.373978847812507 7.403299514459452
Au 8.887377149197269 13.316763896641165 9.426752413844918
Au 16.543024124870968 11.09846666315543 16.474945575053695
Au 12.61294757958069 11.395436098160749 14.454296107336923
Au 16.119500928902113 14.369963093533515 9.993395889992128
Au 12.352821658987676 9.372919907006878 16.523534424366524
Au 16.335487142017715 13.898070049582003 12.713790478005249
Au 8.651744345531782 11.853684888421801 14.403654586686343
Au 13.374705558629513 13.725226764460277 12.983111412975484
Au 8.409325821384103 13.829501906467234 12.343927645583186
Au 11.107318356794497 14.832708512375 8.662610009162348
Au 11.028186504267651 13.542435520703219 11.351854416312834
Au 10.691845287760087 11.674268308985802 16.453392562257807
Au 13.795737029272372 15.689242574828903 9.01151351697845
Au 10.919060829404922 13.565539584672463 14.398525123158725
Au 15.500529050476104 13.333434759055228 15.379190329231283
Au 13.5336351762816 12.142204609180084 16.978407564504653
Au 14.599519665612291 15.958051073302439 11.665003305737645
Au 9.226760519979695 15.818819282537914 10.465527790858891
Au 15.215072478414806 15.83676887060006 14.332857383960324
Au 8.440216358050636 14.60982675800846 15.008136388892423
Au 11.908801032977196 16.251194475138906 11.080813935994161
Au 13.13087208262328 14.64591440528394 15.903718020911151
Au 9.895323492669872 16.17919795808053 13.103214652904319
Au 12.594936013455174 16.4284289191496 13.730431560642055
Au 10.753433863992415 16.01256265231004 15.778106687838218
