50
Energy = -135.22812877 eV
Au 9.136691001645977 11.86782519504028 15.004667371531683
Au 8.830722520619371 9.523449185902921 13.56390631227133
Au 10.305970910392034 7.974366735255292 11.72114917415923
Au 9.519578628185625 14.280351468707932 13.613578010872645
Au 9.766044669625337 11.920544914553272 7.44522979711086
Au 8.014015932189485 12.253719038388935 9.606247305566145
Au 9.789337308822198 9.305586801767443 16.13293190625484
Au 11.862125951874276 7.469224643181516 9.436409768563205
Au 11.561561934281405 8.622897995394542 14.16516273087923
Au 10.615028792746179 9.261024049147009 7.520685041726833
Au 10.353811709791701 14.049570940531888 16.24868658645293
Au 11.43161376037888 14.026282154264988 7.936321921344786
Au 12.024775624140258 12.258560473000603 14.462522547169042
Au 11.148326745919789 16.185604840388546 14.733574048958562
Au 14.603346201053357 7.747101524473547 9.589944329615768
Au 13.26370907009483 8.775064635157609 7.404592065175436
Au 13.553858659225495 11.512171835461867 11.48981879525619
Au 12.47393731972081 11.403195435447975 7.507198328016792
Au 10.314372449170799 16.232104269809216 9.169454452276035
Au 11.163378732605464 12.1226545595737 9.939034627656335
Au 15.241284534341618 14.712982826441161 10.954516791084757
Au 17.4381617854819 13.795232344882663 12.367327900597408
Au 15.559272214156064 9.455696816227354 11.471279521299977
Au 9.157756006466055 7.686350395324205 9.261245517181385
Au 14.752164493240917 10.484050291792473 8.92912240811625
Au 8.000363851789315 9.94268414643253 8.14950322249315
Au 14.02170602833438 13.14302184008754 9.022122032189195
Au 13.042473624899602 8.214345919404487 11.842721660014735
Au 14.287026676793525 13.550080399465712 13.491618582597237
Au 16.93027383644533 13.36907582259572 15.054929677202072
Au 8.258385025867724 9.732799749328361 10.89400127958029
Au 11.878989533181063 13.69906600554034 12.119752579882523
Au 12.778983195046303 15.43534566508268 9.912425392371253
Au 14.02468682662809 9.814550676735273 13.890571153263943
Au 16.222009179017512 12.143209469965624 10.541340650821422
Au 16.222148474175363 11.372826393509799 13.272495741720448
Au 12.144584736792693 18.348704302706636 13.422643942335965
Au 13.543122040452747 16.207027912729746 12.478098359144898
Au 11.051193895855295 10.72224086246096 12.256682652623148
Au 9.245922516317622 14.326664327899355 10.820485842524507
Au 10.75354297880571 16.379756729006978 11.949275017432008
Au 15.990002127284892 15.728819826447062 13.808153033135927
Au 14.781786300129314 11.746218821721842 15.722647177739697
Au 12.492903710792792 10.190609233538243 16.28205680191697
Au 12.421661280343454 15.62310019341759 17.1390791498226
Au 8.482242590428234 12.104343576205158 12.319702974713636
Au 12.803216867572894 12.880144058423053 17.246515686321835
Au 14.799393005574009 14.562187735541526 16.25494277360665
Au 13.853308502191933 16.908176049033344 15.137437788687727
Au 10.361870805761383 11.621059721320313 17.491935640711635
