50
Energy = -134.60836984 eV
Au 16.50474894202041 13.219365861023554 12.654085237905843
Au 17.16996379231436 10.92389968167775 11.176551911374817
Au 16.822566338213548 10.677524281155877 13.892612907789292
Au 15.385805112072703 15.289199283279261 11.231566533021281
Au 13.637592887648385 12.233987857370803 8.242240160784531
Au 15.604488336658484 12.796875406446249 15.26362541714997
Au 12.825886879896945 9.463972257947827 8.150837503366521
Au 15.095488418845497 10.185262438946218 9.556031394740353
Au 13.401159508021841 14.859775206391861 9.355661257893267
Au 14.806788973684652 15.170094737198285 13.915342411381376
Au 15.358727817815693 9.01668063514653 12.171513556995215
Au 14.134622537377162 11.349587199419915 13.246155370422512
Au 15.736187820508103 12.92342140325217 9.91937771746309
Au 11.522252940772882 11.37604976890761 6.61529368851018
Au 13.758050017396332 7.800870307624554 10.284864330306258
Au 12.860031748897224 15.955333811615166 11.977554733813246
Au 14.744878932618983 9.914520422509252 15.535246304297399
Au 11.191596956079364 13.835539386016272 7.93942839308067
Au 11.103383530525512 11.367579646420312 9.42453820844087
Au 11.327837895961006 7.288152240440344 9.067735752378969
Au 9.979246200233227 9.306610344630394 7.638323545369824
Au 12.51452369783468 10.01559093010199 11.445853015212178
Au 13.623164543149796 14.473589551976092 16.29853516000779
Au 10.811641600474319 15.578768870809318 10.098860648221548
Au 12.535148282865459 13.493629912492157 13.627221396522566
Au 8.977422356056033 12.057945012960214 7.424360970606475
Au 11.258310605987992 13.020291096565233 16.14405227711103
Au 11.50049399433312 7.333449053425185 11.840010639909199
Au 13.145757478379586 12.734207057455453 11.06097430699888
Au 13.116671335237735 8.538088728829706 13.784431462075373
Au 8.59810465377787 14.490946017673606 8.814189078385764
Au 11.92337078045278 15.91311355500357 14.751566362749918
Au 10.255376522453963 16.512163663997 12.69809744023777
Au 11.92180642783153 10.261011595636148 15.647657524200591
Au 8.629060995501268 12.095940538727467 10.392330918532632
Au 9.730675533596106 9.606094983784892 11.089245642964565
Au 8.647513200640248 7.584702459990945 9.346565039674992
Au 13.637045403855227 11.870426083703899 17.063788262551448
Au 7.444993024456139 10.000332975488258 8.654044379939045
Au 10.6575225226548 12.057896850944259 12.25984864199571
Au 6.5245731121982065 12.604269186189075 8.716813356153061
Au 10.304860657671341 8.794824462980898 13.95441807127155
Au 8.752345118592583 7.257670857900167 12.202672758109335
Au 8.64251995675194 14.645064943365526 11.570978975745438
Au 9.70863140661933 14.132052582331752 14.129134500560557
Au 6.685183682144843 8.615938377015425 10.954355525600382
Au 9.484811284368467 11.332518659071628 14.808525363602685
Au 6.0875716472026955 11.244087920954094 11.16937191997158
Au 7.724789190972307 9.784834267100686 13.238846802893574
Au 7.687601847625945 12.516307979806294 13.038302578930692
