52
Energy = -140.82869685 eV
Au 14.384341426368604 15.454632209984158 15.250782240239424
Au 15.823521974478595 14.683084828048631 13.111204345346941
Au 12.218502527978007 17.19027751293768 15.016410800934038
Au 13.019470810687158 16.239372827147182 17.51327761677096
Au 12.656622879245827 16.76359826939671 10.327340080198516
Au 11.505976892745752 17.923479825041067 12.526346922748191
Au 16.505460964956313 11.937280878232555 12.802783717257809
Au 17.294275872058822 13.846161646014375 10.95901104508781
Au 14.005168118358325 16.747063235596258 12.780522357986019
Au 15.011799647400792 15.346761004335194 10.512240706791982
Au 15.1762951903767 12.779197051283719 15.07436982382116
Au 15.531169370891035 12.833608349420043 9.126643253186993
Au 17.596427891553386 11.215125473786195 10.297597780628367
Au 12.114993078640566 14.514801867996612 13.555547555749419
Au 16.513432883398877 9.274989651541183 11.969163704870349
Au 13.8737134098216 12.989333583311327 11.825478526312883
Au 13.33609302142321 14.431360390871623 8.529206403999034
Au 10.87765386077954 15.723851031171218 8.538575140638013
Au 10.950312117281012 15.002250120505305 16.24923602595078
Au 13.334889770924134 13.550809208351142 17.068280920537507
Au 9.760143538341229 16.235273766070872 13.898100996437075
Au 9.735646102959317 16.466921647940392 11.055151732664678
Au 15.478937921135692 10.022140549185506 14.4915448996441
Au 15.319975750260252 10.052498646503413 9.355579717097203
Au 11.541337685093378 14.177151570007913 10.856221811156649
Au 13.849820375752143 10.161767892697172 11.931268255995603
Au 8.076036563062974 14.670924615044283 12.335291602621444
Au 13.858841853281788 8.268869759469982 15.830064101989576
Au 12.737627511015072 11.762447782334885 14.055387538027112
Au 8.842728713149452 14.204849821421973 9.664442052606093
Au 13.788681545659403 10.8993031652666 16.634622724825153
Au 14.845781940167484 7.568795148070812 10.518757019330131
Au 13.339865574465295 11.565219667019393 8.157043321986883
Au 11.76953470921601 11.362220048858209 10.51841423079773
Au 10.996610900889504 12.251894251206902 16.24594286646573
Au 11.215888126296107 9.839732386335974 12.83657061312524
Au 8.990804279651615 13.750753651176847 14.907293226859764
Au 10.235272584644937 12.546849384194447 12.62378058471619
Au 10.912216653617808 12.980244624841758 8.173296987207381
Au 14.504076888296927 7.64190170001005 13.233906198763979
Au 11.865550403154359 7.294018871720638 14.160435043302117
Au 6.987648493740955 12.532060979966657 10.757521806358634
Au 12.83175545277517 8.822481016274619 9.15817749395529
Au 9.218298492091572 10.78234791402571 14.676242741283385
Au 7.290248650502614 12.228678944538494 13.41583201581092
Au 11.436710163845913 9.575771106444005 15.703282403468192
Au 9.026487537685016 11.323680456696312 9.470277110801407
Au 12.240598745894113 7.30553570705842 11.437037544848168
Au 10.919005262417215 10.203330670775065 7.821248887776059
Au 10.195159464596514 8.827622459824209 10.13627703766851
Au 8.38504924085249 10.13361954787308 11.927750576102591
Au 9.62839410275212 7.657405754192216 12.564433236126021
