55
Energy = -149.82398997 eV
Au 10.546962530378666 10.202444620481863 8.372552096255387
Au 14.7791702958487 9.440155942238688 12.095959282589272
Au 12.23053939040888 8.470645436366711 12.726862750605221
Au 11.659207958432818 11.949416554908856 10.467275440047867
Au 10.175854686675075 14.53799224910654 9.790111872890652
Au 12.396100201942048 15.311281677977583 8.182233703354646
Au 11.311211037329002 12.848146914412187 7.831898396225047
Au 8.142265224430524 13.168342465011621 14.392892731398117
Au 13.323320609022165 11.517101774576952 14.855134369618973
Au 12.894109773025523 14.524509031232183 10.881904418102906
Au 15.664752931160482 12.746785433550254 14.017589112275992
Au 14.195533246113289 8.823993359833707 14.7850709100322
Au 8.907930301762947 11.8901979693191 9.792827057772637
Au 10.289256756448845 10.270149946279524 17.49252625699373
Au 8.870323891984182 10.591036103090053 15.158358202092344
Au 18.202295812641864 13.709823990124738 11.79728948324251
Au 15.854960002286731 16.966503223981757 13.943622594158565
Au 16.528641142214124 13.248488799479588 9.672775013017493
Au 10.778320136422938 13.771432988414798 12.50898482787735
Au 8.888407274303347 15.65890853914376 13.493629156934926
Au 10.044262564394522 9.443709721365583 10.93922501080313
Au 13.702165195160438 17.22221895940941 15.549076282012466
Au 13.164760912113007 10.708778718743787 7.7622892013573
Au 18.36710251327142 12.094502475191488 14.04912106897704
Au 15.452839388845556 14.691943191537169 11.978079609349535
Au 17.792959723084984 16.376963065774678 12.091133291765397
Au 12.916508069669463 17.231479797771932 10.12479629414456
Au 13.304856317617372 14.333481181958744 13.873028526250323
Au 11.065198972930043 13.011905318878863 15.149663529036241
Au 17.01172082918512 12.951920724746234 16.424263740932933
Au 16.69054667276492 9.878001370456618 14.037260041730342
Au 8.31914281767972 11.086078132129192 12.458428744617544
Au 11.61648822576839 12.69718790963778 17.877710898989548
Au 9.632660529869968 15.13548052362497 16.178088506665986
Au 11.170773097201037 11.063374125939344 13.146204635211578
Au 15.039293950643984 10.889707409143302 9.71257824465536
Au 8.119276865841599 13.754154549744769 11.619995603339667
Au 14.233909069017221 13.173055285590797 8.146895334340478
Au 17.661649907389485 14.836599636160589 14.393500226624381
Au 9.524972537029743 8.614295185386945 13.454645366128863
Au 15.604740640874335 10.590676769097726 16.446724541131243
Au 11.492047905976062 8.99819553131247 15.372157743940544
Au 13.031363079359052 10.253819534090171 17.362121912810043
Au 15.449264088181344 17.48191954436025 11.188671499358938
Au 13.235715293877563 17.525057090646992 12.858769774497992
Au 10.81752596600834 16.542601056334846 11.773738747354058
Au 14.29894429139529 12.911454493861157 17.312781312585123
Au 11.231832369309238 16.66390452541538 14.570899565495994
Au 15.053758211980217 15.582347361151976 9.207511623765006
Au 12.499981760924442 15.044842779743728 16.684211069115726
Au 12.723847607152905 9.29884664021447 10.137038094693368
Au 16.911426918078345 11.278243224876068 11.667663693408896
Au 13.840275453777899 12.17018396942387 12.070258586966192
Au 15.379754898241984 15.138142005128362 16.057770984450993
Au 8.928417578592622 12.646718597658122 17.033346444047712
