53
Energy = -143.76925199 eV
Au 16.90507245726011 11.26348259497256 11.104909060810954
Au 15.140588352377494 10.519123400775982 9.11946270777633
Au 16.74026597356816 9.468984391038356 13.264408662927318
Au 15.43809684214084 8.58166787257358 11.035332790068152
Au 16.28870322381255 13.951608281168063 11.622055928987571
Au 13.162440808344469 10.15660833662704 7.26505357573248
Au 14.238660926465654 8.264390940654266 13.693800419173924
Au 16.744573891606265 12.163797859380075 13.792366737178776
Au 15.112727133892442 10.371719614233173 15.287329143471476
Au 16.461195088168363 14.834477150735783 14.191710009836727
Au 12.510483765716025 11.263196455344142 9.918390970335642
Au 16.160328570810982 13.0819383199403 9.079486662138061
Au 13.400156013771126 6.772012292872759 11.553635652039672
Au 15.09618068672462 13.104165889621878 15.881521879025428
Au 13.049366133946181 13.30472857420413 11.882691975116694
Au 12.396424693543679 9.438870621876228 15.39893220846342
Au 14.368760965008963 10.94324259971461 12.272272635420613
Au 13.28218749533805 8.319083648299877 9.289188752271853
Au 13.709845653235803 12.848445976921942 7.892612501689752
Au 14.373143086624818 15.70332664886742 12.612734964048732
Au 10.827604312799581 8.928818260812548 8.063716231506133
Au 11.468645036895103 7.801531294707749 13.290142062603902
Au 12.81182367758741 12.093054892385833 14.35447871803491
Au 13.339908656061954 11.41121033308992 17.152987865034785
Au 14.305164308450564 14.981211137226586 9.827492432845322
Au 14.165917618882428 15.674949729573182 15.436208314415682
Au 11.6133488388392 10.43935744944303 12.421341093713192
Au 10.713199470465382 11.624358261527194 16.43821325843608
Au 11.890063614593096 15.180607733176018 13.983044587606154
Au 12.260548501706284 13.955629037688247 16.467348902506924
Au 9.763344966585054 9.749313433895402 14.600808476115338
Au 10.943332570629998 7.452671829624088 10.537754296655269
Au 11.968450073453472 15.866074953908464 11.299439420516455
Au 8.96986367217459 8.523508652800354 12.23746861130366
Au 10.05642376006206 12.420769985056198 13.422924904084281
Au 10.944022845073606 11.708315596636337 7.3312350126180466
Au 11.435308140674458 14.31316341703893 7.7387447802135325
Au 12.356771339468684 16.62096436159212 8.728091665361003
Au 10.48149712977662 13.100244606007651 10.712686190381712
Au 8.53831133237713 8.12269995880849 9.413060767032524
Au 9.819586060132554 10.502648770847731 10.344286010631581
Au 9.552143663678436 15.145318130765395 12.538854206404407
Au 8.129276667116091 11.888826164413516 15.710054759723201
Au 9.657194012434536 14.2824814717731 15.43509249119773
Au 7.445517145251442 10.619790250074956 13.39047451169928
Au 8.486056089824348 10.52059516385222 7.881377869347204
Au 9.80117832468958 15.629396951069426 9.615895660945228
Au 7.01628775275988 9.932323363887656 10.78946354293442
Au 8.883427172806414 13.339701412911733 8.237784632554574
Au 7.506420839823582 13.641550361351113 13.605275262401127
Au 5.969068548888513 12.305627280413805 11.798155134302519
Au 7.718548390347098 14.147121483635923 10.720983256230953
Au 6.63801904701588 12.105138065516988 9.142008030281772
