51
Energy = -137.42267302 eV
Au 13.584867793786453 15.75104354627108 8.735310963720801
Au 13.31627968165091 13.841557082683972 6.649928507165544
Au 11.333010611583703 16.495929866321983 10.06086228134623
Au 16.088837173919696 15.467538889824944 10.151839442760805
Au 8.91553351596182 16.987937822554642 11.514354642178109
Au 15.751509392195135 14.481154168857486 7.600462985923317
Au 11.176871775266141 14.403910655013746 8.202340883780105
Au 9.141262103088588 14.792885777622008 9.967573398380253
Au 13.776684649386755 16.26118322621023 11.462778382611486
Au 12.005198239842114 11.709892266536587 7.785947475257363
Au 14.642115429822141 13.316920223424225 11.205978308187445
Au 9.572484020196244 12.241717659063033 9.025722968429722
Au 15.728929290205798 15.247085721884329 15.603661889892583
Au 11.242784996650085 16.579698530163803 12.821599117098215
Au 14.77981096641293 11.851176451556691 8.034261773188698
Au 16.037534123666852 15.101834585018626 12.907515185181415
Au 16.97736785780715 12.862779652732863 9.406334218233948
Au 10.743902330145369 9.706705459733525 9.342898271707655
Au 8.743785437946903 14.687269337337678 13.063685242785612
Au 10.210122114219079 12.549162982730671 11.719348224235196
Au 12.576255702306751 11.692629929643578 10.522681704680119
Au 7.472703346376795 12.925627523415871 11.012863557513423
Au 13.576750269728945 9.557923349419868 8.893937978455691
Au 12.339546784200571 14.05334435887513 12.554252977345271
Au 13.534852537298459 15.951442344967479 14.212331907396628
Au 15.650303520168524 10.69904709945446 10.48006467082407
Au 10.937933223690283 14.959684285024991 15.050196991951696
Au 17.229857140260542 12.592419787871435 12.09099211309727
Au 8.537438356123046 10.390795006337472 10.982751572773301
Au 12.239902135780378 7.503244950766163 10.08486187744468
Au 10.9770023246867 12.212313852698726 14.347526909223111
Au 13.160036937470169 14.39340225431822 16.52123951375752
Au 13.410447349221863 11.618982688273672 13.208450719861483
Au 16.53700743483713 12.743353176439502 14.68052519676096
Au 8.62275537030431 13.504680972468808 15.589862295073182
Au 15.56335618798941 13.117148694501308 17.277277977531455
Au 9.666028362514272 7.903429220557367 11.160528817773907
Au 7.989919536530815 11.86686292517975 13.513182058195802
Au 11.132737035707253 10.015797971081595 12.537138974204485
Au 14.044017594397538 8.837211032035889 11.716547752861201
Au 10.8171851033235 12.867721241357371 17.086327944333338
Au 14.585256937917057 11.05285008438369 15.77467108309724
Au 15.81818849360615 10.411307041653249 13.2607273091646
Au 11.96266504039037 10.313807146919686 16.53474699542177
Au 8.474633421481645 9.216721167359598 13.603223310611954
Au 9.199129094497389 10.70324806545415 15.894563759271065
Au 11.967703788272729 7.297127268764569 12.838841731609614
Au 13.207333786390477 12.106260532334241 18.146040144954004
Au 13.351420606641195 9.051515649361463 14.425584750313286
Au 9.3328840311994 6.633446163734524 13.585437817657615
Au 10.690489929831607 8.387803033196555 15.18095574376945
