54
Energy = -136.63000017 eV
Au 14.317930958168406 8.688708630006094 16.188598120967864
Au 15.67113902138988 18.522926710048534 18.026236222780657
Au 9.57872940093502 15.072069889553239 11.39004457388678
Au 9.769929428629238 16.416908805909767 13.835262397102492
Au 14.356603411856742 8.309939466467272 11.412778056904928
Au 7.697624534387823 16.699987997982433 12.201662466412682
Au 17.745268136263682 11.636389458512442 11.19265094231104
Au 14.527988021117213 19.51753125542596 13.51277731988491
Au 16.844522458962743 18.20984304539868 12.673083198447541
Au 11.11652915246322 17.845386299258898 15.704991225922868
Au 18.54208108494421 14.299907732664337 9.812730594626379
Au 16.04608530526527 13.181288332409459 9.776758001995361
Au 12.79064274277371 16.00767314809397 14.626213973454247
Au 15.005712283564865 14.838232077997406 18.213077540622418
Au 11.064801871651493 12.98134491422541 20.948806698157696
Au 10.371136673411057 13.481543861187633 18.46021262838023
Au 16.597938389903472 15.769416550923056 13.961207051036265
Au 12.493207446263046 13.32008873150914 14.17088408748392
Au 16.490209738866497 18.835304217653487 15.463336505378399
Au 15.324449554779646 19.09903698088275 20.59335514846204
Au 11.472866657455132 14.320490036251794 9.582595358423976
Au 17.122562105465978 13.752360209931373 16.855105099237548
Au 15.383607640180452 6.977888692041351 17.742867852551818
Au 11.061957942723973 11.473654485734325 9.272249536661267
Au 12.697099464230883 16.380575267140664 17.48148882637953
Au 14.869506970990887 14.23395575930141 15.360215137496393
Au 18.773281193865984 11.641140242887756 16.335403277949094
Au 12.566810377156429 10.368627220665305 11.315613019692298
Au 12.266267345791434 15.22100003924374 12.082615264791635
Au 12.881739794223273 13.38500903776958 17.09668861289529
Au 16.680526671271764 15.947531264508504 11.180508523338595
Au 16.549195266053843 16.394950191246185 16.596185269588865
Au 13.515788688918862 12.489022028926128 9.574057344093184
Au 20.191412166017138 12.768181567639994 11.371369974510557
Au 10.406303249358324 15.144992461154485 16.137449438704994
Au 11.193597159667016 10.868534691611513 13.701025766909053
Au 8.270109438139775 13.533404440641606 16.762699246672096
Au 14.363988557924012 16.90081062381658 12.464361755584065
Au 18.29635476140705 12.392089712361333 18.79239510759112
Au 10.520882359783272 12.308122224098502 15.92297124371843
Au 16.965360394665 20.750116488598817 13.576969541760244
Au 18.120117869461048 14.032988404561486 12.704771292177554
Au 18.76403031569587 22.531219827000335 13.737182963676412
Au 13.53686813159399 9.327079248157913 13.735619612225676
Au 20.04864283898229 9.704839488824854 15.068706690885431
Au 19.12583081276392 11.727241033829188 13.666184658321532
Au 14.11989268332736 15.284651767635522 10.027719064458104
Au 14.126457233346816 16.92269264432255 19.777405061933944
Au 13.784978181828725 18.38620288502625 15.903024274636275
Au 10.977602598343692 12.699162770122904 11.773446725196695
Au 16.439139035417156 15.54623743818945 8.507082761491102
Au 12.986277120973133 10.955201909600055 15.83588693553902
Au 15.334887097811185 10.668430349176695 10.648881322815367
Au 12.649214811278423 14.643753993584266 19.660273235587013
