51
Energy = -136.70291242 eV
Au 17.43861126371496 10.20748722632115 11.061992896256312
Au 17.065014655149795 12.93196069281942 10.7163469635094
Au 16.920638388176414 11.78290265835802 13.286537605427535
Au 16.330275460597758 9.012415367455613 13.257978677944863
Au 15.256726666475396 7.757532043612735 15.392775045771707
Au 15.786455357879463 10.481822202016547 15.696926548060834
Au 15.959673121840488 14.458830730517263 12.745910077578673
Au 15.776304666839673 10.545613276361928 8.82243206499768
Au 16.068108284775054 13.181015104827008 8.151740503891224
Au 15.259495061188824 8.546669155081155 10.736205012704078
Au 13.221485096530625 9.50572896661233 9.001219047667256
Au 14.698141792418564 11.48689348398036 11.251491014019784
Au 15.443249548543578 13.13639369107637 15.152150003028634
Au 13.574031066161789 7.98791483877237 13.159135125158773
Au 12.938398420183656 7.1952750682181055 10.489504315853267
Au 13.86917766058415 10.781082333645209 13.759626747607376
Au 12.987230814842823 9.147631358912994 15.920146611482798
Au 14.240994034356383 15.537143455309579 14.74804943696849
Au 13.529188910532985 12.137255738569113 8.09170114015159
Au 10.926681388652536 11.072042507742916 8.577962449023834
Au 13.70194358669579 16.237334650092357 12.085743907392704
Au 13.29637633168477 11.939139310622895 16.322417491408068
Au 14.927987776273133 14.655131834375508 10.1466548014206
Au 12.242657916702017 10.086363325419596 11.672999003771741
Au 13.35009579842731 13.508668649575696 12.980358243312052
Au 12.324768988092591 12.801910553159937 10.537225167242177
Au 10.591711529426261 8.630671439778643 9.84689709987059
Au 10.776784735534898 10.853350539351032 16.36994257455134
Au 10.91192608380174 7.3168304718839785 12.277432137289214
Au 9.85068997054798 11.80325889654472 11.382799384284505
Au 11.931223236219383 16.839573833160042 14.233342868416642
Au 10.749073400348573 9.057715207808101 14.287991606742924
Au 12.379326579046907 15.566450487704394 9.762213339730902
Au 11.249176614237129 13.75603058735384 8.06383573407261
Au 11.90192340142203 14.312756924986916 15.616366210696171
Au 8.883535306555627 9.179250894989083 12.147646921779257
Au 11.25330810789553 11.957633064738175 13.805379550554491
Au 8.718729461416991 12.912349613583492 8.680251670840066
Au 8.400261813869317 10.214557644011743 9.523707363480295
Au 10.660424797867243 14.282168140909507 12.331005448349853
Au 9.42010222553079 13.13278847258656 15.808698640061708
Au 9.530750872580374 18.104836551676073 13.652723827797026
Au 11.004589618028652 17.04224935523728 11.570228944956922
Au 8.64450584465643 10.967489485941497 14.292587045348764
Au 9.595969193782327 15.332354376175626 9.744331644378681
Au 7.327810995208197 14.025138417243094 10.83945197928942
Au 7.127774514091519 11.386985772724193 12.040772723089109
Au 9.485125653102406 15.610336175989763 14.796344408114384
Au 7.890140652251929 13.63374704164029 13.547348173854301
Au 6.26445619870487 11.892713056426487 9.486771513061978
Au 8.377377049779698 16.091350645250134 12.186943094334946
