5
Energy = -9.41476028 eV
Au 8.251889400000104 6.621464999999913 10.522847999999922
Au 6.664370399999948 8.332385000000002 9.233899999999926
Au 9.338980400000006 8.01253199999992 8.592880999999945
Au 10.27298639999995 9.474855999999999 6.634214000000058
Au 7.693358400000112 9.780347000000045 7.237741999999908
