54
Energy = -146.49350492 eV
Au 8.422216514071291 10.359067520783862 13.537868126495509
Au 10.403950783359457 8.516760723756212 12.86503983052879
Au 7.223843319860648 12.823562343863838 14.044475702334989
Au 11.754899447819575 8.79910527057384 10.46853145581725
Au 12.49335341940812 6.77369820807952 12.18940241135137
Au 8.727904640346713 11.632371827742004 16.056068162786442
Au 10.128417008643849 9.278197543642715 15.48073764703931
Au 9.34664803390365 10.215266191327293 10.886345586652899
Au 8.714884388075838 12.455308266643407 9.263028260881967
Au 10.449499211011652 10.615250024042028 17.920549183558567
Au 12.224188985849677 7.5556939196789585 14.787477069617717
Au 7.039842231003183 11.795551371567836 11.419416719208629
Au 7.95967948732044 15.283840893699287 13.026435020736656
Au 9.371642659175315 12.924513744117267 12.108474053440817
Au 11.818563186069415 11.536713471303008 11.530954194887396
Au 14.421111631685987 8.002518851934028 10.67090137528681
Au 9.2101324751483 14.805697747146587 7.770385957660456
Au 9.492482234040992 14.165633230870105 15.00555052565426
Au 12.661751420257259 9.33738791607689 16.776724972471182
Au 11.045391671518436 10.834342052976064 8.803682412668739
Au 11.163532862819306 13.081527992687777 16.924456966754757
Au 14.73668557632598 7.699579019774728 13.550699443502149
Au 13.618921928278354 9.790829736609593 8.663970902211418
Au 11.039820930372292 11.77306500097604 14.261332826251003
Au 8.464188434580025 15.163387079692813 10.364336619542943
Au 10.269735883925362 12.505623912138462 6.803770647891769
Au 13.29668074215954 10.063590060305863 14.116910577950827
Au 10.039911661756609 16.79593498121928 11.999012671985927
Au 12.999431877936447 11.617233313977264 18.322011282331996
Au 11.98977699299162 15.27268242075523 15.536876013716514
Au 14.941066566185198 10.889338394692153 16.566311138630212
Au 11.131723046547727 13.882650214577271 10.064240258166903
Au 16.230775170407775 9.889723314232407 14.456827871007084
Au 12.934224274424437 11.928274836524563 7.064335315821887
Au 16.74313309455344 8.773206601838828 12.023806870327055
Au 13.556094203904543 12.710246957451737 13.503939768423294
Au 14.420264147556452 10.76386151073507 11.574412610877872
Au 16.286306359448638 9.859012755795504 9.587392003516365
Au 13.752388849017413 13.660778395979223 10.848595703162571
Au 15.590068892557108 11.45056458511149 7.486581371474986
Au 11.46187359186039 14.487863240486163 12.861124889894079
Au 12.375425440862905 17.870763823624987 10.937172690891204
Au 10.664747382019701 16.616421077405786 9.217766891766901
Au 12.462105242359906 16.956828382358403 13.510284863385039
Au 13.917624528346623 13.473177490973836 16.415991080383673
Au 16.06651284986256 12.71892052717262 14.78115827743836
Au 17.039296588167364 11.522202238843532 12.405299050743048
Au 11.986293897985997 14.623207442483166 7.473367104724158
Au 13.483022525762516 16.068972664575384 9.29038114281831
Au 16.245214078488143 12.634321236850559 9.982391024696653
Au 14.600567685206753 15.221872577350753 14.359416136626747
Au 14.618385704006764 13.892719858646647 8.13597275515752
Au 16.140113367803952 14.12391960589466 12.300910087293557
Au 14.579708425668528 16.320481947877227 11.772594790066366
