52
Energy = -140.11727389 eV
Au 13.832359717250402 9.455199080972351 15.843934383894824
Au 11.433621980608176 8.094506567821844 15.360443340147961
Au 10.434605041014594 8.038151561993477 12.794470931520163
Au 13.393724582658596 7.8829716791969915 13.43615313088093
Au 11.415168307591728 10.622379334148892 16.519937226991097
Au 12.33678027352661 7.145934493477372 11.00416488600521
Au 9.202225708756913 9.582965157117203 14.751417117507659
Au 8.449863650359346 9.927300125176822 12.125830069307673
Au 8.836649527758825 11.47353111299317 16.66188751963278
Au 13.697177287124145 12.240805482663268 16.83679125961786
Au 16.047731012605404 11.003582508337395 16.008466965602874
Au 15.46160038354872 9.76032393434747 13.573777146396804
Au 7.962546450537519 11.999235606554977 13.95292241477483
Au 10.19505717692573 8.73445584408977 10.153478433122835
Au 12.193927776938034 10.403461369974808 13.712506875011357
Au 13.359011810535518 13.135292671514922 14.231392954552913
Au 14.53724071824317 8.843497908252958 11.10928268263064
Au 11.17159451446747 13.388686705112098 16.949277659707867
Au 8.414794208473834 10.755864360895103 9.51152093121335
Au 12.716550921649388 8.844955513011222 8.938907413615395
Au 10.646902481244028 12.615300563221592 14.149438016907112
Au 10.874770243751358 11.286501589125427 11.422880454514129
Au 8.662828083886314 14.037700389087647 15.874562629114994
Au 15.799255866763362 13.72140978929332 15.741052942225808
Au 17.0993108880813 12.015405018038251 13.72511708772767
Au 16.443652245284934 10.934400879056387 11.227035213133366
Au 15.013343803339788 10.467327234775214 8.92430232905889
Au 13.376941744140664 15.068596876565454 16.26149278505931
Au 8.914895352451218 14.694978344219333 13.272647923775427
Au 10.756839893651295 15.714508491741263 15.446785185178095
Au 12.618949740965498 11.909051911304031 9.306776638533925
Au 10.608075389362856 10.418693905153457 7.919696846931605
Au 8.403777723470242 12.799186388121269 11.33956451481303
Au 17.647436745672184 14.696414540921156 13.933765842569363
Au 13.76778218975817 11.668679143272886 11.820669421272248
Au 11.979646451097404 13.88992426933745 11.879653844340698
Au 9.943395530855533 13.034273874134236 9.035124742758619
Au 13.178418325147513 10.571185606956533 6.8410907231646885
Au 14.636756980820149 14.498420980246754 12.275440356145216
Au 17.29941423517149 13.526172541488467 11.416138817648058
Au 15.376438629113535 16.166196798388135 14.495880933431094
Au 12.846293815122776 17.194702523961965 14.556744411661658
Au 9.89502533161615 15.219479902618987 10.711921063779613
Au 12.318795424255246 14.720782462891675 8.995436477628227
Au 10.53057469211821 16.831752816175303 12.945641170271209
Au 15.085951600896378 13.193867839439763 9.768382480730432
Au 11.688903566864377 12.977845759070746 6.906165042490702
Au 16.75985886803439 16.208001981884017 11.773713595044315
Au 14.676731531468146 15.975746818343342 9.87132526363107
Au 12.186238213062868 16.830321148908524 10.708943559128226
Au 14.478867586667885 17.577419359646164 12.249417414671722
Au 12.17017316041263 18.948798160217947 12.497626461770606
