54
Energy = -147.24194032 eV
Au 16.428188069568716 12.1611435051285 8.74612218251121
Au 14.969015370340458 14.523852359352183 8.954416665880954
Au 15.1657911256016 15.97584457031154 11.305671420965593
Au 15.996865239322554 13.297327767232314 11.219661802961307
Au 16.134661099195274 11.819938954025742 13.510372078341678
Au 15.55406684433259 9.121247847003202 13.229825898011223
Au 15.485638607846232 14.488093198057458 13.707150340351022
Au 14.927979016230314 9.898051865398097 8.5026375247237
Au 16.17996857660901 10.514984967442812 10.936591927382302
Au 15.849370756444507 10.39281584644564 15.779980900174431
Au 14.20813397472565 12.429026073431023 7.2101839006083335
Au 13.447949261432669 15.441756100688032 15.431519511261913
Au 12.889027293377746 16.328400826002543 9.56497548903981
Au 14.95377107454481 17.140052978643414 13.847066630192954
Au 10.990695563432665 15.508233251242018 16.58725643682652
Au 14.64983928688011 12.850176563178 15.773231232338855
Au 13.106328604879838 14.016154754086088 11.223278856719219
Au 14.737370281310488 8.16279789805655 10.703976068229702
Au 11.503079950163157 11.797587161640333 10.422095500637411
Au 13.736888008351881 11.353407928814653 12.047703707291602
Au 14.335345230743057 8.145297594669449 15.52469872067987
Au 13.550006773369768 7.202511480099593 13.10603100723577
Au 12.758124976277864 10.16525801360712 6.802489421611424
Au 12.865963400004887 17.289755175079318 12.15857226567603
Au 12.791980478356079 14.79058484471389 7.2966732823028
Au 13.113977683277431 10.494598504848392 16.35036180647343
Au 10.519209118202953 16.62924955283398 10.964046642498554
Au 12.605619333225901 13.314119202302978 13.879663600362663
Au 10.658503582667736 14.62742211743446 9.10247511301929
Au 12.104362215538211 9.234271665150619 11.401436634494637
Au 11.043422916470416 16.39605598195601 13.950936362889598
Au 12.016585775392723 12.994093569619961 16.62934353595388
Au 11.423512906279747 12.420719493245802 7.64309453208251
Au 12.561134853366783 6.395615612052346 10.69391979724934
Au 11.732040328721105 8.522293796674267 14.883851032198036
Au 10.50270649702132 13.911886981515753 12.29805109528608
Au 8.616450777758299 15.946624321073678 15.348152630327492
Au 12.710848593689992 8.221894538336095 8.681935774513615
Au 10.464818250807022 9.962719202432561 8.408760808101025
Au 10.432524014044224 10.807114785369741 15.755334100985563
Au 8.49851302416749 16.6133014230591 12.71649219019829
Au 8.382434465250588 14.664808949211492 10.712557717164481
Au 10.760931046609077 7.017838437420413 12.730261621882594
Au 9.204202207006757 8.957621192899943 13.954772133187724
Au 9.05955236970862 12.314514250571808 9.216195875218999
Au 11.019062457084926 11.120689907806101 13.079587820374801
Au 10.198583620278686 7.674997132775705 9.892637459842694
Au 9.383059716387375 13.360894762687334 15.753768652718962
Au 8.333661287063517 9.814971640248038 10.153928722926445
Au 8.178086624639253 11.487075053150999 14.181237236639763
Au 7.774847748693373 14.061687842437568 13.462971583746398
Au 8.237872794999767 7.504294986153574 11.768958166633423
Au 7.506389597184063 12.16477488230887 11.479392110301005
Au 6.896554934181294 9.73195723681328 12.535704612473877
