54
Energy = -134.86776821 eV
Au 7.936155193484862 15.775905438155077 12.655127859283976
Au 14.025214135524992 9.786728872748537 15.460256259355168
Au 19.45883425684877 11.448773704461583 17.154324839470718
Au 11.777215952894212 10.155525893544707 13.709982721259
Au 10.454386160238416 14.297950504412952 19.015893928460148
Au 9.35569075529203 11.310247002396464 15.491835545484596
Au 18.45452949001525 18.218485277393896 18.016536022585054
Au 14.474227875075437 12.811911929721463 10.800324538302078
Au 12.017245230584438 11.74975416252104 11.506797588118916
Au 18.057017317313285 19.234155464139686 15.590399775680739
Au 10.836377602990531 20.02835745564513 13.864904950518099
Au 9.84232599019631 11.434691529289507 9.910303100070108
Au 9.417749308970395 15.895455736738702 14.918912023700656
Au 17.70341738822697 18.132130223682363 10.88256731238385
Au 12.571117040691789 12.622371895734883 8.732470966850954
Au 11.900215150269979 16.22263365107798 12.783043249650863
Au 16.61748859995724 11.808868888768542 12.131141378586427
Au 8.49070461924134 13.428140828865521 14.051854745613982
Au 9.92470129282572 16.035961552108166 10.75605475622198
Au 8.656726052167661 13.527457939838413 11.310204672812057
Au 15.16136961457233 13.218180104038243 8.206850723751458
Au 18.989975634499615 16.608659550279743 16.04182651933089
Au 10.085960822107788 14.065985517603842 8.932748533706505
Au 10.502950339973031 14.396604528002085 21.550508417609795
Au 10.83778291556574 16.263325294758825 17.285862796089024
Au 14.257553494213099 11.274604411231266 13.216739271620181
Au 13.191917741177454 13.797591575288731 13.139724765650161
Au 16.77991682005329 22.370574436223066 12.32088199198493
Au 18.362623984891158 15.593833623424844 11.459429797823582
Au 10.425889023234111 11.849035425959457 7.322011512559672
Au 17.014356628242034 13.767086109311775 10.08543845051486
Au 12.280088088616141 14.606550836235739 10.644814685153495
Au 9.439603883832582 11.170794538727527 12.574711699767464
Au 19.014921504315357 13.006755754772739 11.962772078467728
Au 19.28649335373427 14.922825599819403 13.990779138453805
Au 18.48209840957769 17.44592806623699 13.466916822489019
Au 19.546370712788526 14.029293323662317 16.602082840423407
Au 19.184512091063237 8.95628646972801 17.976474748356107
Au 12.310704916975682 15.077555105465398 15.304405569971287
Au 18.221565339092535 7.794552934197146 13.342483469547501
Au 18.73142308932267 9.400123165999378 15.427052114322525
Au 16.30225045659912 9.642792585958007 13.995776085092524
Au 11.456376463589418 17.783251517538194 15.101855830987917
Au 17.561476611134335 19.87466990026654 12.844610550042404
Au 9.688472608042323 17.907356526650997 12.75691521168146
Au 18.874625447206732 10.361843722221257 12.783171302339861
Au 11.504535936992037 9.70558924273076 16.412446280809004
Au 9.42429216486049 8.903979960327037 14.208395927754946
Au 8.937385605959424 8.915581373658068 16.859276216843348
Au 7.478248206704398 8.159830504411147 18.78789846178798
Au 17.204231444980536 21.623665143187832 14.828440612725334
Au 12.495581691824903 12.306800857496581 15.475428059899237
Au 10.144467724473424 13.650525092436714 16.414770094589347
Au 19.485546415932887 12.259367849862914 14.570471782400135
