55
Energy = -149.20851551 eV
Au 9.241444324469294 11.118894496456162 16.004231771226156
Au 15.611116308417914 13.745526431932698 11.961195206462113
Au 14.389090554106497 9.500682147507588 15.372957837919058
Au 11.075772652941387 11.511287455926082 9.715074861750555
Au 15.606529051892458 14.194676527826543 14.785543518426234
Au 14.310939274836624 14.608220069833738 7.754944382919612
Au 10.993174928219261 11.453307115801131 13.746379094991841
Au 8.760081219756172 11.831059046836724 11.462437633817611
Au 13.25606597181245 14.359964763920418 10.486279943432786
Au 13.865983203053334 11.288819421413562 17.465852430667486
Au 11.170711007241424 12.300771635033424 17.538332170839688
Au 13.251440750704589 14.796265073584657 13.30423578852313
Au 10.635145802611868 15.952412927087039 10.296341508186806
Au 8.553383053145188 14.872119751098598 11.960124083671419
Au 13.446393369130291 15.01299677422813 16.327349887537306
Au 10.59889501584877 16.696320086102354 12.954151737167996
Au 13.699304955160724 11.96856396930201 8.910501633284499
Au 18.09714839044274 12.667930619425206 10.964837821702748
Au 15.7234780564375 10.87137264189064 10.403045824301001
Au 13.36640915862872 12.04838712978524 12.145764572204481
Au 18.83863174396326 13.713064855008414 13.36424968910711
Au 15.716453557498635 11.611531980462862 13.73031629636161
Au 13.319790139251687 12.506848095967399 14.976167407190479
Au 9.283831964432435 13.653553963497613 9.53389764281924
Au 16.505720094896752 11.149751680090729 16.47447086827199
Au 12.831689177409189 16.665080624494113 8.79969357575757
Au 8.892693305767136 13.77231544550399 16.69098482463063
Au 15.424281124162217 16.106026878675856 10.04329771015724
Au 13.003205371052397 17.0863105986306 11.494602614534486
Au 11.083836914407257 15.129838798586228 17.769092775730122
Au 15.485566806693349 16.800160992440667 12.757919225430996
Au 13.017169936969813 17.51803448674635 14.181565697212747
Au 13.230820232287872 13.633345585142607 18.79204337511272
Au 10.501482813451606 9.616379974808503 11.642071523384157
Au 17.710124693295104 10.27171544850658 12.192079465909123
Au 17.998149952581393 13.625078739676225 16.037620407724262
Au 11.78429231415357 10.020544027603274 16.013903921059523
Au 18.6068298869061 11.313437351323472 14.620145398434024
Au 15.679190460369666 13.53555206762978 17.569772273656266
Au 11.6649873356769 13.894881756172438 8.235448271007659
Au 17.692109578909506 15.463361715740028 11.530483851046668
Au 8.58980544258233 15.60295841874529 14.615142942393886
Au 11.002901628083867 13.577310792846733 11.983266723640993
Au 8.531736380521602 10.101892099677869 13.572089923593662
Au 10.714953502284423 16.931623031613885 15.69939300111079
Au 11.013746610788303 14.09910323589359 14.881676611982611
Au 8.24126244560544 12.899246093952291 14.0274376474372
Au 13.0502423756875 17.644856319660313 16.948098854036832
Au 15.115532224007154 9.092563916100566 12.517881310388566
Au 13.112901597782738 9.75619518122289 10.642459391272535
Au 15.396403045711146 16.98437300103267 15.552010464120727
Au 16.968698612808872 9.079187525734355 14.613026288343287
Au 12.511703588132718 9.044774045656924 13.416566711329363
Au 17.660780501244524 15.985793000602452 14.370049242999562
Au 16.194088771060667 13.341851364856511 9.17961354307429
