5
Energy = -8.6102053 eV
Au 9.358058544022365 8.882599792870257 10.776096657345127
Au 11.0431254888672 6.974629800956501 10.793974769157714
Au 8.86321910282974 9.768024363589394 8.326100553265174
Au 7.638070446164686 10.81287860745971 10.39916583621661
Au 9.214496561747374 9.725257260787679 5.8481488527169105
