52
Energy = -139.42221409 eV
Au 17.525376840087187 14.808368521603393 12.765489694718067
Au 14.352781714396354 7.894151188033192 15.687855698601139
Au 16.167531826745634 14.880110099492391 15.31684186676832
Au 15.429553007046279 10.167771704025824 14.679435760444655
Au 14.80541566919543 12.584731085035623 16.103605066796625
Au 16.587596506931884 12.460586866892992 13.7879662844785
Au 14.63075841360014 8.022436196052356 12.87345128159944
Au 11.502948464309553 8.095738823469597 16.3788677030931
Au 13.129282385936284 10.35463267137445 16.377759848725344
Au 11.896362399552162 12.796760409208954 16.286950806674
Au 16.45327278566303 17.194120822472602 13.464488832391682
Au 15.651139732445111 10.516877403846408 11.93326513322818
Au 13.492053399440294 15.056668562668126 16.21791956574332
Au 13.836257121357859 8.935808799803324 10.419657093689818
Au 16.243788442184176 13.160162412365516 11.03426117500403
Au 14.539548900678403 14.611740236916939 13.042519894627915
Au 15.659816630017607 16.136600436115685 10.992896759663948
Au 12.474578520665684 9.506535324816923 13.678394873948623
Au 12.432062551072582 6.61632199048214 14.228314809091652
Au 14.819270723394299 17.328989309224212 15.603635454124127
Au 13.548627603038957 12.069254035978481 13.611799702000969
Au 10.256239794318201 10.454762756538143 15.94674381619916
Au 12.976941041709251 13.267367802056247 11.164250235624968
Au 14.616540934891505 14.402370170199209 9.149626860278511
Au 11.12551975504807 8.113684589067681 9.278923006061152
Au 11.872772371813273 7.445997234886833 11.749269830738957
Au 13.831906036821186 17.54625241753896 12.76766788500089
Au 11.786170601084304 10.720440261462427 11.071448936840875
Au 10.01128567248885 8.055745825776295 13.959408698783346
Au 14.663529243288004 11.51219110065711 9.545782434562609
Au 13.5825019605507 12.734276505331149 7.286704459584914
Au 10.715737115431711 11.57550685446203 13.503630056275897
Au 10.188147360910145 13.139567969359955 11.389702274055189
Au 12.56635515034797 10.231472251380998 8.318482007049424
Au 11.815641062242781 14.30762210618683 8.706472619858678
Au 9.266224276784166 13.040351351467718 15.38167984990592
Au 11.860602082303425 14.337403086976856 13.540454778521855
Au 12.904251475281768 16.242779451852385 10.49125983797396
Au 10.739978708575961 15.286612808284584 15.924359857233442
Au 9.425702593825648 8.917200865590205 11.361747207889525
Au 9.696372103551777 10.41338182136623 8.907386784472774
Au 12.20388619306425 17.481546372038213 15.054056023116454
Au 12.691991849307543 10.800036439061783 5.629393439616107
Au 11.13538599018626 17.123788295758363 12.41712486960867
Au 8.066395362125364 11.301514122294531 10.856671737143241
Au 8.312044269925519 10.145233625778872 13.603501867794705
Au 10.803933655026945 12.110091643556963 7.054350261323346
Au 9.202046501932022 13.22158258403615 8.88900293172097
Au 7.859952057766251 12.801135096435678 13.08805021409657
Au 10.072753915346325 15.652505790251341 10.34816678083141
Au 9.129587448396492 15.209785977234509 13.037447949655078
Au 9.511516362879204 17.379057278845682 14.62771136715839
