5
Energy = -8.39730723 eV
Au 9.863854810633693 8.295799787986198 6.889124389053912
Au 9.387093109643047 7.393241236941211 9.376817144409879
Au 7.3675056308234455 9.695319380314459 7.392156249741934
Au 7.543426723091926 7.0218557244679305 7.469443693477346
Au 6.696606217923167 8.395772344726517 9.654920822288013
