53
Energy = -143.66236435 eV
Au 7.805867357814502 12.715237296600721 10.57754046071669
Au 7.646480372448933 8.642143658780679 12.850860912539279
Au 10.49736229386843 16.021491523983354 12.540083442126667
Au 8.707255437057965 8.074676152257467 10.127998553111738
Au 10.138105148422607 10.699072143099707 13.983372332478464
Au 11.329901836368894 13.630392523419006 9.637600549147455
Au 12.266717351525877 11.13344816933647 10.646237951492267
Au 11.433614476745241 12.18185448611842 16.186756771396887
Au 9.387806766920388 8.115072975467688 15.03539610385141
Au 8.509970440411875 10.677395690406158 8.572044381701053
Au 8.846596222165065 13.432380794810687 8.142905050498097
Au 12.61232643866327 16.29934183921331 14.244725924077972
Au 13.208290626824901 16.745679495876917 11.551078440969523
Au 11.28669081181577 7.037374098931448 10.282424728893382
Au 9.716105440957836 6.886553253614717 12.51169627020663
Au 10.982507417315505 17.02052020112338 10.002297162643773
Au 10.661455918407778 11.665117441012622 7.128223377661368
Au 10.58189726194279 14.539266817459083 14.917107669716305
Au 11.718712881965999 9.05160594820906 12.431451804644608
Au 11.893148707687656 9.24670671347704 15.97144377429208
Au 10.88497254646899 9.267955321073675 8.649096722842756
Au 9.58676158962219 10.41968785499246 11.252032980294665
Au 15.432217081600408 10.53109414050345 9.583956083115881
Au 13.43859058800235 6.919677744254843 12.058449732644178
Au 6.819983318510716 10.108741601205537 10.696912655651397
Au 13.142774922955088 10.824753846934023 7.949777186511474
Au 7.31427868893045 11.657351229816973 13.03606953833063
Au 10.669420442092694 15.4629775136574 7.697184366301587
Au 9.031483988822059 15.148902801855987 10.372349673160686
Au 15.353944612429633 8.896934103928894 11.838848210525674
Au 15.308376006386851 14.46871861692544 7.713637894878534
Au 16.84145471508047 11.278380320476334 11.826199695639936
Au 16.771691951931015 12.96028059933189 9.591815735134254
Au 12.805062491561465 11.547518625155641 13.30738947084733
Au 13.441989568436254 8.663646842026514 9.79577860724549
Au 7.344954346189341 10.044456546888195 15.198613927492742
Au 15.550497306233456 12.696805920241149 13.95975458324773
Au 11.78214690943106 6.928308903963017 14.350296936694619
Au 8.380641343942887 14.253449034083651 13.07250411301472
Au 14.0147515790715 12.952711009089827 9.574375429404306
Au 14.030167205734642 8.495455556353077 14.351780870680185
Au 8.638817868928745 12.635623697484187 15.374221522310233
Au 12.693420446308014 13.540089014033134 7.0709571803034725
Au 9.52819806618159 10.352650902900438 16.815984566873766
Au 13.204684189249205 15.896457571455459 8.797642455602814
Au 16.238745373419512 10.061748371861386 14.204612903425627
Au 15.402968400573927 15.39417084311701 10.45348461342413
Au 13.328893770177663 13.809803013365675 15.08402264662441
Au 17.111460393372692 14.005824435479488 12.12531681650577
Au 13.999485789446712 11.023092345507354 15.677411683362035
Au 10.512571616104157 12.858406853674076 12.14576182666001
Au 15.047772832133145 15.391340441686335 13.290383673112917
Au 13.064725217300246 13.966267379146629 11.988614996825047
