54
Energy = -144.81010458 eV
Au 11.184198740827384 8.300802269186567 12.165917342758414
Au 10.456320755368772 7.9280899574374395 14.797318036605898
Au 13.725219321915224 8.978872462025342 11.437234625566775
Au 9.120849621912969 8.329948200125779 10.408251811425062
Au 13.014086066502976 8.730092023396164 14.137977391920725
Au 8.702081142409762 9.203659595000168 13.053608041434916
Au 11.644060097206209 9.828818743034939 16.394972172270755
Au 15.671278872440835 9.445706516997085 13.629966200600943
Au 11.483672495049284 9.568883998325111 9.676646132933836
Au 14.379419991007934 9.927502886905701 16.15833535297511
Au 14.397319664729258 9.770845886670013 8.814711860994338
Au 10.974988082942884 11.352441251671747 12.061264148543911
Au 12.819146979725355 12.044372056033712 17.438109407292874
Au 16.8956927536951 10.976116631966589 15.62746269661053
Au 9.026128378891734 10.117538612490417 15.762555500008876
Au 15.582213325386405 11.77433339421991 17.872703441399604
Au 16.087606218801174 10.224833885721697 10.924066408315968
Au 13.081639374996184 11.795221044866778 10.294005445917719
Au 10.30596539550367 12.28091528569395 9.16437649894716
Au 17.165541144377997 11.757705986620183 13.050398763694064
Au 8.455024045361107 10.92483509226124 10.856399364615687
Au 11.748096632990846 12.290518896372406 14.616578411946977
Au 6.734118645691727 10.566322144274979 14.35618439202903
Au 10.117022415538761 12.433235829227314 16.793340115149196
Au 18.232941578364372 11.73307032418784 10.330602637689125
Au 12.363785301465187 11.207057676037087 7.592602735645078
Au 13.786467519091753 11.395022370553805 13.012232465497668
Au 9.010702269720833 12.24097356933602 13.893739641363483
Au 17.030375835245742 13.879821320283732 9.149100349892825
Au 6.6402883831706285 12.425060077358436 12.361554903414984
Au 14.758179408904288 12.78658221432554 15.340796634805468
Au 15.318909501466617 13.112987987957041 11.273692133034741
Au 14.808217902707554 12.546907208773012 8.138580940260628
Au 13.388558403993304 14.124751483960948 13.335123822664658
Au 12.309951927820613 13.91350305255033 7.881849275782951
Au 14.37796314376392 14.294435337186986 17.934986505256845
Au 10.625395801149557 14.20978824714669 12.398830377748967
Au 11.998679147764875 14.618462869129582 16.63029427144432
Au 8.332210004803953 13.642051503489016 10.58492685878759
Au 18.087174444579535 14.043795911681057 11.823234929443574
Au 12.94231621570919 14.533395947745163 10.662303848787518
Au 9.726742738960885 14.733698144020119 15.182190932709746
Au 10.371572426672381 15.096604758382037 9.65554054758311
Au 7.822712035454719 14.763915472656256 13.14095731825684
Au 16.218755876734697 14.625075634965878 13.703313682732992
Au 16.21926247558314 15.904438309801211 11.118077694951156
Au 14.447946618899515 15.707646721683057 15.61252794480794
Au 14.789434141815457 15.305931976296547 8.630294663598278
Au 14.346505898036003 16.77898598152396 13.054368695494194
Au 11.971707487166428 16.42514138508257 14.484742676937895
Au 11.678431427790839 16.840289841004374 11.632783442227868
Au 12.331310637748278 16.612363787932807 8.495340759068485
Au 9.542073865933562 16.836317609399632 13.337587003899433
Au 14.09798561013984 17.41454225303279 10.408286084966132
