55
Energy = -150.47844457 eV
Au 8.932602283765604 8.62749609499511 6.73918973299125
Au 13.178071819382552 7.361022495754721 10.229201099217587
Au 10.514694796485749 6.95014433747483 10.966323180805695
Au 9.97109616494158 10.632786959399889 8.734323282115264
Au 8.460161365920689 13.138541061373697 8.295013425751815
Au 10.824521394671041 12.691333914815775 6.753780584673186
Au 8.591009362991562 11.290337071844192 6.172816681687494
Au 6.4645590353614955 11.477523464958619 12.982496635892028
Au 11.898547891855324 10.309725871066544 12.959016477249422
Au 12.011478785110521 12.600844765368558 9.570903414319805
Au 13.850106658850294 11.761494490654808 11.489075705306744
Au 12.404969068066304 7.312633515766824 12.98567304276665
Au 7.158647503214493 10.416091507873826 8.376102155758138
Au 8.8394185163118 8.558577857161906 15.883817486699087
Au 7.330054528328006 8.904131450394665 13.595754277604495
Au 16.391309030450714 11.79282565403021 10.306653275734663
Au 13.972925369421151 15.223314689419059 12.267207459645292
Au 15.773496418804617 10.691456951414954 7.837490752821586
Au 9.403517260096361 12.29664656101876 10.907148183140292
Au 6.991695103114477 14.067752601172298 12.382699930546421
Au 8.389622497331288 8.008891163414619 9.295363755837574
Au 11.909260003484276 15.706740316679497 13.964130886098454
Au 11.352602069385556 9.910213222234027 6.363309763239562
Au 16.010608936021843 10.229969903061827 12.592132770560958
Au 15.10161370470331 13.30553433272303 8.251846281131009
Au 15.926888629693277 14.520527590684582 10.515162301788264
Au 10.729918911079194 14.861804397279064 8.604697149804894
Au 11.62887755842552 13.097114946451846 12.490709777775626
Au 9.419816967513105 11.429873731779725 13.516168301188317
Au 15.319316845481508 11.494286973099214 14.972889562261862
Au 15.03029150413402 7.642478022770789 12.291512544940035
Au 6.680077675615829 9.570949013268862 10.959464831829417
Au 9.998253335822518 11.04558754645555 16.22853953423405
Au 8.044495430862021 13.399906474715019 14.888401794361366
Au 9.572713496552971 9.570309009537471 11.467116327289109
Au 13.581570883890455 9.010082966308026 7.844352299924001
Au 6.631930595043583 12.330887037899815 10.286362988491629
Au 13.441840401664026 11.6191197723812 6.7259113702895315
Au 15.852048096572343 13.134637436782192 12.855708588763584
Au 7.8201737564556 7.0216097802155355 11.726875835396513
Au 14.10739262909838 9.105893076792436 14.412198010751888
Au 9.74931052619215 7.2581213266239235 13.65950348550538
Au 11.510332115431833 8.70010600229102 15.298022079995498
Au 13.419542260846377 15.238244649732847 9.550629529066134
Au 11.31370141646682 15.738166419756064 11.22892353032379
Au 8.701427047348327 14.934638876064211 10.456630400933939
Au 12.648667070962565 11.267888086854768 15.614374773505158
Au 9.39547824233928 15.092793964227772 13.187906016208803
Au 12.928365409534633 14.350204355257961 6.992952457556467
Au 10.858051359490617 13.479554090004443 15.256133796084914
Au 11.090277971554153 7.870006678738503 8.379290969750327
Au 15.331326056322029 9.173064807005131 10.054529995751384
Au 12.236531053317442 9.938726559219553 10.179895376389535
Au 13.667741905984137 13.660900637244097 14.575005612662828
Au 7.3107762782357915 10.850210516485976 15.552385515581648
