55
Energy = -149.87472413 eV
Au 14.948919026761612 9.427964856900658 8.822077842652158
Au 15.982102347503337 13.470484919563804 14.390469473923309
Au 10.89140723239582 11.307433373749202 14.41180740797031
Au 7.89039245342339 13.346077701110643 14.520675779481879
Au 10.327833634809199 10.215948717414165 17.082186255686743
Au 15.247814027600404 12.052294264559745 7.977411184968162
Au 16.311014751141602 10.861344220036505 13.246313068189325
Au 12.46827949380592 11.975995228730415 16.982569819188797
Au 12.0038421145567 14.72882751301784 16.462567704190683
Au 10.206946173373554 10.039403762791173 8.51302593004533
Au 14.528366265863097 16.220862311279447 9.99132321850494
Au 11.563305450166416 16.72115672702892 14.47740644716038
Au 12.067335093966523 15.265519356158382 7.862505238306491
Au 10.25973472809912 6.921920695806152 12.689088976314904
Au 8.227959837653628 9.582195896133502 10.45551485374854
Au 14.870077449752925 11.160177771969833 15.64793752492612
Au 8.452694536951425 14.061486261099228 11.786870925543958
Au 10.60372086936407 9.688939535896415 12.084822343746497
Au 12.953361908400318 13.096161532283897 9.47383725115584
Au 12.462293287391358 8.198934376139151 8.641067218243663
Au 16.24917202719715 13.998464763872795 9.808925921239522
Au 8.15351875517969 8.761716350304638 13.137962601745786
Au 14.541775020223723 13.764421361229452 16.68276364780785
Au 14.165055723307976 15.703942097046411 14.663236906027441
Au 10.191765257140784 16.41519696881965 11.991978328992834
Au 8.286740034995844 10.694225853195666 15.167545548518799
Au 12.828291071613508 10.41866048051209 10.379022895689427
Au 12.72767220983836 7.61536204524247 11.34868930630282
Au 10.114209587357129 14.721174553197416 9.690002839971623
Au 9.000349068445265 12.155808066346703 9.9130740637797
Au 10.676059886491073 12.7057994695161 7.800456483808895
Au 13.170931128119749 10.296651992241754 13.14124720239527
Au 9.770687363628147 12.856716276639865 16.588420889137257
Au 10.160623083605635 7.6860396526140615 10.045347534863318
Au 8.090840542456148 16.01229428738256 13.668387901516311
Au 10.196998565838141 8.420647815629849 15.025245098492622
Au 13.0985158138355 13.05883479730349 14.218620582269445
Au 15.194758602830243 8.899053376563751 11.548706371960533
Au 17.387222914033508 13.114356462276763 12.090958093039289
Au 12.756280274869521 9.360941621038732 15.992156730768858
Au 14.473494022461681 12.592790154990073 11.7401713353943
Au 14.995863360829981 8.663102037477614 14.34984916188745
Au 12.615971674204534 14.723039270965469 11.80346392958334
Au 11.90982162251556 16.95320643151376 10.002982778232374
Au 13.396805148073001 17.23615442393597 12.426108949754244
Au 9.451362693321482 15.514160159684788 15.967979136489587
Au 10.550561635643925 14.104005058323942 13.774256298079381
Au 12.605139220574449 7.361945410859119 14.087299868551979
Au 16.48730958977175 11.148544422138915 10.333432063341045
Au 13.081009774352179 13.115427326901854 6.423796947442739
Au 7.870794894628234 11.450093705095474 12.463014493517624
Au 14.82357746559673 14.82863195070037 7.663897645151528
Au 12.727690147901846 10.665178400447564 7.476151557009969
Au 11.34499695172703 12.312127796573956 11.759925069299983
Au 15.659834184409421 15.351256137748525 12.32854335398887
