55
Energy = -149.11592028 eV
Au 15.929834691845151 11.844995759650722 10.065508167591167
Au 13.046635529751875 15.438280176149783 9.196962889382723
Au 14.50149563176956 10.3861557931746 8.099229270521496
Au 9.838859071016437 15.156869915433 9.398718897002317
Au 8.17395214685728 13.795000568623697 11.195963480280682
Au 11.402505061557548 18.0012428767234 12.724169322461107
Au 11.370941460734608 9.308850198013792 15.895085298715543
Au 14.290048090347197 13.160771936518202 8.287216758389643
Au 15.777746607146327 9.051801983270392 10.171571652794386
Au 12.811982266008696 11.757190340418568 6.393830212546853
Au 9.452012591456267 16.10673761077511 11.987037979088187
Au 7.535969925918073 11.0746410776 10.727277818942671
Au 13.401819058051704 16.95597143824887 14.238364487021103
Au 8.630846074566403 9.921457009603097 8.463004558776989
Au 10.01493604431323 11.488451940175137 6.511312498854456
Au 12.313646538181564 15.316909287405563 12.047529984632876
Au 15.494417326899606 7.976663617489636 14.194291160055487
Au 17.517003225069335 10.375190281207077 11.878847963638178
Au 13.636704017444707 12.784750610545844 12.464180516027778
Au 14.25938410452742 7.3941106428730965 11.773458518596373
Au 16.497319397947084 12.777659695737709 12.738159215487697
Au 12.955164444283891 14.527682763811224 15.481100117071655
Au 6.981561174015623 12.220762193755277 13.179599170456378
Au 16.71700577461348 10.593705849045051 14.65569405422336
Au 11.452127882477491 13.784669136580309 7.604679822173632
Au 9.907008434557559 11.237560030072881 17.154239467580773
Au 8.467984743083557 14.451498711350679 13.990127019681232
Au 11.320809717223105 17.320448293823382 10.11296139181853
Au 12.199972343101551 10.616732489851186 13.47672189645047
Au 10.311649752957889 11.00727602190807 11.415697392488438
Au 14.35734479549427 16.945810339921444 11.445754985569446
Au 9.588680679706709 11.205087821355624 14.09024599552974
Au 7.805336749803416 12.452608230612144 15.808582575430005
Au 8.819349017754297 12.690512226890158 8.757122547704036
Au 10.331779931766118 13.751740980500962 16.085131034242348
Au 15.245431532630755 14.425737555643511 10.677419872069256
Au 12.482513602288174 11.987365422356548 16.474574847830546
Au 10.014379028011248 8.256704273365127 13.539298597021194
Au 12.705915854456954 7.796563402278697 13.997203923773952
Au 10.60534733916479 7.96897645805632 8.809441120801436
Au 11.273598663525096 10.898382692397835 8.825770945587001
Au 12.257102203054593 9.091174909195074 6.929531090057665
Au 11.515650451029233 7.432798535510813 11.40116098871841
Au 11.75986012598024 13.153971154055606 10.369594430385426
Au 15.111928824537639 15.002816730325968 13.515860293189583
Au 7.5224734926004935 9.492653994007375 13.042698924939225
Au 14.906538903350254 12.652870032820745 15.133894556644341
Au 8.446728508974005 9.327183954205907 15.669151929898511
Au 13.112428998298027 10.558722730945476 10.711919907016053
Au 8.940593526481795 8.523364274003784 10.895611052193058
Au 14.086052675286133 9.95583021062564 15.573632817205413
Au 13.339654712973978 8.025674942203835 9.26822181533258
Au 14.847477880435983 10.213162084388895 12.702452160199451
Au 10.948265482557817 13.303574405092021 13.157056129448556
Au 10.716811392114346 16.00526188940601 14.54871397645956
