54
Energy = -145.62112606 eV
Au 6.736547521019458 11.742021087662092 11.397952745715825
Au 8.833952056303447 10.005525835797895 11.755126908208188
Au 11.432617679687969 8.167560616655512 7.3865957365842005
Au 6.959306304731658 13.543617793997369 9.342214468155417
Au 10.14900579184205 9.892627191102333 14.202766677691944
Au 12.808419137458154 8.006080926930847 9.798761574845196
Au 8.2962099877894 11.990733941249564 13.607646412751263
Au 12.526824802734941 8.316465473040038 14.448809912393427
Au 10.193656539876567 9.080077038840631 9.613779659135695
Au 11.095801385019199 8.326941572875139 12.100500713846541
Au 10.431868473198858 10.809731621717985 7.412262732000691
Au 8.357141171069983 11.130952938616007 9.249440408200735
Au 9.053196360021007 13.265201492274432 7.599991095899089
Au 7.541325506617609 14.420120966849947 11.916322391820438
Au 13.499910055856043 6.868053773161946 12.241278697639459
Au 13.176933099933514 10.161632517537063 7.7809413135430985
Au 9.01772568585885 15.337373911050067 9.657678359884148
Au 8.88680464710924 14.633657729092649 14.303361279245431
Au 9.63814768993111 11.926691601085242 15.986934278353933
Au 11.474035049944092 11.177413305736476 11.93612140427023
Au 11.715308434242754 10.064609554098167 16.43618040182897
Au 14.449268829897182 9.277900105974249 16.162719268472955
Au 13.817248599934082 9.622452238230734 12.00348600658665
Au 10.165508254494263 13.546738384496486 11.907618886084975
Au 11.140866206010795 12.695938582617613 9.339319574244517
Au 15.263003759141977 9.522956439589525 9.543031857422493
Au 11.064137620302697 15.121639423302314 7.687616290740538
Au 13.51642885314268 14.075664216099142 8.156287560107605
Au 11.682068071577062 12.557726311232042 17.74247433166896
Au 10.11855082474558 14.584855714226284 16.700702297307686
Au 9.860466295370514 16.294023864244732 12.21628917291738
Au 11.611740291817648 13.0773959188742 14.35837631978742
Au 15.378818109682454 8.226844535044782 13.832277061227037
Au 13.604930783413382 11.704224518263317 10.180536804733464
Au 15.206388891555642 11.938529955709328 7.909843110663048
Au 12.727001267468568 14.136204811886119 11.145173547779683
Au 13.670975323898425 10.68500606963661 18.3333013118388
Au 13.851251521015623 12.299815218530672 13.02021838416333
Au 16.744042747717206 9.790775175160029 11.954223051960739
Au 16.00359911522878 10.887138676539086 14.375832799803097
Au 11.454101637841521 16.524275090767613 9.963022167824079
Au 13.847261475971232 12.07675908768986 15.818468505463352
Au 11.333665138686307 16.04902956086414 14.604754269709824
Au 12.770468854862873 16.667505007238955 12.378864543534949
Au 14.350063279373236 13.30470908914968 18.35272131293325
Au 15.749416919091429 13.857021420152886 9.845707971659813
Au 12.815979191050152 14.918626179189108 16.67852887286834
Au 17.228474260729982 11.43396073383524 9.823713648945308
Au 16.568393461297926 12.618828525386839 12.21281723200158
Au 14.168736596750582 16.21489597012335 9.913525271203214
Au 14.200872676783897 16.11635308354962 14.634982608985112
Au 15.80224532632527 13.712104647723114 14.617435350448405
Au 15.22882253854151 15.123404878838201 12.270185904280774
Au 15.561703613329744 15.211661037633958 16.865747573518522
