53
Energy = -142.58703028 eV
Au 18.193072701916996 14.74222202421074 13.74651209420115
Au 17.722016248821273 14.861711415843622 11.024436966252415
Au 18.261267923681604 11.937355170958346 13.600377416628854
Au 16.717399140803273 13.25876889038466 15.746957609374668
Au 16.47782244604552 16.872235334540598 12.55755235034743
Au 17.702777747647136 12.04844189821453 10.821540055855628
Au 16.342925182354477 10.609678532986536 15.09271316765184
Au 16.03347592339559 13.258259655179849 12.725876839221486
Au 16.207500802461983 15.942235645557925 15.166204720624073
Au 16.153397472741787 13.620128650097284 9.127441075782304
Au 14.814858616059366 11.567328071607157 17.100301868404067
Au 16.362283512749787 10.107886451897738 12.384643386943834
Au 13.788464611590285 16.747954205877907 15.96972754790085
Au 13.786944855813815 17.510910647303223 13.293319980294857
Au 15.508897718268171 10.649734687577723 9.795375287509705
Au 14.123681112608804 12.227445668562485 7.915624480899007
Au 14.070538898022932 11.505627781620712 13.360475963798825
Au 15.759388952713794 16.426669269233024 9.756666861826883
Au 12.866123408177815 9.766516290138826 16.50488245709721
Au 14.372097178243408 14.245635860954367 17.009315355880467
Au 13.89845399810139 12.672231480056025 10.798799615710399
Au 14.391475221571449 15.220067245008572 11.777585251663018
Au 14.469459473338452 8.751852523493099 14.331138830994808
Au 11.434714404444748 17.55659628971421 14.938303467309424
Au 13.994783130572124 14.32063858443517 14.330410319226917
Au 13.577874340866522 14.86656179974481 8.87227425822963
Au 13.089414983866849 17.185704224008308 10.45887226628198
Au 13.848956703794798 9.120462246117635 11.545392746930405
Au 12.300966633411125 7.353826183236149 13.084436440592917
Au 11.80308636585338 12.589451831530187 14.568201568238084
Au 11.877485063011925 9.9531918423657 13.784779998117472
Au 12.088839903982931 12.337741888165521 17.254453636528996
Au 11.930980872723076 14.179907691019348 12.287646772380597
Au 10.127819809898396 10.521517736103839 16.06763189091711
Au 9.543315387687796 15.664352996444746 14.459320617351253
Au 11.041193155164338 7.9188977014766655 15.524388510733344
Au 11.576051950138954 12.855051030415204 8.781414554023645
Au 11.410956493170147 11.542382906632113 11.567419633397982
Au 11.04881667869541 16.879028555882382 12.312879798044401
Au 11.664522456475503 14.950181812343924 16.190176345858923
Au 12.707812067563857 10.238482602970857 9.291723497367187
Au 10.85034231932845 8.82674783908123 11.22247973139246
Au 9.5694623152692 13.04627589172318 13.0297184831008
Au 10.961664690493313 15.316317822461722 9.938155169572147
Au 9.46305045926589 13.189589562844754 16.064845005818512
Au 9.269723661903269 8.94241417146492 13.61530971848356
Au 8.732296521795616 15.401288050571523 11.744080209858682
Au 9.142631798548395 13.139348591081886 10.039360852390482
Au 7.349930902508517 14.014168779878576 14.414538185024258
Au 9.962268594818836 10.58847300117264 9.253417658508459
Au 8.509026507700442 10.6534565275567 11.606688863129738
Au 7.954216008098682 11.247903745203729 14.410016708027939
Au 7.063060053049164 13.051409488400413 11.827582379538741
