52
Energy = -140.0991246 eV
Au 12.007104006607104 9.312231401911461 16.41495675336796
Au 6.1685044621671095 13.058578002283443 11.703304747587387
Au 11.15292314197304 11.926677853145707 16.967799542704324
Au 10.410433365273928 10.74023170922124 14.483225088340065
Au 8.0253940195987 11.724107540406045 13.287549640652824
Au 7.895485736448896 14.529081225440061 13.245895295419526
Au 12.087247503647413 13.083133105141453 13.593588767762633
Au 10.712035150403853 14.696283764832794 17.020421067761834
Au 11.255850294312628 8.130014599744252 13.961221513191152
Au 9.089086318338621 9.319792433881107 12.3744384263362
Au 13.837658632491108 7.9352965005697556 14.85222084887473
Au 7.873243124390727 11.338707462965084 10.472116050633609
Au 9.71526035248686 15.921770144359659 14.736456205500952
Au 13.709386063077192 11.176536440812095 17.780673287737837
Au 9.372541424075152 13.199198065924769 15.187583260615913
Au 9.694759223273559 12.528173430590861 8.747741550739391
Au 13.451397586816675 11.228458579452205 15.002197335510273
Au 15.709267085986856 12.55290026319543 16.16005408297229
Au 11.010357278148227 14.31887084855373 11.458267610415318
Au 10.507608900119214 15.240477826495738 8.937260911206629
Au 13.267457096648062 13.758130463920205 16.670052956685826
Au 10.422966590924103 11.68078688551889 11.671883693359268
Au 15.765781576707628 9.235147909100075 13.383670591720723
Au 12.451677459552837 16.083680475498632 15.413348527886184
Au 15.475217385559048 9.679504363495319 16.22634433467627
Au 11.017901054545884 7.685671358952187 11.311961149026917
Au 8.341897048639728 14.279267264447467 10.448950881103812
Au 12.746598702695826 10.304264040492647 12.523782729886525
Au 11.366106215425226 17.69243082573656 13.426866893717225
Au 17.47373368052983 10.904235751966612 14.818145487511975
Au 15.003480876971642 14.994702076554423 14.95741357571409
Au 13.717370079348191 7.776309421895575 12.077319102338814
Au 14.780277672238249 12.3751549790422 12.838675140286556
Au 13.694946617986615 14.814744187086937 11.845955158730725
Au 9.852024752568434 9.665588555208338 9.64763443848236
Au 17.204475268844657 13.525918188582734 14.027481632103632
Au 14.006011981351286 17.071461663003088 13.382361006886185
Au 9.34972055330527 16.480967297068844 11.960809438823112
Au 12.960820920556019 12.424275161321217 10.586729888621148
Au 12.649588753880858 9.242852352422934 9.778925199331752
Au 15.106929122001972 9.957246624676635 10.783124332831704
Au 17.25927308209468 11.250628807264361 12.104226624729314
Au 11.88520577833086 16.94720309092618 10.850682313436467
Au 16.258921252832717 15.729647410499352 12.596392980980408
Au 13.280971111739762 15.620119585099571 8.966815073764659
Au 16.12602596283559 12.345893433960269 9.845136745687046
Au 11.459852390552268 10.689878592329029 7.713173669430726
Au 17.869548288789797 13.870234231106062 11.357116824348312
Au 14.074352807166733 11.194525291518712 8.389869069492176
Au 12.18017964712226 13.34215638304047 7.751798354696798
Au 15.869654623711712 15.144943663839282 9.906938413373739
Au 14.895638301433976 13.769399955483564 7.7595388981075475
