52
Energy = -140.15439868 eV
Au 15.962010544416806 9.669669899378325 12.133237840806359
Au 13.499928681048686 11.359391826577973 10.999987125839596
Au 13.511279726957067 11.643223709711629 16.433423568640123
Au 6.783747493428276 12.43882450673214 9.743937292421895
Au 14.748123118343965 13.73326723442268 15.059797284372339
Au 15.010866553352528 10.075836525906581 14.673610920695499
Au 11.717448330349264 13.542930305660121 11.755105506155106
Au 12.56173396756474 9.192595678653 15.453414540195311
Au 10.41455349609427 15.709588676716335 14.113807520034207
Au 16.51042684566576 12.08898338995224 10.88104759435699
Au 8.240585591519373 10.778477821165252 15.254672424379434
Au 9.077527549158107 8.89275442306723 13.386443488728382
Au 9.03373983937956 13.300342357616147 11.170725634192822
Au 12.018605384717645 13.122404109016648 8.100980807790906
Au 16.07405624917845 14.775930318255114 10.231822288949918
Au 8.30316346618649 10.388070821755575 8.764410880441005
Au 12.383844787234771 9.187347301082834 9.621464358966966
Au 9.219352522639737 13.018318218679799 8.101770851156028
Au 12.907778260201376 11.850740066053287 13.721669840544706
Au 14.725147989693834 12.789164736793746 8.85166706769176
Au 10.660083484081174 10.879651252216592 7.22231089439092
Au 10.70026187001947 11.26271851118279 10.295008735684783
Au 9.197083057272197 13.490204925821613 15.435529651553349
Au 7.264226625040497 12.584564022434655 13.494821432196122
Au 14.737569758279667 7.620142422788524 10.694876967759626
Au 14.50348008728868 13.715801606290814 12.266712245860163
Au 16.46250103949383 12.085833186957148 13.61356484360056
Au 13.157105371686363 15.733592944073813 14.00505790614986
Au 7.978990527753815 10.619045902126496 11.562390971287448
Au 14.467645740474183 16.5220274342767 11.700798104156279
Au 7.715480392163485 15.295809670057439 14.021365857895573
Au 13.288358625719003 14.998246825688884 9.721476793729341
Au 11.940548887498771 13.905153967977549 15.637220584854042
Au 7.825183226423975 15.096306069446388 9.278394581489787
Au 13.47544714329358 10.783674767416468 7.510991019644549
Au 10.815143340506566 11.35998600090933 16.10509595805467
Au 11.712666888749988 16.42181154864102 11.70932286349334
Au 13.983560492729003 7.903188974602417 13.315327755541423
Au 9.774117826576136 8.481246746205775 10.781899112661943
Au 15.504968806149241 10.045765821081645 9.37313418605258
Au 10.571735238871113 15.113598863049745 9.470280010938355
Au 8.994892453707397 16.107045614439105 11.696615443368517
Au 10.09065172734184 11.728998378845462 13.23659609009688
Au 11.815062313633987 9.589677195803718 12.441368972656306
Au 14.39793232685572 7.979113868127917 7.995977920453006
Au 9.904352430890096 8.678628578671686 16.016016275745084
Au 9.84023799537121 8.27815226049173 8.058587574124966
Au 11.98917234040055 6.608593771029875 8.7495937903501
Au 11.27681948454867 7.244171894372886 13.998957809525322
Au 12.135674245254295 6.824468794817818 11.450168506134979
Au 12.125645175692528 8.591950176403035 6.578451501776796
Au 6.516233833334425 14.50885338218711 11.667283469878392
