53
Energy = -142.82900809 eV
Au 10.101627408112147 8.766858389881214 8.06058109702685
Au 10.155906211843467 6.809428669067667 10.059800750880491
Au 12.497779524891753 7.6167693992423064 8.888330906202949
Au 7.861602156957918 8.42808148891128 10.243561496386222
Au 10.118653651994672 11.43864184624564 7.136673280076574
Au 12.585942713384997 9.996569790451115 7.55444434375956
Au 12.58319207210015 12.567979172745412 6.55256623531357
Au 10.25122925331057 9.520450607980099 10.91012673045387
Au 9.703592328796374 7.402390991714486 12.717114729802175
Au 12.48255981311987 7.563169413092781 11.647020185739962
Au 7.260445919798604 11.190717183872067 10.665652016395445
Au 7.851560350383119 10.286018979438325 8.169310638285742
Au 10.73746154177414 14.088138638946297 7.84655737477927
Au 8.03356553867415 9.564767349087841 12.83692072429995
Au 14.091580389569053 9.559686658366058 10.000136532402962
Au 14.456187515769013 11.946727250127038 8.440863799311131
Au 11.496900604003141 11.598109618337556 9.629768993976553
Au 8.334730040331827 12.949140234208706 8.74044326851504
Au 13.581332287233458 14.580246640090069 8.164615276617306
Au 6.9389826499329965 12.059645533736271 13.256799077605516
Au 8.84889522413195 11.222289790514779 14.998671094245294
Au 11.777302549528207 8.281813623413107 14.248302726894678
Au 12.466186928835661 10.411686332650635 12.174519822408428
Au 14.407752790376074 8.637995472737233 13.339206791550925
Au 7.839034778511796 13.83928538142133 11.391812501878707
Au 9.891343785874739 11.839549003384263 12.318843723413767
Au 9.124577908992466 15.439900454753783 9.626766165218195
Au 10.62689775674414 9.658528375871326 16.337640272171196
Au 11.181357198524827 13.948484457090242 10.98862974476021
Au 16.11970231864675 11.380269774076197 10.507075103251495
Au 16.7079977359659 10.220030778849281 12.835043118078037
Au 13.375593709254487 9.525585351084796 16.14568316590185
Au 15.953691376633678 9.612826987058037 15.43208653569022
Au 8.61899376787306 14.04638704180595 14.140915065539819
Au 11.680870439818696 11.511940410406478 14.55557168278142
Au 15.717955584590051 14.155332983424934 9.971239408368115
Au 13.680244016602824 12.67041950221832 11.093124734600535
Au 14.40989047774628 11.628377744483128 13.734662452363425
Au 9.647931421074984 15.868490260600774 12.305605393070499
Au 14.334123146274022 16.565420231737434 10.000175249998854
Au 11.717027859666846 16.22038084872406 9.387329465643253
Au 10.223008966547747 13.316860611925847 16.257572852137702
Au 16.6383566756053 13.269473900565913 12.45844185834576
Au 12.68498091370224 13.814743399387737 13.383314679007963
Au 12.184047210478703 11.746445364570834 17.399626819334813
Au 14.788116278525125 11.999036941865906 16.585057282576223
Au 17.034651303917105 12.103239780080292 14.913034945752914
Au 12.393530118998243 16.369034754864714 12.120572628528778
Au 15.131275297276218 15.57848752470977 12.414268586609404
Au 10.899841053544531 15.556186030287499 14.73857809023767
Au 12.906619417954246 14.161874188220368 16.294353779138397
Au 15.380827345019153 14.263435009912817 14.876524747780559
Au 13.57114394189505 16.307738253931216 14.627166005563023
