55
Energy = -150.06363503 eV
Au 15.74715562165322 10.191499274853976 9.782759980974575
Au 16.849930914982252 14.39338369196817 15.177275952030588
Au 11.779912260190194 12.250006203519971 15.345903335612975
Au 8.811597916968172 14.319755810846472 15.409511937580426
Au 11.212664948801889 11.207236220137547 17.9993774713271
Au 16.06324680729161 12.780816360847377 8.828628701169796
Au 17.216278530147587 11.742574578471466 14.117531689937481
Au 13.368173849417975 12.96281081606364 17.867076049793752
Au 12.927645134793522 15.705707996302227 17.302674274178507
Au 11.011152602942712 10.858895096902842 9.425667197291094
Au 15.29145680313712 16.946773850215006 10.671646293821071
Au 12.475373521202085 17.659261126793282 15.289295525803754
Au 13.009638857165546 16.029571393142017 8.716663067941129
Au 11.157227043717224 7.780122505662872 13.689610692799208
Au 9.08477481674247 10.45867395579929 11.433605651829108
Au 15.762743056366078 12.099362832069733 16.521054408162765
Au 9.378766006201941 14.954376401700307 12.643629815576357
Au 11.488947360877459 10.520787985413675 13.082467472957354
Au 13.763877850238593 13.832381524555263 10.33972970920142
Au 13.256573593323093 9.004431625115977 9.591214153924762
Au 17.06988962907244 14.768328480359036 10.581368097823669
Au 9.043067691383126 9.657622688730692 14.123567570996403
Au 15.460052063679003 14.723204138260844 17.501285763811442
Au 15.056980360916024 16.625569488943505 15.420523052307832
Au 11.132312114074633 17.312188895750094 12.804558285186443
Au 9.168732832807592 11.667663912943825 16.08769758896567
Au 13.65464709667716 11.21467680580057 11.34283692000195
Au 13.585984778298464 8.437078472550603 12.285045107494637
Au 10.96705625874726 15.58526502564653 10.483929704284185
Au 9.853214187833169 13.015752897924786 10.785737207075304
Au 11.498105703533112 13.519384396037793 8.64455794965116
Au 14.06167336012272 11.199710846799846 14.101905681532271
Au 10.676630007566805 13.852976372558032 17.50556295332886
Au 10.979440056115116 8.541636611969004 11.04056542729018
Au 9.028731712442807 16.963969645159796 14.474599775403869
Au 11.115537257655406 9.353262400950236 15.984289535731445
Au 13.998440638097502 13.978825211661729 15.081500597503444
Au 16.040898973007227 9.727742016514078 12.511474012867135
Au 18.231527146643135 13.97693456888533 12.878026040783396
Au 13.64808399153812 10.31885749630595 16.927248819462648
Au 15.33420664983894 13.420599677788289 12.592749154931765
Au 15.921530159213022 9.580377635815605 15.300547944358236
Au 13.472449811375284 15.53931045508874 12.577803178686864
Au 12.726976753356535 17.838709796173507 10.724740323758507
Au 14.212470781480736 18.08641646306567 13.130562849016055
Au 10.372936346493184 16.493979961965465 16.797769249825393
Au 11.465440448556878 15.026575027221817 14.633948243184046
Au 13.528573288863226 8.290489742765613 15.02967457303107
Au 17.32990479773393 11.94345508976005 11.203738915595306
Au 13.88785868245231 13.847103514795927 7.250096010648595
Au 8.78999538424751 12.362878707617975 13.38704709009048
Au 15.738365227970519 15.528619297106788 8.360599972210707
Au 13.546322591258564 11.437883232265962 8.393805969454663
Au 12.171060942630593 13.150459291781253 12.673109632277553
Au 16.478881666333262 16.219179370831732 13.047320307692043
