50
Energy = -134.59588684 eV
Au 16.401155343396265 15.1274151555528 10.676382301397194
Au 11.055087771790603 16.602242785550473 10.43854012940405
Au 13.723725926365562 15.96424855272772 10.497160822240435
Au 12.299308999604975 16.831793406545046 12.857095546862096
Au 11.92204655253659 14.661682926841568 8.608982384642225
Au 15.023651519329087 15.827616689816198 12.997211325024788
Au 14.655751416889002 13.912725915401547 8.785336781852143
Au 9.44948559709731 16.262679264537027 12.653068380666113
Au 17.162998042720062 13.678897876381619 13.07940031845141
Au 9.368739029643034 14.500387932977677 10.260559916230243
Au 16.86407869619013 12.535726807229926 9.85301056955924
Au 12.188525255767063 13.64682251605502 11.122314706782038
Au 12.746923366846502 12.312995985015965 7.480902211848368
Au 15.353768904274215 11.278305166876816 7.953154914767014
Au 15.168522907574186 13.87576113779223 15.034438313494652
Au 10.04877932799372 13.4622378999639 12.881404435163427
Au 10.769513300291667 16.189939332531246 15.081148660381434
Au 12.557678974819087 13.935194439049907 13.932368249151125
Au 17.71146969451072 11.177247045442245 12.060914204574381
Au 14.79659869007403 13.182376485610188 11.837832148846836
Au 10.255195009075901 12.347871550398803 8.757011555492333
Au 16.14452809811967 9.793316701430527 10.208643316558192
Au 13.520086295608648 16.230199773403672 15.274362784949524
Au 13.61815840176584 9.893066751784291 6.385065436867093
Au 13.614174223198162 11.264920894004202 10.252666010600944
Au 12.970964429438302 14.018891374078372 16.78259502525571
Au 11.358660118543668 9.893914551363112 7.9050074219814075
Au 13.227183639172077 11.293895225936545 13.038619635898325
Au 7.428692544201943 14.302494207737801 12.380426629295782
Au 13.836243532619676 8.81942925449056 8.915064523400803
Au 10.973616991469532 11.200916916569998 11.447609945176001
Au 10.264905519937253 14.378358562676162 17.05371440575716
Au 15.917894275430177 11.332389556943234 14.17998152487943
Au 8.50242732109974 14.56045705958265 14.931927782673387
Au 8.242300245869473 12.035307097059613 10.950958208876612
Au 16.32862333927386 8.907581650737937 12.834597285277198
Au 13.907618745598102 8.602270254228369 11.65733761959671
Au 13.771264494506756 11.471066386911254 15.956258345220283
Au 11.001309826763443 11.695726393807911 14.684053861365859
Au 9.183631190980918 9.868547471679195 9.526330028803232
Au 7.822849146875577 11.831165124600787 13.739205456626072
Au 11.47711458208226 11.87548294296178 17.52479205399092
Au 11.457820974228962 8.626020670563891 10.451491865072605
Au 14.087749460850484 9.04868858938955 14.444579107152112
Au 8.698131306199599 12.187253232620478 16.35652103668287
Au 8.873944372354197 9.545224048963117 12.269239214567467
Au 11.827910167262024 9.345740043681495 16.02034576096426
Au 11.468110089985972 8.879849204000779 13.263791324380788
Au 9.090086370238582 9.624116956072353 14.937403994314087
Au 9.619462449950552 9.894434100176927 17.609165331360856
