50
Energy = -134.11747001 eV
Au 14.871140080576145 10.245859391602425 16.330604717287454
Au 15.316679537624452 8.390947563458486 14.413774090933714
Au 12.524217766195704 9.774327925235175 17.868574098786908
Au 13.740393763000549 12.221121397327643 17.837799954445995
Au 12.764348581713131 8.38102743406729 15.54960798966773
Au 15.166808772681943 13.001991011585101 15.60767352193795
Au 14.994246802335606 9.464941962422188 11.865023415875557
Au 11.09525252023649 8.074391677081026 11.19242260979056
Au 12.606197894968563 11.599246941911886 14.99619093761137
Au 14.330225514846584 15.338991974168906 14.30835763180126
Au 10.149089599174822 11.21912701341176 13.765989869063299
Au 16.223960945021254 10.860005666017862 6.80973238655329
Au 11.030389429829523 12.195370513640313 17.34708907068208
Au 16.20233097697885 11.00714056222784 13.99010143856451
Au 10.339623678964102 9.7025289799499 16.206805893462505
Au 16.58335106127689 11.831021915783937 11.36124042320875
Au 12.81087092077365 14.346625256494848 16.41561675686468
Au 16.447445816572564 13.866299661269233 13.275456417113224
Au 16.721832562782524 12.792165851622329 8.676269900126256
Au 16.739344278538677 14.559299677731428 10.642221189702497
Au 9.765801226197881 15.837926136763128 13.251947491432253
Au 8.611345452585333 11.885004046619295 16.026781962118044
Au 10.545212241326725 8.21433352239441 13.908017802006492
Au 13.158892425882925 7.534977989943494 12.949496483189385
Au 11.938955308170936 16.448913692669393 14.86258316862854
Au 10.817341374632159 18.418340489770763 13.318715677403883
Au 7.3561984833410055 10.986527067299198 13.745295773697695
Au 10.349897277349374 17.188065954835263 10.92722124047277
Au 14.09313614555508 12.391884928873468 12.716850709589709
Au 15.615257642334393 16.45911768012031 12.177361156943222
Au 8.75688679511157 9.293873312961978 12.119147664365636
Au 12.345100111558692 10.242365729596713 12.526740608764653
Au 10.294677560739215 14.091105283698703 15.404573417421055
Au 12.646525223614091 16.552293791330925 9.451973741845942
Au 13.547701376209172 14.704779597835222 11.328647364650468
Au 11.533715340399695 13.538413999486623 12.884114119260438
Au 8.393952617907434 13.501560796048757 13.48758949257788
Au 12.978817082760994 17.24192208731632 12.186911304731034
Au 15.577818433274256 10.253530121250524 9.350402770230604
Au 14.76282623458583 14.851318499025721 8.710994863534431
Au 8.233713209161802 11.910238703241207 11.187722347178852
Au 12.3876380160626 12.403769811304832 10.446127917606939
Au 8.737728444494119 14.714234382121784 10.984401621892731
Au 10.055634915401516 10.286604388374228 9.872987787699474
Au 12.905972371306904 9.660820773126002 9.785444190249532
Au 10.042288239395718 15.676483617106262 8.752033460302655
Au 9.730826498078992 12.967230163041195 9.120124197817093
Au 14.119890194793836 12.240430730613099 7.836131081303198
Au 12.14616680211009 14.12689191061527 8.095360493642593
Au 11.609400095066096 11.334880013530585 7.914856523879207
