5
Energy = -7.1243107 eV
Au 4.984536369167961 7.248956776770977 4.401709121584869
Au 8.953380492933503 4.471894785912866 5.110175159381072
Au 4.682645935180746 6.6635870806338104 6.896624004866099
Au 6.812543811215078 5.699217894538563 5.584398080391433
Au 7.395101178018019 8.746273311646222 10.833746652700016
