51
Energy = -136.87078379 eV
Au 9.005411304414073 11.501235197309272 15.743111364382703
Au 8.47276465735392 14.04882201752633 14.771242828234422
Au 11.74596430445669 10.996345658288263 16.07362089499916
Au 8.291758628867887 16.319213171064906 13.224852300129287
Au 8.837270260950985 9.752131709206916 13.61916843517576
Au 10.739282840276992 13.589092134835127 16.401445702039442
Au 7.533547829349983 14.628732072076781 11.202643007405694
Au 14.605591478412421 10.561342430576982 15.604676150737644
Au 7.865119715316161 12.33176039297705 12.706018792903992
Au 12.631725027263563 15.596289051526849 16.45838697870142
Au 10.376329820954254 16.077612915108077 15.07078222278424
Au 10.722348230044748 7.6445789612509465 13.506047787905507
Au 12.614797666018704 8.587785054248618 15.125567679752281
Au 10.553571960622978 12.041486473369531 13.584228189045229
Au 13.637328421114642 13.028266008297509 16.326156528033827
Au 10.75831191941633 17.575924870704778 12.760223168219191
Au 10.31017979506168 14.548159488479692 12.367126531273781
Au 15.232652613881907 8.104950106277462 14.491807371395577
Au 8.366550659445709 10.356939355671315 10.856911687337234
Au 13.13008547827548 10.996929701455944 13.323577757431378
Au 9.573228931107687 16.563958041476283 10.534019076978938
Au 13.087531565717054 16.733716825008614 13.87449975087739
Au 12.632738438038901 13.881214266548563 13.805149661844643
Au 8.56573614787035 14.947374191788011 8.536722765850879
Au 8.814674310422166 7.762623778150419 11.571543971338306
Au 15.027657139522908 15.238197940999283 15.152885825283189
Au 11.07921014354767 9.833885751420036 11.715803985792622
Au 12.09848793899186 12.692288424744971 11.277391610830486
Au 12.572564504431224 16.182425714256976 11.196107835634882
Au 16.00278668229866 10.342266840716102 13.041496283727106
Au 15.480503368114228 12.804851696566702 14.051659405699258
Au 9.291201974547853 12.78046625029675 10.159401779365004
Au 13.614282020261518 10.2300176686209 10.686843270345731
Au 11.283703755785961 14.76606059520336 9.226215600103044
Au 13.306038728726524 7.098447354353469 12.766626421223815
Au 9.625384678572665 8.605099386249321 9.071777519062824
Au 11.382431298943168 7.105797405179352 10.720398759352669
Au 14.850034003707382 15.01874142566752 12.366573834495604
Au 11.307823224410587 11.042966619620243 9.217964015746656
Au 10.012184971167642 12.82466589487127 7.427694004673956
Au 16.376392234312426 10.032770478493545 10.323787647345288
Au 15.720915178804024 12.565080202220743 11.288244058477316
Au 12.199575263361416 8.258209534682189 8.220592137802349
Au 14.039925157717601 14.242443654333716 9.835122060981389
Au 15.92936731500526 7.793927416923802 11.890789133656543
Au 10.379523975825162 10.065918572513988 6.837378899172015
Au 12.780430330551804 13.091326517728483 7.669420396819751
Au 13.111612599248577 10.547267980679228 6.842594934294475
Au 14.010770832166369 7.277935445301389 10.072487064329183
Au 15.005211176444952 11.831392815631844 8.65079903432163
Au 14.906064673895225 9.061435793110112 8.223203673640764
