5
Energy = -9.40964348 eV
Au 8.759087613579679 6.082453045687681 9.481483021581468
Au 9.867487941336677 7.614947132108429 7.602824633230555
Au 9.249624172810538 10.213234111071694 7.579836615756448
Au 8.144796732652106 8.618002968295283 9.528940689697553
Au 7.6474410504089425 11.178937224149882 9.476651378133885
