54
Energy = -145.75705284 eV
Au 7.213960521924329 11.931784186639003 9.205982000247403
Au 7.580711317818558 9.584355488419794 10.536607253802906
Au 8.157370986625901 14.236419241954618 10.333959427676728
Au 9.528040275265065 13.015408742038343 8.095369764388307
Au 9.16454930680018 10.26899968053809 8.238725335626132
Au 7.031424824291319 12.277202060324848 11.972103038184251
Au 8.511161373595865 7.529743439414483 12.079026584851377
Au 7.043241447585606 9.877162839946203 13.228389615260523
Au 11.285757188962572 8.747819472354522 7.585263589893375
Au 9.924387497994008 8.081343002652451 9.828165028209028
Au 9.213161647897346 16.502307558058575 11.463837689572108
Au 9.614429625296891 11.603939901631234 10.858284190587415
Au 7.330108441481347 7.450173393190724 14.513018569005279
Au 10.297719191264939 15.50657202910139 9.084899861512284
Au 11.94911048962659 13.989065387786308 7.314267536207801
Au 12.833964252938591 16.397174721968632 8.498771752828665
Au 8.260588796578748 14.547834080964243 13.204016386803538
Au 10.756025353130166 9.44334499002882 12.263286263155168
Au 11.245384313587719 6.748900680732385 11.933157385169936
Au 12.82578995589082 13.908886971120866 10.113877936054678
Au 7.934869286097586 12.224431481604697 14.627337895442446
Au 10.702115980534316 14.002875429142543 11.838926909116358
Au 12.76432939032735 9.166720823363846 9.870226670941834
Au 11.853676282470275 11.42670705821937 8.45854785332944
Au 10.074795883264764 7.605081694297836 14.431261037618812
Au 8.572599296374188 9.771188656187961 15.515701411074648
Au 11.925471650191527 16.741082139147284 11.098247499004914
Au 10.583138847247454 11.790636653730894 13.666557556941894
Au 13.870993502825733 7.3184575881691805 11.630532313902826
Au 13.286097970270133 13.659118667198877 12.994022169486023
Au 11.248769982294503 9.80120675023951 15.655305173894941
Au 14.58862466567595 16.118389156953345 10.615485716558881
Au 14.456603143367127 11.689453193384242 9.46174237322504
Au 12.31517312575965 11.519346301155213 11.414766336948976
Au 12.757491134722459 8.04950856854626 14.065091704836876
Au 14.616834169694103 14.252068578803375 8.054039346099243
Au 13.561825216916361 16.469549201410704 13.269208335953138
Au 10.773205639755247 16.145163039749836 13.706211429580986
Au 9.921749595607837 14.031995829493148 15.36672532305693
Au 14.815518442867615 11.455999948745578 12.486046860615307
Au 16.252269784596415 13.933607171164914 10.201153768882463
Au 11.999672365520206 12.368284799747366 16.054458016139566
Au 15.426650330944506 9.3030570272607 10.606048007442832
Au 15.331663512114995 8.760607382943912 13.502911830863761
Au 14.60787276453744 12.965586636542826 15.5363225462876
Au 16.017509796812163 15.125285836394548 12.712742450044678
Au 13.85972020533823 10.363140501079991 15.215096932204203
Au 17.183210153865446 11.381817868517272 9.950527317579184
Au 15.189936797787583 15.636879229065947 15.329727921572019
Au 12.506572893267764 15.052337591429284 15.543805093502689
Au 16.54305256894044 11.109924587606749 14.680397343953842
Au 17.479972016261858 10.013521612756488 12.342246585414156
Au 17.50255036941691 12.791159079432152 12.376804572433716
Au 17.167865493098507 13.792646442577377 14.88236782326172
