54
Energy = -146.174198 eV
Au 16.253818751983484 11.7250900449545 15.49606523757662
Au 17.514353546491126 10.032264394367928 13.720224913632102
Au 16.754443105997705 10.504692809902771 11.07527936248584
Au 17.13778044213439 12.678940910507647 12.779162967321916
Au 16.876792932710043 15.174793366344032 13.87926292229041
Au 14.631100332910115 13.582979921953935 16.599459087435136
Au 15.438832903356642 8.99077594400436 15.26587755528401
Au 12.816084281956886 15.475341554414785 17.331755550436828
Au 14.601785690921874 16.075374894039413 15.13036700624992
Au 15.40979124698746 15.551466045304133 11.668430423557291
Au 16.260869763972842 13.196826001817621 10.205382369131595
Au 13.889925341972814 10.940230805773222 16.809861343389912
Au 15.73192615317591 10.934568154924321 8.592555447145283
Au 14.750388972522789 10.86373376815996 13.250099992029472
Au 15.695966466201218 8.285935419431215 12.442486611002597
Au 13.104695006926445 17.002268751579436 12.91956629726864
Au 14.74754466779999 8.750349377172132 9.939376739738075
Au 15.218824933588317 15.388322077358636 8.88356528567762
Au 13.835939708847578 11.72473721410897 10.73312369639475
Au 14.631460594823562 13.566594330763149 13.718554183093097
Au 12.20810913592785 14.511269383278016 14.546920308566836
Au 10.2426879057964 15.350598348104443 16.304645935872493
Au 11.874000189636867 12.915381812011043 17.028595644738324
Au 13.745123793348126 7.1622771587777985 13.962444460977894
Au 12.155043286515268 17.375111076622854 15.453808661253165
Au 13.633513577288516 17.113933964131046 10.272215074059604
Au 12.167790790006938 11.939338838015617 13.301026132190678
Au 12.756963215728765 9.455234833631314 11.988748190324106
Au 12.800924744245524 14.276590920907523 11.633348776085159
Au 12.952142733819656 8.430170585279866 16.25752163774387
Au 12.108381743959162 8.04942232010851 9.510710399103848
Au 13.032317366131064 10.335648751613318 8.249064694843025
Au 11.3268177302466 10.56195784600073 15.744411087048531
Au 12.38231132975158 15.122025973903032 8.805858538339066
Au 11.04506764382228 16.56834192037628 10.921118543967031
Au 10.268481835244383 16.797825919389304 13.596243357347506
Au 11.043311124449922 12.131987120999867 10.744674895767726
Au 14.05260629606699 13.019263120463757 8.166600491175112
Au 11.96325161721655 6.750474269654647 11.92775043282509
Au 9.675620402889674 12.755962585413084 15.293714960440449
Au 11.175777344582993 8.333721125178837 14.087863824605611
Au 10.209909101009815 13.965010413945457 12.630084973747039
Au 9.752099413479744 14.611481216018136 9.467902548097763
Au 10.327370086895424 10.041179765464081 8.949857735834064
Au 10.043278163195492 8.694065034890711 11.415938301236439
Au 11.355903014670135 12.626946908780498 8.027023184114448
Au 9.583010073799054 10.505174326309753 13.545749655484892
Au 8.461935457990318 15.955544947582789 11.636415009472707
Au 8.242443615604117 15.066104716559957 14.501697799457958
Au 8.397019169300028 10.85087041557357 11.044622829598579
Au 8.694812659494037 12.19733788136214 8.582844033606992
Au 7.786486877340965 12.494038623138524 13.244705071314856
Au 7.467062253655081 13.477921605865017 10.612159899751884
Au 6.221134014630215 14.685863877054079 12.710269626987868
