6
Energy = -10.70786774 eV
Au 8.790642122037424 7.127462770463063 10.051510544636132
Au 10.608014780591255 8.84916629320518 8.976710959291324
Au 7.442178942848964 7.120923206638014 7.71718483094802
Au 9.244047513195854 8.865753491539438 6.652583436570399
Au 6.820791502516008 8.917675459348652 9.624436908302295
Au 8.642683081690533 10.651791031278995 8.578448213668459
