6
Energy = -11.0671675 eV
Au 12.189431141439389 14.129311082955045 11.376474121127167
Au 11.172665304100772 11.8314495906913 11.14704897043314
Au 11.533671495637153 9.301303826858254 10.12721897604693
Au 9.067957951955249 10.061239325191568 10.882784322562426
Au 10.948728446194607 9.491192272971098 12.77548533575514
Au 10.112893448317239 11.034728848595394 8.57751416404287
