6
Energy = -9.38174788 eV
Au 6.9267106864474846 8.365410020627372 8.098619750432196
Au 8.417997648218314 6.375846413381318 6.920373054415389
Au 0.9559354045748206 4.243474764862814 4.498095287836918
Au 6.1036230410508026 7.334704992615636 5.765584434368169
Au 7.541026055058335 5.3708087274573675 4.675587756961341
Au 9.182430901816273 7.446541853482336 9.178591884894525
