6
Energy = -11.02746077 eV
Au 7.983562811008265 6.71095991498819 9.4010632618051
Au 8.47866676904833 8.670106753427165 11.045438587728665
Au 10.253395662357708 8.618513864664573 8.656266706292817
Au 9.496290211535014 9.166041680732055 6.061137565726684
Au 7.845570202725286 9.408054327816895 8.26491820981418
Au 9.571958503713782 10.924024505696652 10.15817486866447
