6
Energy = -12.70292109 eV
Au 7.846335006731322 9.204314583736814 10.099479041392673
Au 8.034470318136911 11.817220180168558 9.959988470634967
Au 7.8116984006061605 6.581470085819947 10.124702281529176
Au 9.693942111049482 7.6877329636953124 8.669225597442486
Au 9.819059798397104 10.467791934386502 8.590847603820837
Au 11.513255365079148 8.960231252192608 7.27451800517986
