7
Energy = -13.48181067 eV
Au 9.071815491673139 11.168870994092742 6.592320661264496
Au 9.380783779505387 10.280466642938025 9.083007942546315
Au 9.859975627771721 12.831239727021703 8.49111403201881
Au 8.812301085021431 7.771731107833564 9.496294319374748
Au 8.54303429208378 8.541167185524298 6.977685582159474
Au 9.326718812893278 7.051328817172262 11.967621578350814
Au 8.035015423303808 5.358599693038896 10.453332157943047
