7
Energy = 203.80872455 eV
Au 6.01659005242003 7.7816322857001605 7.969220500426111
Au 8.292713768472353 6.105524891830755 6.5219109039088075
Au 5.829908533725693 7.496319963796409 6.38046832897652
Au 5.294364138341145 6.241739876330728 6.225990230338927
Au 6.978973812235638 6.623366145806326 7.237915985205355
Au 5.083703950451728 5.009512300986829 5.75302413622752
Au 7.197535566164817 5.905486515112001 5.374840002737612
