7
Energy = -14.11697148 eV
Au 8.018304272899087 9.02733710461991 7.342638088915964
Au 6.770580725656375 11.224958826633111 8.0436347708688
Au 10.369049280560027 8.786438000293412 10.741662822071554
Au 8.110893117414 9.975280049401231 9.947683563231594
Au 10.5769943397062 8.131858981004529 8.11879806522932
Au 8.666466271922518 6.462872530366217 7.034119828664654
Au 8.337913283455395 7.2528006806359135 9.62030131266793
