7
Energy = -13.58739599 eV
Au 10.259349835078632 6.800057052855716 8.715595832825795
Au 9.898110199376104 9.44677260938769 8.452626744476651
Au 8.273385428806833 7.588772946040603 10.296857493267625
Au 9.628479933257102 8.037481210524067 6.191812240875482
Au 5.968072816424612 8.127545135363016 8.926856452424543
Au 7.4696144372958475 9.334258134172522 6.996652169262956
Au 7.678864367564888 10.19324163957375 9.601327462092682
