7
Energy = -13.62227139 eV
Au 10.748110605148701 9.11164694650753 8.776834281078548
Au 9.46268364243041 9.336515625401013 6.4268289275173585
Au 9.839824759023971 6.763514817808219 9.731634740449115
Au 8.020211607604695 7.713714743254551 8.004157611918265
Au 8.26983737532812 9.970199530627916 9.684573143663878
Au 7.360645880736799 7.560585326284202 10.61041606972103
Au 6.968727545528906 10.081647241257269 7.281581834737181
