8
Energy = -16.13014564 eV
Au 12.159908414313085 9.502650741616138 9.00903122400785
Au 10.095043283708184 10.075145645452297 10.832243297810312
Au 6.8693293652867915 7.973331876319568 8.41759347492895
Au 7.697707502350081 10.341962972508277 9.694508006417783
Au 8.489948977915532 7.842862540514638 10.578988068649
Au 9.952778087942622 10.852311698293528 8.195360678940544
Au 11.16462979917898 7.489554891793862 10.422781458266975
Au 7.7243427240261004 9.985275303826453 6.908764854853312
