8
Energy = -16.7979242 eV
Au 9.67714799142713 10.586858734595005 8.729717911706748
Au 10.232595227735308 7.893775010102451 8.820504922804082
Au 5.88593465782142 7.891313413470507 8.703558599726914
Au 7.383034791723769 9.74693976499874 7.447758808979633
Au 8.041668073388594 6.991542510977487 7.2614993929188305
Au 8.357927392533329 6.290914527899986 9.904335430925228
Au 7.966320144829208 8.999570167037072 10.119314389174862
Au 9.727167659009075 8.870881870918744 6.28510648223154
