8
Energy = -16.98239313 eV
Au 9.097780247557635 7.508463768723186 8.409606992929444
Au 11.081710285904927 9.580634028540048 8.256395922099557
Au 9.710193168803913 9.100303500048415 10.681470566662716
Au 7.879352334656188 10.756937887744812 11.568711712301786
Au 11.36278755270996 7.2141735437064245 9.762161147137563
Au 8.884718581708325 9.920348333283554 6.85036792376708
Au 7.411348448135139 9.688591707689826 9.222788595790403
Au 6.768719958168249 8.005362556367446 7.247331436889233
