8
Energy = -16.16984256 eV
Au 13.43833496445797 12.947778512629224 9.587378141414558
Au 11.950216060758684 10.93195245816953 10.010827063211439
Au 11.585168138919764 10.890359826014304 12.790829872251019
Au 11.811250895467213 8.54100657492277 11.336385120884342
Au 9.910963674938296 9.470280274283551 8.916705521468087
Au 9.198587287352028 12.22003266587092 12.663593231546304
Au 9.408620663676079 9.748390146917394 11.55224965808265
Au 9.348600774933558 11.97970625263313 9.94531064037556
