8
Energy = -16.93059431 eV
Au 8.878911071034791 10.268256581796747 9.489902306280435
Au 8.335693892053914 7.7988157141888745 10.42786801620725
Au 9.897391247420023 10.465144085485004 6.955157374795463
Au 9.329271592600897 5.642059624909182 9.071961895780833
Au 7.5416038495365765 9.131493446862592 6.5274278778435155
Au 6.390364231438615 9.172960865778462 9.030056623384242
Au 9.755895912985757 8.022205590776277 7.955467825595992
Au 7.179171694458264 6.807367581731578 7.850461571641104
