8
Energy = -16.89448225 eV
Au 9.657047499955464 7.238977647344957 9.380814057880434
Au 7.695426451473133 10.627442751829951 7.488836029035315
Au 12.074286393490134 8.124227219435728 8.748275767883852
Au 8.294587790833846 8.07538394872605 7.066529501199929
Au 7.5900579355234585 6.882742310358028 10.985541479123349
Au 8.718980941125437 11.763061166194836 9.80983966417713
Au 10.140748059159325 9.860584320086023 8.474763607197373
Au 7.731215047903466 9.242371715995676 9.878736886953517
