9
Energy = -18.89481962 eV
Au 8.568333942772112 8.430127473580136 8.801782721781798
Au 8.738410598184648 10.69114002454839 7.385517688457742
Au 10.3975685259211 8.069806969998986 10.954025391148575
Au 12.520748664780252 9.76131486089584 10.779460902833325
Au 8.386883493528305 6.3814861989021345 10.447359514124974
Au 10.91650837975441 9.920697086778636 8.657362695565265
Au 8.869206430946853 10.295545862818846 10.953624687204915
Au 11.027533684267965 12.010171597876807 10.511938994100278
Au 8.581640516575666 12.560185811970646 9.599122675681036
