9
Energy = -18.43581974 eV
Au 6.676517532811508 7.426372893296938 7.227130240851143
Au 7.517950866723491 7.3752193918635625 9.842964936019294
Au 9.341766624270608 7.396337429249527 7.697331791389769
Au 10.142523746435199 7.4380428558328235 10.437928428883614
Au 6.658433253437847 10.077664481483382 7.232398164855142
Au 7.499136160058417 10.127290352563188 9.848736276287323
Au 9.323791400503849 10.140717970049389 7.703094879357119
Au 10.12368886570191 10.097369509250177 10.443470040230997
Au 11.576612628138015 8.7814061944916 8.427366242125599
