9
Energy = -19.60432947 eV
Au 8.116659759195691 8.607104699551547 10.021298889214826
Au 6.913820926496913 10.987683612735571 10.025099924228702
Au 8.448499053067053 13.247984859676288 10.007684149325234
Au 9.619783902802723 10.838501199264341 10.022736974878296
Au 10.87954664197621 8.247640130221237 10.017242098899533
Au 13.521911282870873 8.321328486679707 10.011736253950296
Au 12.302871174370798 10.641904515670142 10.0199800758393
Au 11.173488944717015 13.05878429280825 10.025770961944412
Au 9.189306314502717 6.214956203392925 10.014338671719406
