9
Energy = -18.89010956 eV
Au 12.575584287547297 9.632472256870983 10.070611145217189
Au 10.965721146905345 8.484778812585889 12.13642032183973
Au 10.58582903459729 10.813920000631613 8.868294433400953
Au 10.444729776539232 8.018707521206377 9.495071627659922
Au 8.906527476762937 6.8555646217925394 7.712143001308891
Au 8.803468805550176 9.65337978445744 11.205069731352815
Au 8.19913054586683 9.300872996667367 8.405437044296278
Au 8.434775164791745 11.984035932486204 7.89496169461141
Au 6.867489296393945 11.003516160430204 10.059874176249153
