9
Energy = -18.87004269 eV
Au 9.51952473040069 10.898093545371632 6.167200143053309
Au 10.348552037330865 9.384549730435975 8.137686832016035
Au 12.51729537141372 8.397170281692036 9.505597760857455
Au 10.017965399242376 7.309662651627461 9.844859927975337
Au 8.922761299258008 9.63864926179543 10.618654311611898
Au 11.284734131425337 8.98942064250305 11.836066968133368
Au 8.549110398455742 11.438135621943218 8.5681929584842
Au 8.102613484145197 12.135827315543661 11.085012952732352
Au 9.607093958930697 10.581498509199198 13.100055244531314
