9
Energy = -19.03886156 eV
Au 10.786232229485337 6.481464843502819 10.551119251014896
Au 11.76240426313225 9.004619237202618 9.90059719616334
Au 9.162373218143705 8.624872913770222 10.92337219880317
Au 9.81304210315616 7.62166158968883 8.35024741300998
Au 8.601941883480873 8.586990943222368 6.244671623958323
Au 10.433876697413243 11.24928979103013 10.08457850195577
Au 8.543351523634936 10.072805971670407 8.416078643312742
Au 7.372577850046288 10.533440132137628 10.896285235671096
Au 8.239926713550485 12.621229555823028 9.342845654685997
