9
Energy = -19.53388505 eV
Au 8.929254232796879 8.088633528948733 13.412086853081412
Au 10.85469287148864 12.9785965766587 13.320986049357037
Au 11.409611228249876 11.09338194378384 11.37254381769665
Au 10.59910095242356 8.502464337858884 11.45289832493141
Au 12.352066069135779 14.341668176810007 8.473726993799161
Au 12.238179818028703 9.198844155865288 9.506851359247431
Au 12.460239143367435 11.770011919003391 8.951446975054568
Au 9.838579091802291 10.5393085821422 13.522989549037636
Au 11.678124632826306 13.775425354645915 10.93660426861186
