9
Energy = -18.98673469 eV
Au 8.08864694187723 7.845750858037651 8.729331909289781
Au 9.910193463929161 5.921041741831041 9.261889340871658
Au 8.706701298781885 11.08307905512492 12.478514327233247
Au 6.912458384707469 9.29243201985909 6.788336355872519
Au 7.615635205889275 9.116485885356841 11.031710095048089
Au 9.282692315754757 10.118960158632719 7.440630744373853
Au 10.925547808306103 8.253690929977681 8.781347843854505
Au 9.80447226555235 10.41322365083446 10.181763118373762
Au 11.728347222235382 10.789597431043312 8.335634664235116
