34
Energy = -71.25972939 eV
Ag 15.488471915689017 9.903257045475696 13.493646912053475
Ag 14.940835259101013 9.838566809050603 10.77051009313668
Ag 13.478982342972229 8.188031262197358 12.576856096884741
Ag 13.00489900711518 7.968862329253423 9.837861889779239
Ag 12.493582504688952 7.920247228193499 7.00810329424832
Ag 14.318083672424715 9.714991648320238 8.00666772825819
Ag 14.693509734938173 11.975519496548285 15.09691616546964
Ag 14.938521430858213 12.387250021450306 12.19517365335384
Ag 14.492630009445916 12.204515469706667 9.350731610754945
Ag 10.89555618932357 8.83630998158844 11.742889902134573
Ag 12.146125842529399 10.701001657548996 10.002284929246233
Ag 13.217163575881482 9.409633941508154 15.180518944745279
Ag 11.636973335199832 10.541086853886105 6.963730521073936
Ag 10.467401665707609 8.715722170350121 8.764037137455807
Ag 12.045149382049733 11.79778690247362 15.93618344799119
Ag 12.705132844911718 10.930402496851874 12.935713988161199
Ag 13.927849758807431 12.02851728546079 6.558138161983119
Ag 11.898285284947745 13.01366196392025 8.266844214510604
Ag 8.45628367032356 9.458345613099308 10.469007232657606
Ag 12.472127973659694 13.28539860840777 11.082493452841973
Ag 12.804541821951123 13.641625205384242 13.913654305499096
Ag 8.368187680739645 8.683626463706856 13.148213276909537
Ag 10.417714304145967 10.08893849315867 14.38405607522597
Ag 10.101061875605133 11.65129812223903 11.810537132427397
Ag 10.005983961442496 12.949632553499946 14.409930659442175
Ag 9.548402106233766 11.40561809323797 8.747824661497642
Ag 6.110230193852507 9.944820955501555 11.909517170681603
Ag 9.86764601733137 13.8645239806433 9.991666155535373
Ag 7.856096040363309 11.374010625954996 13.528924288347813
Ag 10.737914331367683 14.89637301438303 12.552422020684958
Ag 7.372634552195847 11.980736899607633 10.544385624384006
Ag 8.092699219241341 13.895260002751227 12.425221704830651
Ag 7.203355487233495 14.505273301362164 9.57337072083232
Ag 8.794954287684805 16.206902531865452 11.07646277728996
