11
Energy = -14.3203408 eV
Li 8.389929787831445 7.852054804592535 11.373028943460344
Li 7.880241506397996 11.066115123386098 10.553493192414027
Li 8.312275764331591 10.973882238433681 7.368114569354702
Li 9.163186013063175 9.163278623687411 9.160865651504325
Li 9.025486913108786 7.729694176008374 6.877869457853233
Li 11.345765711525987 9.981268874490036 7.816813422919832
Li 10.899210645711616 10.062582097502114 11.007151901165035
Li 10.18167629927462 12.263866607815615 9.221292633367275
Li 8.12340427956152 6.049205678565956 9.086324765717757
Li 10.838660685352501 7.082118942802396 9.450452564919994
Li 6.57893239384076 8.514702977737846 8.823362607278716
