12
Energy = -15.55954142 eV
Li 7.732606753508253 12.330041107549 9.60595577059044
Li 7.487861256385307 9.477365080741832 8.10907031081211
Li 7.797851417709605 12.365431780394962 12.60382085534637
Li 8.169251206233659 6.933268032888304 10.023001658871527
Li 8.57668334996359 9.9949643491567 10.971615954703907
Li 10.148110991510698 11.13610260169787 8.201653906748044
Li 11.140369792773651 6.338204892344358 9.51896508456649
Li 9.320054089318479 6.8891705283371705 7.068256694704659
Li 10.278918859469762 12.262972831576958 10.95329343061386
Li 9.849892576631781 8.610491242110584 8.950781900744818
Li 11.640750647754714 9.340504114157463 10.673338969819419
Li 12.022050555528285 8.485884935832042 7.484646959266142
