16
Energy = -22.41750824 eV
Li 11.048044605348021 10.423242020187935 7.753834139970818
Li 11.263813561775864 9.599114084375366 10.492510114434564
Li 10.77634127990492 12.805819779467171 9.495849272956091
Li 8.049667508875636 12.523590676838865 8.080035890869501
Li 10.29181947351948 7.690915996383706 8.600614491692609
Li 7.9869521232021174 8.038571413088889 10.298652966595421
Li 13.204733895609964 8.041112894667593 9.545490218186753
Li 7.85681128340032 9.432491328672954 7.542527442081633
Li 6.341982042709589 10.629408815511207 10.163976216033095
Li 13.418141966928255 11.139351152918277 10.019222672957344
Li 10.812589301797257 7.1235501640515215 11.535794658144306
Li 8.349542432992495 12.732997022534002 11.29361613404513
Li 11.31315164746613 11.86535680313202 12.15984439193355
Li 8.956263983101573 10.616735351975592 9.695032864071319
Li 12.848367533665172 9.238475447905714 12.58796944688973
Li 9.169560366929948 9.78705005551625 12.422812086365195
