18
Energy = -24.3887298 eV
Li 6.985740488007345 13.633786233257009 9.367583180667463
Li 13.949646404879257 11.570950236398694 8.301690152545772
Li 8.496794837982923 9.151083881236763 13.141725920174556
Li 7.548048221741451 11.028867037581906 10.99947255311423
Li 15.162559012309032 10.785594252479044 13.274241853805444
Li 11.934367964863535 11.279728858579816 9.87821467641418
Li 11.636993033612137 8.523532081004838 12.557002806773031
Li 12.423287035540252 11.224966581291792 13.197812415957491
Li 9.404165503588649 11.41236698250612 8.336690908376532
Li 11.673911458798441 13.787097705417654 12.208110233959399
Li 12.110735960793145 9.152781829915677 7.982052187738479
Li 13.761618053267133 9.618584025983097 10.747199264202784
Li 13.9738498760935 13.643306182366963 14.13343916701097
Li 14.149100027828133 12.557104795921553 11.222537310040599
Li 10.138290969839199 10.695592707168982 11.90355849252402
Li 9.85125342190661 8.854042744853636 10.05777530342207
Li 9.069455517941345 12.295301373682218 13.768626453332544
Li 9.435888184668936 13.091262000593334 10.684414957002824
