12
Energy = -15.08651353 eV
Li 7.950820108454639 12.133208037257992 9.403617531410703
Li 7.8975385856000715 6.077141115902326 9.436095152593621
Li 7.953972155145589 9.124681567430038 9.43868404674932
Li 10.258231042498698 7.6620183186960595 8.585173719514062
Li 10.41216833321378 10.624904719442831 8.487336965693675
Li 6.438853997691186 7.581269293278687 7.414877826210988
Li 6.339794588814517 10.67859989203166 7.439599561165431
Li 9.64783659436314 7.630389536444794 11.483926592185448
Li 9.767625893678916 10.527478321358105 11.316907287643721
Li 8.738630505809965 9.09608690450261 6.485779102748433
Li 8.81356442686597 6.130417187058185 6.494682637391019
Li 12.139231995042694 9.092072879417552 10.371587576693592
