15
Energy = -20.40998094 eV
Li 10.620312394166985 7.60614209243786 6.698084682266757
Li 8.830008239465258 9.926185756696968 6.719383260404834
Li 12.496944163749772 10.55764081754376 10.216623435014554
Li 10.401031493112004 9.499550953176465 8.786667503551229
Li 12.190704245505394 7.605984236098119 9.177042807426185
Li 7.878836299383846 13.21138447147317 11.00983471228494
Li 10.080674956334942 8.84206952011359 11.559953019460172
Li 7.19880141800333 7.995756935227198 11.862508269319608
Li 11.487814039332433 10.738218200800295 13.496055433392867
Li 8.284363933892143 10.695583783150122 13.018475271964824
Li 8.708461639229292 7.419189878439916 9.139963217794474
Li 7.9763416725624445 10.302872463285713 10.072705420402645
Li 12.168542479780943 10.238547785845354 7.013707509457579
Li 10.047279970113003 12.21250386107473 8.525561502592781
Li 10.195056707799639 11.713542897068168 11.268607607097978
