13
Energy = -14.78995036 eV
Li 13.080001798047014 9.232691257375691 9.401235171623288
Li 14.973214076970589 11.12331190543323 10.091158486427437
Li 10.612426355640594 11.013474836749813 9.82780535022437
Li 10.56740163930182 8.259163281563715 8.717678680021136
Li 10.356764869089403 13.957537709562732 9.931898000029252
Li 12.932932037491495 12.983316875638394 10.179669144561117
Li 8.523615308297964 8.855474770134537 10.500164132770774
Li 11.25482927794187 8.278878504299819 11.524184720103289
Li 12.697511383972833 10.658506971224748 11.947214141755012
Li 11.086062132896284 12.885269659276508 12.521084339977927
Li 9.804912826187335 10.39515061667183 12.66126526967229
Li 6.884774828319407 10.39019681323268 12.11495695953819
Li 8.383936680337717 12.550425473443113 11.272782764315423
