13
Energy = -17.00701873 eV
Li 9.90456622611404 11.840209823565274 8.275671453260303
Li 12.716837831176138 10.438966194749588 8.926434744324954
Li 9.507237625743278 9.017323319422298 9.160911345523106
Li 11.861703163567816 7.740795656824234 10.118327932862078
Li 12.052776126168796 13.460457777758036 9.174012039632379
Li 7.998939254352042 11.2440714026554 10.48264384709229
Li 10.849021390580369 10.906811120027141 10.870135056696066
Li 9.940158175480326 8.755840595973737 12.317440632051513
Li 13.263230664153253 12.372867983903996 11.508651403191413
Li 13.08232415903247 9.430590491451186 12.051230599703223
Li 10.099218615505498 13.438303295495636 11.53245170552357
Li 8.62836499526003 11.348598487247614 13.251646260944739
Li 11.446977354380893 11.356519432440571 13.681798560709707
