13
Energy = -16.75014799 eV
Li 11.58030279014312 12.247579995949103 9.243090488724924
Li 12.507863915793783 9.663561763954615 8.284024428811753
Li 10.285461970414296 14.606200581359683 10.36096857680457
Li 9.175832192812228 12.009094345477132 10.910498268224886
Li 9.381854066684708 10.489737211500795 8.423224708512754
Li 13.920481819109078 10.98028593764449 10.698864991747826
Li 11.846427048531114 12.566529100130158 12.203787341794188
Li 11.119831498147185 9.95312896007577 10.845829116815404
Li 14.50111800514502 12.619567680879497 13.403597779800318
Li 8.296516143168203 9.285349205483419 11.220818499008267
Li 12.884850622554776 10.137712268046446 13.379071564166576
Li 9.923494210389913 10.652580613480966 13.491624093945223
Li 12.095770296517646 12.407874181520112 15.106292494231377
