15
Energy = -19.70441581 eV
Li 9.156721859498639 9.156782450348626 9.15666105236427
Li 11.948920051886587 8.854450488775196 9.196633334182874
Li 6.364181508487132 9.458810306000911 9.116640908831567
Li 10.342821497116944 11.702174033702788 9.113591953064313
Li 7.564755679613512 11.97668311111199 9.108904506966828
Li 10.74852642795564 6.336522520068923 9.20433027224847
Li 7.970599901082776 6.611306586891673 9.199623839468178
Li 8.365202342640263 10.562524248418411 11.456281665536647
Li 11.141669878796911 10.279369049827338 11.456234707386733
Li 9.96645062899906 7.726093336874557 11.522791830757122
Li 7.17156890852293 8.041819759416382 11.459484102703117
Li 8.34694949743767 10.587123174767644 6.790726310953091
Li 11.14177120033258 10.271544859358187 6.853691428335842
Li 9.948052014479195 7.750731503516772 6.8571631307515215
Li 7.171656103150423 8.033912193627849 6.8570883950960155
