10
Energy = -12.68922391 eV
Li 8.817557951989295 8.790814512979576 8.784285278906694
Li 8.465017178676861 10.885334639284789 10.400122497866512
Li 7.638489218347119 7.868314845658969 11.070760741975205
Li 6.912636870712189 10.390823813410556 7.646967742267214
Li 8.596478508073451 8.68298714183059 6.002335623169707
Li 9.726785705840324 11.132731751540126 7.558942998392887
Li 9.32837803784839 6.130381446739926 9.469301738118629
Li 6.773902971921902 7.230707053050676 8.068935518285715
Li 10.457012222124984 8.568215549950684 11.042599359034394
Li 11.22243144843606 8.258379245554366 7.894438388012126
