14
Energy = -18.46334367 eV
Li 9.424423255255402 8.97110990526236 8.987007072457653
Li 12.262684430488775 8.996154141945862 8.16276787570062
Li 6.478757296933833 9.040379867676798 8.478599819836287
Li 10.664786695944848 11.388273646709992 7.504330656475285
Li 7.883871598264389 11.486597649755451 8.442068024878598
Li 10.812118698799496 6.490981921762175 8.168229196201816
Li 7.941368476355901 6.689636975214374 7.499617660604734
Li 8.732776917009154 10.999853741458661 11.136242350785496
Li 11.487681249202499 10.962687955888608 10.217103648312898
Li 5.728476910043187 11.125947070202388 10.614520380926358
Li 10.894719511917623 8.124884554768423 11.042236931809045
Li 7.345234799328108 8.593756917861118 11.17689294040993
Li 9.586323979260552 8.873160066479846 6.305294922217525
Li 8.711652181195829 6.21145147104351 10.219964633354294
