17
Energy = -24.01725808 eV
Li 13.491240781513943 11.106298701741574 12.595623653698317
Li 10.739877624468361 11.306484564808146 14.14740687616655
Li 13.063003687987187 11.216109281722527 9.553195859783175
Li 12.028006070205198 13.943422543607364 9.052312734269295
Li 11.356772449342314 13.109007852896783 11.847493371952698
Li 11.105410708287005 9.966571481779315 11.657074626665404
Li 8.55634291621881 11.752613580085955 11.863241572797195
Li 13.391441320759153 8.506559606604743 10.818194071505307
Li 9.077582932173412 14.110857267285045 9.874434381379547
Li 8.990878520270812 8.951766662717565 13.229059806709884
Li 12.098102991554338 8.53918385132241 13.691017829395307
Li 10.90914572544984 11.798748561674532 7.089325776221616
Li 11.101852351624204 9.108954056177865 8.715148967441415
Li 10.630713466615125 7.227916139641684 11.183340889478286
Li 10.33339882625848 11.735954862656094 9.674227844724335
Li 7.952016168813846 11.561697404457547 8.435609303395953
Li 8.605124301373856 9.268179087148235 10.244271438060997
