17
Energy = -24.01453308 eV
Li 9.670704580967262 8.468714243045856 12.949188521730502
Li 11.848016827746601 9.35633518888908 10.906420438503961
Li 10.172193262802292 7.02147579452905 10.334769976530197
Li 7.122484965032733 10.287922162106009 12.485562751842934
Li 10.028329632451342 11.477665758782154 12.356689969411246
Li 7.294753988548042 7.392957775428517 11.214680244898583
Li 10.792764581644212 11.883346009929925 9.476014493650824
Li 6.17270929674666 9.740319133000432 9.547803435218507
Li 9.859123946846195 8.629358584941347 5.832599124426514
Li 11.852253770515022 7.127671728163455 7.827815984894774
Li 10.53930461092835 9.358209452680834 8.35595173045365
Li 8.25408370756351 10.759649635912519 7.638340503909379
Li 10.986869708760624 11.409755185367773 6.497961737744961
Li 8.83525445475188 9.67251484249061 10.523121844935368
Li 13.152476263671376 10.044287939674296 8.217540105326316
Li 8.2133228231986 7.7147564881398 8.248450581845397
Li 7.85554956366322 12.305256062756285 10.23728454051496
