11
Energy = -14.31995848 eV
Li 8.498764199965954 11.784755066596924 9.897467325655654
Li 10.934356163089305 10.527399509576167 8.864096349238359
Li 11.368562373758051 11.38221400791294 11.374930886781147
Li 13.709211080775285 11.906248153633609 10.151708705824015
Li 10.813954503581268 13.569235686912464 9.91314063237334
Li 12.722302193963754 9.06412574977063 11.290390570784538
Li 14.27092855146797 10.983608118944035 12.86623011755826
Li 9.301585735811178 12.580698310314837 12.594152755359337
Li 9.418799454231904 9.533912423576405 11.526838620337283
Li 12.551136380567645 13.341001842592 12.787134602796481
Li 11.586147036543709 10.502548803925906 13.909657107046993
