10
Energy = -12.53685179 eV
Li 10.833441360197014 13.951706748657891 10.610855457742954
Li 12.297109434392082 12.62340744849867 8.1225754881709
Li 9.715138401757223 11.778458353051631 9.080721124314065
Li 11.829639444143226 11.257143526590946 10.603499200601942
Li 9.198452560575637 11.188877760920708 11.976054541247088
Li 8.642848696640614 9.199912910325267 9.847976923390194
Li 8.178334889798576 7.863632214345244 12.355332862492125
Li 10.75290516256147 8.691756021052718 11.377104826372781
Li 11.2555609139838 9.279195836254566 8.469719944319344
Li 9.621895028694357 6.491235073046803 9.881485524092465
