12
Energy = -15.62922858 eV
Li 11.29938732686837 6.338935490870632 10.004670543850912
Li 10.205806001288883 8.714985869480616 11.467247023981226
Li 9.421808711710565 7.048277542996124 7.639350189550393
Li 8.292045004535067 6.666361219580806 10.142771765561685
Li 11.200138503443384 9.14560798582094 8.864217099091261
Li 6.481959629357441 7.887518871929269 7.729829388627514
Li 8.572395568588044 9.762598844616981 6.5991228013380026
Li 8.60817451281345 11.332428642805972 11.046038454339893
Li 11.634058055276961 11.299614552751915 10.956714292668787
Li 9.734696580811839 11.767109469003694 8.545347250425118
Li 8.415077505664037 9.273712918998257 9.186337537806391
Li 6.712232765591445 11.340628757094288 8.396133818708304
