11
Energy = -14.24401897 eV
Li 8.483918930502382 11.458568365374923 8.911806455197093
Li 9.67684799361524 11.99863487945222 6.226983287181849
Li 7.7080679395411185 8.626370042307718 8.692841841548853
Li 9.854528900397362 9.568666777340363 10.29850523249193
Li 7.828418789703674 9.123947845987622 11.816575544028753
Li 10.336875684748057 9.435006801948795 7.632150721168782
Li 11.32315034635016 11.821197281565336 8.872688835995906
Li 10.580678070577747 8.52035976689854 12.947339106971965
Li 10.4052658830969 11.446338106934123 11.946645722592784
Li 9.812095411568755 6.998379196045654 10.423713191336745
Li 12.37473498277291 9.29501306533011 10.56264885203615
