16
Energy = -21.82549231 eV
Li 14.275030146032647 11.099686845819766 11.48392044688702
Li 10.951362188482184 15.112378565281078 8.997987590824087
Li 10.90331720213344 7.179568644002162 9.974207765591492
Li 9.352259795947589 9.54823094333737 10.168294347021137
Li 13.136780376103737 15.15211923893994 11.318780070877063
Li 10.454733499360405 13.845349646720848 11.725238474800845
Li 12.746606765479953 8.611267483052973 11.633656779911782
Li 12.123146445473136 9.97547917800189 9.126820847090928
Li 11.277242239589231 11.00325627621354 11.79655504182474
Li 10.218440680841876 11.767656153611497 14.327381057506788
Li 12.494559550516602 12.830695747149937 9.955536809155065
Li 8.367166667203993 11.60954551149297 12.032670146358686
Li 12.844406569992772 12.922360445075215 13.288282708673965
Li 10.008816532779997 8.88400114753977 13.02775504529326
Li 12.758535317551571 10.081766385131026 14.1976289071343
Li 9.765836643024135 12.291335608251064 9.2877651725789
