12
Energy = -15.66380875 eV
Li 11.113526330166453 11.338267094409266 8.418170236594674
Li 6.298078558929484 10.257402491995846 9.16174797438055
Li 7.101514753076621 7.442255571695708 10.027102112389967
Li 10.365133659586483 8.950159929711395 6.626950618525268
Li 11.877195230972843 8.472525105442392 9.236398813663223
Li 9.589414059978282 6.61968254505329 8.444023661321669
Li 7.422274271976666 8.28755920033271 7.101287488487287
Li 9.850775576941233 7.552391074133524 11.344992944407407
Li 9.116821608579391 9.33870334030209 9.195328649717462
Li 7.8524915505600115 9.859617489463858 11.79223087259739
Li 8.340725938280578 11.214576249723192 7.077044567185099
Li 10.844028460952217 10.438840142525864 11.346702412914103
