13
Energy = -14.74924444 eV
Li 7.450694199893538 8.107723139724984 6.1792641666632395
Li 7.876022589545513 8.138360386461231 8.91964440528807
Li 8.30294222211212 8.12525999092027 11.860410320188718
Li 10.097666990334774 8.106454579524897 7.203020182455411
Li 10.489007034938737 8.126542094397648 10.082060991933252
Li 10.877804300907467 8.124528417268271 12.874179112913144
Li 7.43411083452011 10.731129910257945 6.184529559283391
Li 7.8600365549632905 10.696334204889244 8.92469773571697
Li 8.28727122795506 10.70252854366069 11.865535734974447
Li 10.081035177416775 10.761932307403738 7.208127591752248
Li 10.472791533574341 10.735459290956657 10.08702486754928
Li 10.862135723222293 10.73203016997853 12.879296887493636
Li 12.443582755638243 9.446818254600151 8.267309153743671
