14
Energy = -17.05023664 eV
Li 13.130200179529186 9.464939041060312 7.996505295271551
Li 10.960759755072717 7.299160029385835 7.576343760220261
Li 12.183899781840646 7.088776265305403 10.421879349260815
Li 9.07342105644835 10.120279953576048 7.612941479930373
Li 12.952864786663605 10.049439420314949 10.971325821355814
Li 10.981461608757199 9.181747652249404 9.464553379284546
Li 11.02335382721392 11.930850345119842 9.200726375917961
Li 8.697093477323039 7.775203144991452 9.853698809708892
Li 9.635683652361992 12.348533541544917 11.998156632102129
Li 8.76389638856389 10.579604722119175 10.279297637964408
Li 10.171368808910161 9.177756271028127 12.194176320338668
Li 7.771634716536264 12.8573974273832 9.584741950199566
Li 6.31377018542229 10.134360497319404 9.327788255495168
Li 7.083385098364804 10.73474501160986 12.260658255957349
