16
Energy = -22.21029871 eV
Li 11.109306347413495 10.719763431577482 12.968747738365016
Li 8.88691268753005 8.973639818234995 13.879164169486572
Li 8.873686823467496 12.10107631863988 14.006591821370728
Li 11.698078190281123 13.419819381708164 14.040344865954053
Li 10.517079912830479 8.280083887673817 11.338823780877906
Li 8.584978089675504 10.554839387901087 11.417932934379602
Li 10.22439157637641 13.145175106515719 11.505672019256183
Li 13.104171849754161 12.387890395054251 11.480147858994055
Li 13.367351178301158 9.350459946456965 11.416161259632226
Li 11.192901780232411 10.772747953737024 9.939182429846156
Li 11.104647918985911 10.924512789456324 7.192783639106938
Li 9.088987981017194 9.198050494475408 8.765981047295194
Li 12.12925491556652 8.390402292870371 8.763793729473898
Li 8.895370928738592 12.262611439481637 8.881601070191708
Li 11.742141601751042 13.410534668417673 8.911268160565054
Li 13.77720418238005 11.015960451794939 8.852726209631607
