13
Energy = -16.36282345 eV
Li 7.970447890556336 11.885240100948888 9.596437387820451
Li 7.9704405274808305 5.898895335459664 9.59643861499968
Li 7.93906692041352 8.892070786152413 9.705620281066619
Li 10.472437376129644 7.399730889627263 8.674353344840126
Li 10.472441057667458 10.384394729347317 8.67434598176462
Li 6.350918993962839 7.341416132992533 7.690833162413476
Li 6.350925129858988 10.442720530595373 7.690840525488854
Li 9.719884410408813 7.449144619934915 11.638240532219534
Li 9.71988931912573 10.33495645545495 11.638234396323261
Li 8.798924743419446 8.892072013331642 6.705697824836093
Li 8.819325626037307 11.887862106244375 6.681577913830671
Li 8.819321944499618 5.896277011701863 6.681570550755419
Li 12.192801333260194 8.892045015388463 10.622635437999886
