10
Energy = -11.55464858 eV
Li 6.278060530773133 7.908795889521047 9.936265103269522
Li 8.69125761 6.1962885232945855 9.947317030178105
Li 11.104454689226863 7.908795889521047 9.936265103269522
Li 10.169274025958925 10.714154512954302 9.930031365694653
Li 7.213241194041071 10.714154512954302 9.930031365694653
Li 6.278060530773133 9.473719330478952 7.446250116730473
Li 7.213241194041071 6.6683607070457 7.452483854305346
Li 10.169274025958925 6.6683607070457 7.452483854305346
Li 11.104454689226863 9.473719330478952 7.446250116730473
Li 8.69125761 11.18622669670541 7.435198189821891
