15
Energy = -20.60830314 eV
Li 7.824931984819037 8.301962931440759 6.74290767929107
Li 6.025301490793724 10.063104229267953 8.473537406474435
Li 11.887978224512045 9.29341448304739 9.4522999781869
Li 7.19753261065388 7.347543953984664 9.523455755994803
Li 9.696481252098186 7.981752594580638 11.15677777131554
Li 7.2428206719174035 9.82132661207851 11.252333970183956
Li 10.144597146105099 11.01973784686336 11.196459206515673
Li 10.691698901400267 9.51825831562845 6.699347388123216
Li 12.074591234956987 6.440727157334396 10.56693068957905
Li 8.887653244571313 9.85191596666047 8.89125470785588
Li 10.733439125117105 12.038332915504682 8.382192448324842
Li 10.064846119381913 7.044801056149023 8.50058082519101
Li 7.855375195481843 12.351000474292876 9.584300001338894
Li 8.206424504807144 11.371420792783667 6.645694324356007
Li 9.109034018328899 5.197406395328015 10.574633572213902
