15
Energy = -20.55335887 eV
Li 9.262398139693108 7.63888362668172 10.484299032182697
Li 13.64962267201035 9.032688097906068 9.172341503160599
Li 7.049146899597719 9.167281093154237 12.38529528781455
Li 9.213428986468857 10.964220554834947 13.586805708909292
Li 11.730222999108364 9.929238256767606 11.698606658516423
Li 11.586924058314574 6.9673104941312465 8.227285872651745
Li 10.950759402392949 9.422023811216008 9.117304335973024
Li 9.05296086458339 10.337717075696595 10.96905510407831
Li 9.095005492631188 8.414519786263861 7.456434090350411
Li 12.350886378418965 11.71095001069969 9.179283787904243
Li 6.952193116945318 9.577771786528995 9.461066253182533
Li 10.323793016412258 12.677529885079133 11.355748780874489
Li 11.744573432266577 9.875551202818066 6.6727852506109535
Li 7.216121290236597 12.17236639814208 11.220756645916365
Li 9.26196301647731 11.551947685636707 8.452931453432043
