18
Energy = -22.53479497 eV
Li 11.44408164644594 12.12327694210812 7.610095160826065
Li 11.533224770534781 13.792525836638815 10.008292363681786
Li 12.147602324606515 9.770692771509442 11.773005050724494
Li 13.193984110403909 10.460140154214168 9.056768574666295
Li 13.321129916541139 11.139485946218151 13.975054987894534
Li 7.862929152199288 12.117204412603042 11.305595545361198
Li 9.639006078639943 9.959742360895126 7.475685093772395
Li 11.437812538784996 8.940083576899742 14.386622138960524
Li 9.46241934756004 10.343156285142578 12.748597235406821
Li 10.721546653750258 11.471992065064066 15.154694232052144
Li 10.146230050797097 7.699067835528691 11.899231569322687
Li 11.08235374728872 8.536650376275194 9.307314339177003
Li 9.3442923298369 14.286738869922829 11.721105274769396
Li 14.008939142102882 13.156057384581114 8.417080804535065
Li 11.322338589539296 12.554107526242007 12.604780555414761
Li 13.697097127589265 12.302961195615072 11.072152768635888
Li 8.340442228148264 9.227317337274297 10.299674878097635
Li 10.245594761589265 11.243034501161176 9.939212789910682
