16
Energy = -22.20879602 eV
Li 10.225722193101424 14.560059641850868 11.601222764914432
Li 13.357670701379627 14.209213365176378 11.336101588952214
Li 11.899567155655697 13.098348394407571 13.82031520126898
Li 11.563021767124875 12.127720827808977 11.1205478406317
Li 11.465397959055814 13.791700122450488 8.847104902521234
Li 9.200327910852975 12.010203533978913 12.863076034300926
Li 8.75394825702965 9.075692230565481 13.734498416599706
Li 13.863091279171055 11.85175261447106 9.407111927570808
Li 8.881211352022007 12.429123722054822 9.844009241873351
Li 11.100620333784068 10.796202593389122 8.558850995948413
Li 14.085856527396427 11.428475602622738 12.433172053554253
Li 12.66233730982437 9.358973142811251 10.645274808759787
Li 11.481594245497561 10.138053146495928 13.373283737739557
Li 10.7197559086423 7.778535797686507 9.048632038641125
Li 9.742526431727239 9.742549211958666 11.013948638724807
Li 10.893111943566574 7.420552811503277 12.154535881882266
