17
Energy = -23.24640546 eV
Li 12.939859251553639 9.232589218081356 8.62447405244982
Li 8.582573336912027 11.03052546873885 10.357168331613956
Li 9.84736239646752 9.499185781806258 8.066640625153934
Li 7.252095846041436 11.253271860472884 7.9726425619418775
Li 11.242817446061501 11.701206973493633 9.213669659912748
Li 15.706527652504215 9.07958315346025 9.952045484423552
Li 14.363178869050858 11.741319063044088 9.00388586262182
Li 8.252988557286612 13.528469705673153 9.80559484376298
Li 10.735122759747298 9.130268676934163 10.727721169167049
Li 13.231081829140638 7.488778835400421 10.9957663237002
Li 5.893808359602531 11.440578771397181 10.737948501883308
Li 7.891069059737267 12.56953390956503 12.649287321825541
Li 7.281751948573604 8.815792461263783 9.878382390324473
Li 13.30251876706593 10.314124269797121 11.15425151050247
Li 10.765056042594589 11.730696440640886 12.106046543779334
Li 11.723984692316218 9.246377703963427 13.47181381135207
Li 8.50349188787144 9.712986408795883 12.79794970811259
