10
Energy = -12.0259855 eV
Li 12.029365094936123 8.894139002694434 10.227405065751636
Li 11.577229192350282 10.847702786680722 8.152738869426596
Li 11.062119992556212 7.982094554547571 7.570875125505048
Li 9.844464935521383 10.879928843853827 10.568228506677581
Li 9.150067532999357 7.989680310503774 9.933768377040145
Li 6.798855740307848 9.881192102250296 10.293116438933055
Li 8.712030726387356 9.875270738123385 7.931392427115647
Li 8.02070925896585 6.9856068560910485 7.297082412772016
Li 5.835607883156641 8.968146353487414 7.634352414304346
Li 6.287654642819058 7.014343451767382 9.709145362474173
