10
Energy = -12.02471125 eV
Li 12.240076774473787 9.137266017686608 10.444635367853182
Li 11.779902243306786 11.081943944453526 8.380499607966794
Li 11.284694155984099 8.217730224021095 7.792055389325975
Li 10.045561703036284 11.099918197185461 10.786268599092073
Li 9.373306611095908 8.212520805435355 10.148026479777256
Li 7.018102384714528 10.084153967237706 10.50996329694576
Li 8.929732407965663 10.089468418958814 8.154559507967733
Li 8.256579190676472 7.2027408932569355 7.516252887934453
Li 6.06190163819638 9.165624861145382 7.857891779199212
Li 6.522243360128561 7.220732670619131 9.921947083937313
