18
Energy = -25.59020314 eV
Li 8.589694530866952 8.876496508830952 6.8927671273843085
Li 6.942417467734773 6.627890984497343 8.033909593079583
Li 11.588918245279936 8.291417462394897 6.8353923360736895
Li 10.533481018502549 11.21997979924956 6.609237602464587
Li 5.834544307962902 9.608705175068733 7.7787673105967725
Li 10.770966176327693 12.568386515898208 9.372328650764079
Li 8.070107410270817 11.502212973571467 8.396581792554453
Li 9.798712371868703 6.886469093071991 8.833405113347553
Li 13.021233270076554 10.58966089716043 8.425460380648031
Li 6.080032691713287 10.994019600599565 10.556309873947683
Li 11.979503233415933 10.520087986562846 11.387291507755863
Li 7.749143944711146 8.779985493444352 9.767718138711498
Li 12.485815612397078 7.7927840300649045 9.840040869911144
Li 8.964033467903615 11.041775172031022 11.3121556684575
Li 10.522912788399072 9.761591893797348 9.045412711619518
Li 8.015266791992339 6.113676454366701 11.049745194662814
Li 7.3088799575880214 8.886562860001634 12.60081107127943
Li 10.021674799672331 8.215635186072182 11.540003143424574
