12
Energy = -13.62910192 eV
Li 13.720109064007774 10.338655159273511 8.91518286854406
Li 11.836681048065456 12.803543487161988 8.68439683602641
Li 11.767667704012364 7.887579377072613 9.020226004641003
Li 11.275539001679379 10.31937499318979 7.133147269801155
Li 11.01929493867796 10.384428492680142 9.838497048231172
Li 9.560864420992138 8.445101464494105 11.26576131278808
Li 9.289835799938109 11.35754948574997 11.922327852719492
Li 7.389456120518213 8.908278269259698 13.123021074188856
Li 8.927703682541658 11.716870928439834 8.622567952625351
Li 7.063147581668648 7.108920514363519 10.569230005693946
Li 8.886421346598015 8.723341940111524 8.420692281470032
Li 7.227250219375045 9.97032681627806 10.44892042134478
