19
Energy = -27.01919179 eV
Li 11.2659222234494 9.143521387620236 6.752199582937251
Li 8.263367737520465 8.300624222610502 6.800946436092764
Li 9.08167198480893 11.30772004833633 6.844593832023224
Li 10.409490115643143 6.88687251878762 8.536124444723617
Li 11.629209182774813 11.622351409172808 8.638889907965973
Li 12.419105414426703 8.985311483185614 9.668489353027272
Li 9.535805802107733 9.534634295421755 9.00248348815493
Li 8.90669995364389 12.31578182552454 9.787952669530013
Li 6.784276841890413 10.27649339848156 8.682115597742811
Li 7.5874942638143 7.589910118248166 9.729213342457022
Li 10.189759937387075 8.045492502443492 11.448632115161852
Li 11.454924495619291 13.635039315122038 11.018273727328914
Li 13.674711421890388 11.511109401871396 11.0331638493934
Li 8.022365201338806 10.097399386872947 11.526853553120285
Li 10.908512640695163 10.896983746479082 11.429385986470106
Li 9.166250941134136 12.64907396561576 12.878123847135658
Li 12.77911814470762 9.239428502786707 12.77015289044465
Li 12.124058880922712 12.146123739411003 13.654798925680636
Li 9.943247695818805 9.962121611602726 13.943599330202932
