17
Energy = -23.57694612 eV
Li 8.570050738999212 11.04335866374936 14.303916808717847
Li 12.748301689338112 10.184682868258552 8.272230339758009
Li 10.288564740398071 13.399586933785024 13.246269202866493
Li 11.604261821493003 11.30394029371991 15.60789259782407
Li 8.309345697121856 11.99275726084858 11.423632099066165
Li 13.627416130661691 9.567937343208609 13.200260797089541
Li 9.025541660647422 9.254809974661457 11.350849058862641
Li 11.92792411288604 9.204256046905714 10.727147162838936
Li 9.551736244131302 14.225124632047859 9.88084375010694
Li 9.612660197486122 11.020581165551821 8.77796533699711
Li 13.7850303395416 11.464849447582672 10.693299051612138
Li 13.08797019176951 12.471364652791424 13.312795044038067
Li 11.045139477676141 12.028949993257942 10.752100890592825
Li 14.7645819934371 8.704211715332283 10.294524155175845
Li 10.94509561654871 10.5726606797291 13.050121357381231
Li 11.980623479062622 13.094859594374316 8.431476027499532
Li 12.421461987874219 14.426671689867792 11.158816732107457
