14
Energy = -18.7774619 eV
Li 10.162140772547849 13.260255803255134 8.226168851532625
Li 7.187270802441596 10.7544358827455 7.308602785115068
Li 9.91724940684997 10.316816285917351 7.677339319719764
Li 11.125739155974244 10.759064862045381 10.306680003523688
Li 8.485123798185471 11.828695134592206 9.794019015136426
Li 10.79905207512588 13.401153885722964 11.327008774999214
Li 11.041680447774821 8.110717377380341 9.064074863708951
Li 12.132126963035578 10.80749209471621 12.971506826450842
Li 8.644084508785904 7.6027867023275775 7.2932366450333435
Li 12.821899907683406 8.099419463716224 11.485480369802259
Li 9.214027332397936 11.133723871230035 12.451901165784781
Li 8.411271216192874 8.996334098416456 9.709864024711939
Li 10.173953523459327 8.520381654753683 11.87931767169274
Li 9.569238348158644 6.064403834890286 10.258189253048783
