11
Energy = -14.26721582 eV
Li 8.832846065737845 8.960612587112761 8.387389346989922
Li 11.021326005378556 6.7137209683494605 8.877718071268172
Li 9.425354208473255 7.9146776232747325 11.072953872112604
Li 8.981113441560437 10.910836963213747 10.651265835153117
Li 10.963618074276575 9.874650130345541 12.627590905482712
Li 8.829336770713418 13.767097583270361 9.881756589190374
Li 7.08120514823864 11.59410500302329 8.599139979913346
Li 12.263015425943726 7.2258078999749635 11.624268788673417
Li 11.49910696148428 12.31209545317651 10.62257569204913
Li 11.412562352831674 9.419689114413217 9.812360989720517
Li 10.024809858570167 11.641000987053841 8.177274242655265
