14
Energy = -18.32247754 eV
Li 12.760361167782811 7.85112616245658 9.869752464724437
Li 12.590585409176414 9.955303533284674 7.671055693051102
Li 10.024846603449811 8.082467034129028 8.19931566981789
Li 10.082535306509499 7.593504500001108 11.135486213136558
Li 11.221332759183722 10.143425896629763 10.065221092648844
Li 9.792376301734874 10.9842086671747 7.538499372787
Li 7.376531039839649 7.470426410227303 9.91601536826931
Li 7.200165175735702 9.536344372426882 7.688337325544715
Li 8.397609938287026 9.373479832109266 12.754903083147811
Li 11.460616694715359 9.617962407173648 12.772162445883836
Li 9.747847294306402 11.996535928286127 11.902205086232748
Li 8.560143292186783 9.967332680224747 10.060686870436948
Li 11.219929466830306 12.806414035941422 9.336928703370056
Li 8.153412903755132 12.606869514894262 9.363087300061597
