10
Energy = -12.4973658 eV
Li 8.833408953947318 9.577393272166407 7.708497122099378
Li 11.756536084133097 10.23420760934735 7.937550206266197
Li 5.957904510587828 8.609691123823707 7.833404534471403
Li 8.14379459722276 6.550769616372831 7.613191999107676
Li 9.701328653983706 12.257379969517245 8.73541905425865
Li 10.605331788317185 7.51325050727242 8.770659507804314
Li 10.045091496556413 9.872523098960807 10.404166787498141
Li 9.074149135919143 5.563798195560372 10.406597985420174
Li 7.793228787738517 8.049312585765044 9.953964864111692
Li 7.208818351006543 10.891266380626046 9.75614029837461
