11
Energy = -13.87600296 eV
Li 6.664047640258548 7.865501846090134 7.121967301763765
Li 9.471354035630421 8.661875292381668 7.82971396792771
Li 9.317344923035433 7.999605535731244 10.50991214832715
Li 7.616794095377381 10.651904158791268 6.213245961757937
Li 11.590330855047434 9.683378126765865 9.700577633387075
Li 11.443525187032279 6.638674957324775 9.247725147784514
Li 8.517746128052027 5.912772432740658 8.596131946046262
Li 9.227766643551785 10.843258358657343 11.01737326211912
Li 7.363866557105956 10.052708042727499 8.95469135935988
Li 9.732886471888552 11.63226936016355 8.224808780499053
Li 6.510289335903275 7.514003888625623 10.03980423679411
