13
Energy = -17.16372895 eV
Li 9.939808326217067 11.741986648380623 7.362902128252942
Li 8.307494422934862 10.247761661677186 11.932483973472849
Li 12.370475505271497 10.29457366352423 8.513081182032215
Li 9.043703213898281 7.606908268537657 11.597107497352754
Li 9.338452753622498 7.042415752521307 8.478321984575107
Li 6.829524300879394 8.66307729685802 9.685815029408026
Li 10.556028592229337 9.01196633104669 6.452397292054722
Li 11.567382172161334 8.38454462104389 10.681819318548222
Li 9.487610877572195 9.614120613254627 9.094908528517363
Li 7.7129699946403605 9.619257800886977 6.868837172084329
Li 10.756993130396712 9.310346069506584 13.444260263253915
Li 7.592667308148495 11.578467173487144 9.24758822870827
Li 10.822356902028249 11.21004171666991 10.965944666950364
