16
Energy = -21.80215746 eV
Li 9.920790895146425 7.954850809297616 5.8041635302273065
Li 7.110737245629097 9.490180421100543 6.616132258561581
Li 9.743252265893517 10.793633150162698 6.541321977671103
Li 5.858121137475245 7.783638280741571 8.874583741574204
Li 7.580241872797026 6.370391483988174 6.952439790318061
Li 10.385874569915645 5.977291882592653 8.078738999236862
Li 11.638143096746035 9.036678577318801 8.244007092564582
Li 7.467604632431523 12.44238006740512 7.586683292422976
Li 9.688811697940697 11.221614910494637 9.342044497874681
Li 6.85780724220787 10.330688391387174 9.623115520112556
Li 8.921443319797586 8.416152292155207 8.453836695549224
Li 11.868222243438643 10.196815895461041 11.128032187399471
Li 11.00920149026442 7.379735923697481 10.584598435116401
Li 8.09111913505191 6.41487765258931 10.219216739540315
Li 8.968560289193919 9.174950819689052 11.390789464096013
Li 6.145462992113983 8.27151356796219 11.81568990377806
