13
Energy = -17.36125543 eV
Li 13.726232611925763 10.756583382036915 11.349126501000288
Li 12.537869193308882 8.814824937064552 9.253010254771583
Li 12.949905445906285 13.71669415187545 10.59376774440805
Li 11.349537434899819 11.449270203289618 9.835102768348566
Li 11.264549086969444 12.038723609972493 12.436401209126577
Li 10.780633334807805 6.4820981692078385 10.263371198171239
Li 11.120019060355206 9.094057331255788 11.670583081881462
Li 9.570468894931459 9.00612127792959 9.223726900168282
Li 9.800042537598234 13.811033411575842 10.537930287107978
Li 8.758303101385655 11.762816551802754 8.467469251686333
Li 8.710487133938397 10.97090525602143 11.169987733445215
Li 8.286344056565508 7.946255851291769 11.437338117677193
Li 6.666411788736267 9.694017350959866 9.411217866511766
