14
Energy = -18.98764881 eV
Li 13.12737482177084 10.475978079619603 9.67577806101873
Li 11.99825529699148 9.865268148352802 12.436527315773832
Li 11.46687147481116 7.869651147674493 10.151319766123432
Li 11.923362736548755 12.779327863103388 11.331390505978984
Li 11.089877234529213 9.551273951622338 7.605130005923988
Li 9.32934727220532 5.815988197767679 10.635333051599721
Li 11.352561141520171 12.57287982169565 8.2781839206734
Li 9.04901729099003 13.265678480118435 10.252624277461363
Li 9.495749187634923 11.54397927051925 12.775582611570384
Li 8.58744287141307 11.246475528437301 7.970726280593832
Li 10.317837983999683 10.699596093218933 10.1864812601592
Li 9.262758366351228 8.503212914284244 12.023000606516899
Li 8.710240016627194 8.334139686918268 9.11981536056401
Li 7.45348763601413 10.640734148074959 10.722290307449283
