17
Energy = -24.01298212 eV
Li 11.505727285614338 11.196374658970392 7.316804751486167
Li 11.01450492593604 7.500661093127944 10.51155983291274
Li 8.553510649514934 10.556331630571652 7.40862173742073
Li 10.607349163083988 8.172123385165563 7.617435678754193
Li 7.639106432002507 7.564753551902718 6.9865738742899355
Li 9.532421793420612 12.882484511031068 9.109990276660108
Li 10.530130695830508 10.347371494418669 9.847345090980166
Li 5.9119439931891415 9.56659263403856 8.532015158220737
Li 8.734199182151968 5.912481008196235 9.379854488574406
Li 6.536967596050129 7.727551404614762 10.96805018209258
Li 13.068802346934909 9.296444424272625 9.17052365211826
Li 9.118405016715686 8.972812597902196 12.17497955813324
Li 9.97000991120566 11.99905217289829 12.099303674834696
Li 12.410342241854009 12.24214833323955 10.104499192850307
Li 7.57530590495479 10.94466234347555 10.565864702433322
Li 12.12431066999891 9.80421719550877 12.129235431776635
Li 8.44431214609053 8.591287515213802 9.354692671010577
