16
Energy = -18.33379231 eV
Li 12.001159698059945 7.694144986690251 11.011623150275621
Li 13.533964338433034 9.489549623307994 12.48410382858224
Li 9.325732089405081 8.045986999171241 10.391240332193135
Li 10.716262576865685 9.925571447854953 12.074729323990526
Li 8.309471469503489 12.076885721847646 13.87038810235135
Li 12.676998608742604 9.02656660342604 8.806310041810715
Li 14.052047447364286 10.725324591392209 10.231236987935196
Li 7.968605363410632 9.79274546642033 12.44762444139624
Li 10.970107654027714 11.912914028910798 13.956607162924614
Li 10.169023222551656 10.656444980996476 9.477303179511843
Li 11.396140457832296 10.455946079075858 6.830177986360628
Li 11.010576452759564 12.66115258732142 11.310555989846842
Li 8.394830982832433 13.364302808780646 11.562396504719528
Li 13.301047771392096 13.272134434394738 9.901492540076278
Li 7.62786236870456 11.20269838446837 10.233680090684395
Li 11.390405934437458 12.792853782347997 8.037048771016618
