12
Energy = -15.64038382 eV
Li 11.117254903948545 10.021047211170163 12.618271879390386
Li 8.61396750668411 8.689574142644767 11.622787261917614
Li 10.076125992073013 10.464438451900092 9.93635427511601
Li 11.015614002667983 7.878869343052174 10.405110542347403
Li 8.821154763871805 5.80351802031159 10.78803377661791
Li 8.363259921995297 10.879358067359924 7.564576723334943
Li 8.070182090750786 11.911912730427407 10.540583962878276
Li 8.572229665955634 8.12919181517662 8.774468808789953
Li 10.9753361430769 9.702865148394094 7.533839243075338
Li 10.946759053244639 12.770546556109345 11.466256200512484
Li 12.67222661633972 10.837947328487285 10.117580255181789
Li 10.57655465191236 12.731396497487623 8.452802383358827
