13
Energy = -17.54319898 eV
Li 9.306678567828762 9.306058063471797 9.30597397800454
Li 9.30675932959014 10.806296171424151 11.73227516371693
Li 9.306757802889406 7.807023828106049 11.73208639787383
Li 9.306528421582385 10.805926265226804 6.881257689326798
Li 9.306478088045901 7.807265913003007 6.8815242297294805
Li 10.806067483144549 11.732123250045959 9.306581432582265
Li 10.80587571269733 6.881233622781964 9.306431181456405
Li 7.807149786616877 11.732199593050087 9.306553009730337
Li 7.807399708710002 6.881408480854526 9.30635950067155
Li 11.73224482560454 9.306588287436286 10.806132282863992
Li 11.731823525535383 9.306523782536196 7.807410089409137
Li 6.880721554830166 9.306588746548018 10.806040231101361
Li 6.881230557250997 9.306479359842387 7.807090449206676
