17
Energy = -23.58454742 eV
Li 8.849100075271584 12.77914553333542 12.319479909702242
Li 6.992411772872397 10.421713328653714 13.145915610876155
Li 10.047026085316165 10.294759193311505 13.615058294100075
Li 11.477982131816857 11.690283290437588 11.125568027226036
Li 9.342720579655092 12.548630180980734 9.35366878693392
Li 6.496391019219677 8.731713283573006 10.57583646012774
Li 8.634053920191825 7.863030485440622 12.572635357411832
Li 8.897770819735495 10.198539141543758 11.090389842986331
Li 12.147967076893801 12.605633219493807 8.260071596220945
Li 11.434089470716021 8.671286329226172 11.222972707517995
Li 10.855127391082894 10.091589479746654 8.68744544675552
Li 7.92846449551906 10.091497968138402 8.293237142607648
Li 13.567093758236243 10.113699278846644 9.295672121729108
Li 9.187027630463902 7.7349160655904585 9.431250502290188
Li 12.484083190496197 10.126841443597298 6.4015753966323485
Li 12.156931938339616 7.676772144134604 8.25635389820319
Li 9.81122395035958 8.539162019699571 6.5198028125909655
