18
Energy = -24.79410556 eV
Li 13.51073111014693 9.511881008033024 10.66660343231448
Li 11.531271205937248 9.270493864725209 12.806397764707928
Li 10.91979159734364 7.802917243359019 10.228210520893654
Li 12.274288100844018 9.216637623620207 7.84979608241214
Li 13.03713357559218 11.836758625993266 8.831668199243508
Li 12.22518922454061 12.10851494625214 11.96006910254056
Li 8.794751605455941 9.888902491291672 12.751338698970379
Li 9.249198428578952 7.058417689423806 12.633927036401127
Li 10.719380107343325 10.567636893264869 10.2018092971699
Li 9.310656349909994 8.920494479240922 7.81162035757345
Li 10.675453413952527 13.522042846368853 9.578008495525218
Li 9.226407561609907 12.541279446382983 11.919156051358623
Li 6.380106221159092 8.242057592269159 12.959697289822918
Li 13.267445162699513 11.190751364632725 5.825923867278731
Li 6.444392131395003 11.034865481556041 11.564404410683421
Li 7.986146739337716 8.70843298737199 10.47702401341273
Li 10.64011576324652 11.518237269993374 7.221222267488932
Li 8.300307685205498 11.501522356938038 9.219782711786898
