16
Energy = -22.0880248 eV
Li 13.302288461616676 7.6610258453673445 10.315478669991025
Li 13.611502105947883 10.396895592847285 11.951251789223093
Li 12.670285298352338 13.039722156781904 11.005172667429486
Li 12.651115249549882 10.612077599468375 9.11467523751828
Li 9.77678070955284 10.760238848415428 7.708211183350587
Li 11.217885590587365 9.193214562626398 11.330718076951284
Li 10.98224652688261 11.644289840310226 13.175974244918693
Li 10.984086372421057 13.420501586918478 8.508339714124652
Li 9.999149416968535 6.695884264649217 11.197036282393748
Li 9.77547482716246 14.09331656542697 11.359013286606771
Li 10.27110040299171 11.576931742243742 10.421886742915092
Li 10.817080243201776 8.247077938562738 8.785313624827484
Li 7.931784462641114 12.528738327031364 9.329250107041357
Li 8.42505338552397 9.372727450183962 10.238975204671323
Li 9.145603678840141 9.07452566648741 13.144098201023313
Li 8.05384950836226 11.673767925465595 12.244398154344124
