18
Energy = -25.69511563 eV
Li 11.134305603280364 9.920778288348895 9.160021297953556
Li 13.698165937520802 10.585421206956644 9.585254299329376
Li 12.186343730138727 10.231897824517128 6.697802574446298
Li 12.526203359396748 7.636713266493305 8.625902073035814
Li 9.861077478444235 8.279122595827468 7.219747265513242
Li 11.542973541241432 12.58778327560295 8.569547614146964
Li 11.235815523754255 11.748010532783963 11.4495329150469
Li 9.880353949917902 9.46231830361646 12.758578637583433
Li 12.228615694416321 8.56789544206834 11.50541784206689
Li 8.813740037182631 10.538443903909814 10.346089214267295
Li 9.706636961301568 7.712962882180195 10.21350020266508
Li 10.060653108968221 6.557958469579735 12.835518352482968
Li 7.29812229917956 8.786315542784951 8.674079346861541
Li 8.893541636727619 13.25620474172628 9.956557228538365
Li 8.927606793646092 11.157708886588257 7.60544686431088
Li 8.10130758922983 11.90270387517325 12.581039245742684
Li 7.270730930121724 8.700057360415608 11.785551489717498
Li 6.364459980337604 11.456422243814878 9.850276574527756
