17
Energy = -23.95056912 eV
Li 12.373850171457175 14.267284668014199 12.998926002384794
Li 12.784789791298147 14.234049041293963 9.801914881580508
Li 14.712125924298643 12.383267820949941 11.568648022043636
Li 12.072363760458261 12.18947141624024 11.381431449734855
Li 12.845850737169153 11.363862576285284 13.978782197375644
Li 9.87566294689169 13.966873737157831 11.155885043647299
Li 13.382236369878873 9.628736686684068 11.7271465842839
Li 10.540335229961494 12.471572438087126 8.789746709419985
Li 10.016195593129282 11.917297673860622 13.259378591254062
Li 12.94595962041382 10.801570167325348 9.06065726853993
Li 10.41456413070181 10.205183412493279 10.788349712161356
Li 8.096559676455941 11.40143415114893 10.183298228606596
Li 10.003302894842134 9.628414241926071 8.098634287026483
Li 10.827311690426143 8.83409945224858 13.076150150154673
Li 11.759194026501136 7.891200741591206 9.97274416782251
Li 7.97078832715467 9.923743953373858 12.837555335294146
Li 8.733869060464434 8.1647226740033 10.539591416949637
