10
Energy = -10.87560549 eV
Li 10.774887853775713 10.11057860425289 7.816103023994283
Li 8.717173203000733 11.6559473893612 9.537491191048248
Li 10.982344654271946 9.996729600303533 10.93265414768351
Li 8.844323184460901 11.909496291101163 6.557875970635398
Li 8.11821576375375 9.245232111683293 11.963525653071883
Li 8.990781298257568 9.00348876957925 9.479161158511598
Li 7.959626819938683 9.08891184776341 7.006715607089127
Li 10.087623859186177 7.098963043859521 11.08617208557887
Li 7.439856746102186 6.865054895497723 9.61520780538215
Li 10.128162825258048 7.068593654603726 8.048089565010649
