14
Energy = -18.91664032 eV
Li 12.20281429698878 7.79629062665995 9.054017287210465
Li 9.526740718515878 8.917406213370146 9.202342586172016
Li 9.665733859472793 6.051144281862803 8.770286568497141
Li 6.840095369664856 12.750014857120815 9.954584044466232
Li 8.424983396210035 10.851763414295474 7.283264038010046
Li 11.590379191908768 10.597800352361341 7.948197628058706
Li 7.437816114978792 7.75136457475191 7.507937842067958
Li 7.4263995621170595 7.294898922423216 10.481418624229963
Li 6.65269869233535 9.94135814224451 9.36471028202527
Li 10.299223802466186 8.193945064065646 6.641518401903112
Li 8.39947283961835 10.19208347087046 11.636506455543428
Li 11.589555921420942 10.149907511786374 10.934028035004259
Li 10.281266849439776 7.482078663327077 11.452281138940949
Li 9.579578384862549 11.946702843506696 9.685666067870685
