19
Energy = -27.50988042 eV
Li 12.738298086915323 9.88701799753913 9.249505204892943
Li 10.491000846073613 14.74746679251433 10.779937246509705
Li 9.761578669019304 12.060636639642437 8.468698984894045
Li 13.429715119051602 14.423006576188186 11.203770770690136
Li 14.58134620819244 11.931559470346599 10.418826260194429
Li 14.984349933301885 9.372580055875373 12.112634248278788
Li 11.490481001840024 12.957271250479534 12.866181366717795
Li 12.311775663721166 15.22624067446199 13.96692922949044
Li 10.19205439124318 10.523819923247121 13.67927671362775
Li 14.258297808964416 12.459670480160298 13.449733777693341
Li 12.59931302839463 10.532883358895248 12.086550432764529
Li 13.096504148804298 9.750465582448676 14.581603348333273
Li 9.33582394130192 13.847265737196754 14.135685489257893
Li 10.099939949626247 9.796556814796364 10.67280975861432
Li 12.821206575024759 13.44719719836049 8.271736948594816
Li 8.949308564756722 12.293838242796653 11.503982181840026
Li 11.640356877460158 12.252865835331416 10.286277130539936
Li 12.030301231719223 7.95613605148442 12.249266432291977
Li 11.841857399942954 12.53420995663142 15.478017300179825
