10
Energy = -10.56581498 eV
Li 17.08750220995947 13.816702118880311 14.960950774730424
Li 14.448812686357881 13.117729641548118 15.730363094502223
Li 15.703205604628778 11.939004034092353 13.24330041321203
Li 17.874652132836694 16.184136164585663 13.48441876124253
Li 5.207574152696102 14.296851039882437 14.458378111444084
Li 18.442771643215842 12.966824281233144 12.546980107894163
Li 15.032726050314144 15.75773770187042 14.371061604705776
Li 16.058418160556908 14.509255119640226 11.953792640450105
Li 13.410523383477123 13.827930701371862 12.718373695237357
Li 3.487071691038539 11.180744024891696 14.63299014168518
