18
Energy = -24.9061319 eV
Li 13.048581747162066 9.396283433050387 9.571504856472213
Li 12.206557368131602 10.363872823792038 7.139267582198875
Li 12.619429007373503 12.113823238648749 9.485694451960216
Li 11.870299117049283 10.625142954263529 11.957020673546257
Li 10.72284753689955 7.881440757003392 8.421116162393554
Li 11.772049046180525 7.758336081259493 11.153382950931352
Li 10.52461518405333 10.54128340312658 9.106960417963204
Li 10.493094208277029 12.673595730577526 7.614062867966644
Li 9.376578493849005 10.10829404631499 6.739538220665741
Li 10.019255307760174 8.28928997003579 13.201908088096864
Li 9.548221436671822 9.512244780122192 10.953709621078929
Li 8.05153803312846 11.77755670930102 8.47617636223185
Li 9.780826579346712 12.650702427587216 10.742516644151724
Li 9.195638041382598 6.866883970200478 10.785795740546812
Li 8.924852239664519 10.970424522975874 13.065618413701358
Li 7.759936031896035 8.904224373261144 8.933865220847192
Li 7.36783393333762 8.665943769454273 12.0668055345943
Li 7.265691683587142 11.146729664724344 10.877151755971177
