17
Energy = -23.96050255 eV
Li 14.727623886703757 9.859677305715351 10.081133357739494
Li 12.45321736155881 10.668234539780341 11.115962289321711
Li 12.315867749215649 11.136467671132287 8.420877126371684
Li 11.410711007333845 14.288321098413851 9.440951743984058
Li 9.94388576972429 11.643388614631052 10.302540330626526
Li 11.791077772249139 13.131716345313666 11.869306018623258
Li 9.921633890508463 15.004279306299875 12.021952063335823
Li 9.726795571972179 10.166536084445548 15.506069905331655
Li 9.493560827341154 12.204449386123436 13.302311238709546
Li 13.345242418480245 8.636706624045473 12.682265525082554
Li 11.963059648682734 10.976697213690864 13.979379624414623
Li 10.246575382141849 9.341114802096628 12.491021573471667
Li 14.030295771556807 12.982026878717772 10.017447590682508
Li 14.312830241619546 12.098584661762079 12.776055892508442
Li 11.734015035028177 8.474357716909406 9.831670803015367
Li 13.182165949646592 15.357188436156932 11.963846238892234
Li 11.785784738205217 13.88937059658541 14.490122418817883
