19
Energy = -26.77841049 eV
Li 6.56682369992083 10.676583552592554 12.124645062781912
Li 11.689807682641588 9.666283143305963 11.22650804301749
Li 12.171528131877182 9.764650088794378 14.189241686076027
Li 14.619026170243915 11.599544770679078 14.782869852124604
Li 15.77476225692542 12.44185636727536 11.866184186158844
Li 8.337846956888068 13.127239283425977 12.53580300352322
Li 9.397821235570673 10.408106999644902 13.20374127258806
Li 14.000308949976432 10.77092772968412 9.800390813637549
Li 13.264179878360169 11.694636453343294 12.463774120943357
Li 11.28366036776854 12.605958420064592 14.464572030250192
Li 11.491021333458539 11.757345470786749 9.00222865010903
Li 10.83690660860195 12.447575047200933 11.699781290761718
Li 13.036133572826817 13.859202176135305 10.506756726044229
Li 10.858439605567439 15.046595873174155 12.55660256069451
Li 9.756879076895059 14.12530173068711 9.819019003927101
Li 14.699123753830326 9.367116789469506 12.403470869516346
Li 11.750317286310583 8.893392039071278 8.464216626583067
Li 13.721883330483571 14.219636876700694 13.457849736729361
Li 8.98378567950234 10.844691797236301 10.223268060646166
