11
Energy = -14.32120519 eV
Li 9.399343477815814 8.281003261191223 6.422416299594839
Li 8.629660747346334 6.3199374895518305 9.031743434057919
Li 11.29820773308406 10.388331539318052 7.1380598515768865
Li 11.482214080291792 8.032964780686227 8.861565676145647
Li 8.503690414685915 11.179606844910502 7.471858820519102
Li 6.4794605513677075 8.523390998646809 8.07777098378277
Li 10.567005201471597 10.93370101987088 9.919625959324655
Li 7.3102003572508725 10.399664682194278 10.55393547186432
Li 6.688763713663899 7.556350501534616 10.830672203896015
Li 9.461529991542365 8.192873399432887 11.500137092310329
Li 8.97092361750901 8.983175482662691 8.983214092956901
