11
Energy = -10.38050414 eV
Li 6.98689103040468 7.528548457743806 9.471305389778712
Li 9.494627485714192 8.592188571305782 10.798417106755773
Li 11.682659671757644 8.115638129472742 9.032006497108565
Li 9.062513834981461 8.671269498641193 8.003864592518033
Li 6.779891396896874 8.195181445828485 6.5821548684862625
Li 9.173959510002524 11.294262056781053 11.877318966522731
Li 11.995655507973884 10.030835659281413 11.67227611688498
Li 7.418985917646726 10.416464471338866 9.321280128243389
Li 10.377455935097196 10.837012338027991 9.327812394077657
Li 8.592084338287647 10.918241528141788 6.609507712722878
Li 9.069316377186935 6.034398849386772 7.938097232851305
