19
Energy = -27.51041293 eV
Li 12.118278924408937 8.986605965661305 7.57948498587676
Li 11.101860415665161 14.598645189427597 9.388343302372391
Li 12.453194695685639 11.899145888672997 8.519173359829477
Li 9.537191155224317 11.76816754832942 7.8626221649485615
Li 11.59918578585582 7.334225441413571 10.165410194212317
Li 9.063221762391292 8.150790869061284 8.543650359692421
Li 8.016931529570392 13.71024225502204 10.459774743562827
Li 10.272575996947994 12.355524651382135 10.484117200262956
Li 10.759825740558995 9.82316340174062 9.70681280213161
Li 7.935248694981372 10.590658130222756 10.081911792892699
Li 11.362954120806972 10.703515087499632 12.26829003628879
Li 13.086223330265906 12.836034759769575 11.145308641540447
Li 13.500515409867619 9.826657798560046 10.548473609252046
Li 9.385907245598485 8.64302263385325 11.955626613782627
Li 8.55858567350548 11.527927811369592 12.714820119059903
Li 10.842326203445534 13.438329149385787 13.022669441873461
Li 12.328667815032675 8.350157076404129 13.069870536907214
Li 13.537339863289414 11.170895486181609 13.726349421351923
Li 10.543635292601973 10.28996051174673 14.760960329866444
