10
Energy = -12.73893134 eV
Li 7.63852650894896 10.48161370381275 6.985460547095512
Li 9.11882877807695 7.584026850345464 6.566359620548321
Li 8.659984573471501 8.780734054963986 8.961665087632051
Li 11.473464892807758 7.3328321950676685 8.35420783954505
Li 10.630137357800539 10.078486175821212 7.61005988232118
Li 9.314191394425398 6.47570556922887 10.208722316312684
Li 8.598992851688356 11.352238599115312 9.775403348467085
Li 10.804747135173033 9.136873030271616 10.621076880048165
Li 6.044260136488547 9.949150902469155 9.464739502886838
Li 7.908356821018315 9.01982936880344 11.643795425042299
