18
Energy = -24.66882347 eV
Li 14.987166278630735 14.10764065031226 12.558659559144914
Li 12.764330987569535 14.985784051550006 10.62183434508463
Li 14.092156612569141 7.9605570455123 13.799617726726488
Li 9.556214893974701 11.60532750464361 8.137216476234189
Li 9.710093376597142 14.709119424207369 9.150874720443069
Li 12.513670829260693 12.66794190770376 12.732396753880343
Li 10.708214602033754 10.700908185323248 11.703325774773646
Li 11.214836772061824 7.902485810855434 12.058761039546894
Li 8.516027738800178 12.332496215346044 10.866814624843977
Li 10.240597741647223 14.264181176365991 12.150198519177374
Li 14.173889934022462 12.201298237513308 10.44265020744922
Li 14.906411943428738 11.122885483236022 13.582440555246643
Li 12.035461162316695 10.070177946723536 14.20532742386158
Li 13.355068404043683 9.762788800539862 11.663414832892
Li 9.085901284905608 9.28011130408867 10.09085138408759
Li 11.394877888381892 12.607108655802566 9.936923817230205
Li 11.895514687325225 9.80281714337667 9.205099630655944
Li 9.489576919972098 11.91488425262361 13.886725655489732
