15
Energy = -20.41750733 eV
Li 12.835801721939697 9.41936625461154 11.956123786970226
Li 12.844301333118551 10.679982722619723 9.185218344023228
Li 9.184778904872978 7.717281622069733 7.519088402360235
Li 9.925400975258015 8.478517257144864 12.43199159197241
Li 10.851512261375284 11.073776942479846 13.735289942780748
Li 12.752985666422568 12.44850696740333 11.699941851253946
Li 12.154611767250513 8.597741036652755 6.9340808733393
Li 10.069415731880719 10.396469197622633 8.028274439848605
Li 11.216653175423323 8.24770166863213 9.688311772192309
Li 9.708324611915964 13.386774186179448 12.01234206742142
Li 8.006519799275804 10.909013876464147 12.431118080632722
Li 10.51361100939261 10.842488262776156 11.01762658655948
Li 8.255210776349848 9.16758192339204 9.985684789214696
Li 7.175606609497753 10.144999300960714 7.449535801174478
Li 8.21332455307577 12.125695608596978 9.643759254492663
