16
Energy = -22.06240181 eV
Li 10.408430917808085 8.88041315034798 12.800422690645167
Li 9.785219076996498 11.562927031695162 11.707958724728545
Li 7.739469894918718 10.342966345833993 13.534361996395086
Li 12.796662237546418 10.662847008432404 11.864962849260285
Li 6.8945594034899855 11.88940843260218 10.890755404240316
Li 9.882103745023835 6.995019093262211 10.5867571048098
Li 12.817986721735302 7.691938792555223 11.223862875088999
Li 9.078586394988388 11.347517311386467 8.720658748927079
Li 6.546702003324821 10.12499950073258 8.317388137970712
Li 11.90556676670554 12.182666079446568 9.338641164610806
Li 8.16431772765861 9.367976360457448 10.817708387379838
Li 13.7580430209769 9.756326808100972 9.073428829874436
Li 8.56200526814291 10.766858253109422 5.929774131153485
Li 11.109717593949204 9.542456995585116 9.970642342375038
Li 9.12365098198925 8.628952092052872 7.969448526281491
Li 11.411677143176464 10.273221457150292 7.078747322443141
