17
Energy = -23.72862287 eV
Li 12.302067714691093 12.075753842596637 9.63691044541731
Li 9.209232770881146 12.084038014415286 9.57800073633488
Li 11.029027933534003 14.444870343767649 8.573128696330429
Li 10.53391752543108 9.662896645493483 8.486499655576837
Li 10.863105566839417 7.479154489835468 10.636043264530276
Li 12.869788000736026 9.070063238123344 12.757766995042191
Li 11.029463927111172 13.93987064293149 14.232849918826183
Li 11.078533467948143 10.844954652151603 14.626451832109828
Li 8.197138300756814 9.37078208630077 10.627310547469024
Li 14.805423112929885 11.426323161331682 11.246825503800073
Li 13.23078386929972 9.271400966938991 9.849230664377373
Li 10.566496808947166 13.785783016555506 11.356514538857521
Li 13.373216077481564 14.381955091055174 11.096395386875024
Li 12.44367112682951 12.066581721877078 12.577097424892788
Li 9.039255277424498 11.71551138863302 12.774362812307901
Li 10.79070986726091 10.159088579793291 11.227901905354592
Li 9.654449861416799 8.634830988873125 13.226497182936429
