13
Energy = -17.14452658 eV
Li 12.798115994888182 10.41893094299969 10.12511694055162
Li 11.34437083982236 11.743666781991188 7.670376694501861
Li 11.597471380194424 8.727784852068336 7.958837564850585
Li 10.622868969908641 12.575927477120974 10.615845047852114
Li 11.592725434374952 7.833953532811843 11.02455014823141
Li 9.111821901485017 10.022717021355193 6.640776015062731
Li 10.36704747493667 7.467600869324981 13.79885291363015
Li 9.928971982717014 10.15295399607381 9.546217833727624
Li 7.201270136688355 9.552630746609903 8.985172760646556
Li 8.38975233629613 12.244544791912773 8.471958625851792
Li 10.711849474593464 10.097506374144798 12.469970820662382
Li 8.773470769840511 8.188504793749475 11.369483865470862
Li 7.965532998543668 11.031456853226908 11.43841239097695
