13
Energy = -17.58823809 eV
Li 9.722453472795607 11.49456195007961 8.130512273038894
Li 12.535443721563544 10.315556372735632 8.484288668583062
Li 10.055409089337205 8.56191472919659 8.976200936339472
Li 12.460494619710001 8.388750422428462 10.872862427651121
Li 10.761166322322811 10.755289112120828 10.75772300166024
Li 7.913479966521948 10.296775974946442 10.3046818685733
Li 11.918663844246398 13.136830235079888 9.521138998794994
Li 13.609870055346832 11.213653144472216 11.217261211533808
Li 9.057405427889542 13.130442669546381 10.637777025581517
Li 9.605417979567726 8.38671256643245 12.009815382429307
Li 11.464617380544013 12.96063463523552 12.54676981981322
Li 11.798020753387537 10.028037693895696 13.39392378365485
Li 8.982752753971639 11.2160358810352 13.032239989550996
