18
Energy = -25.35816057 eV
Li 11.499992471870446 11.83480548588493 8.123124107360544
Li 13.500161910605756 12.467589935782787 10.790242686822742
Li 13.043935863008631 9.87388488015063 9.58807355109905
Li 11.437715790938089 14.547561506988254 10.402171512660681
Li 12.252057727549388 7.106350478934264 10.33118189807949
Li 8.958664062659787 13.301521416264535 8.938257987205619
Li 11.29647264541479 8.598294511426017 7.6548861327969515
Li 8.804640722968342 10.16303438561375 8.33839986188285
Li 10.716620606039688 11.880699779418649 10.761039188824492
Li 11.725211871087602 12.841467415643747 13.163356436779555
Li 9.397490010926397 6.722783997510372 9.321994759677244
Li 10.337124260635228 9.11450800776845 10.358266055223805
Li 7.837148771252266 11.32181664008393 10.799880768938868
Li 9.061747675690992 13.675001233784462 12.10701696980593
Li 12.320781899803114 9.776274627197894 12.373388805890565
Li 10.128324992983815 7.308517911327327 12.440646145424306
Li 7.697937154229774 8.423773678635234 11.06712150218871
Li 9.499540705401136 10.424693589611703 12.971542098972236
