17
Energy = -23.76412546 eV
Li 14.722266880010155 12.283039947155943 10.126674825458137
Li 14.513961132148497 10.891279747326847 12.95785831162691
Li 14.315092766051691 8.884577547418113 10.463183882226486
Li 12.736316352305652 10.85729774906961 11.030209560104325
Li 12.622808079565628 13.224591212431484 12.474151516252048
Li 9.572996495032905 13.994144681653934 11.851648324324483
Li 12.677696913342169 10.475645137791348 8.258761787611418
Li 12.144574539839482 8.899849241975133 12.890489606661182
Li 11.064271736442867 12.589201618591646 9.71430294948892
Li 10.51941931604529 11.381922687027801 12.450821892920455
Li 11.597537407073913 11.207600486152224 14.84679494058682
Li 9.529480760061183 10.976408050109399 7.930451666769537
Li 10.59715202818852 9.316007834389413 10.271393866382352
Li 8.502038691344556 13.70482509624424 8.88820162026914
Li 9.053087482492634 9.381344728299732 13.305195866601098
Li 8.345685616691483 11.402208765040662 10.845959907358816
Li 8.70124735822602 12.270316038005783 14.22032137666826
