14
Energy = -18.91848235 eV
Li 8.715955041495905 7.7854189081747815 6.6176292500894425
Li 9.839271401322717 10.537559653350268 6.602876190017775
Li 6.851094945957418 9.73366894152115 7.597835248588781
Li 11.492798731556757 8.220060515138776 7.591364643827883
Li 6.30678592116678 6.284830145788132 7.041783324015164
Li 9.265353389186851 6.33127036488471 9.034962130183324
Li 11.666735942384564 10.944655430102161 9.039342428475651
Li 8.77388553127187 12.007651227783741 9.021717388992101
Li 6.743295143225389 7.623245450532261 9.545910561624957
Li 9.295769033576667 9.287049444869655 9.214229445169003
Li 9.94938177728914 10.7858781413705 11.605907785238136
Li 8.694991543137737 7.9804374459772625 11.773420459008488
Li 7.028273823371866 10.298809552783501 10.79885150993684
Li 11.470396665205483 8.273453667872241 10.608158524981008
