18
Energy = -25.15348357 eV
Li 13.12514612900485 12.792602509696307 11.822397190816512
Li 14.126708969285422 11.420409549382603 9.198740891676845
Li 12.615877815770256 9.567570612419829 11.787937404746883
Li 11.602154987944573 11.472354340376777 9.99907023441581
Li 12.293311649254306 8.84543551766378 8.883216740496119
Li 10.146868580827517 13.412685023376806 11.630774010926624
Li 8.92289664740088 11.937760541600408 9.352578621131148
Li 10.38321830679946 7.315348617496182 10.69412217153587
Li 10.640233765459774 6.590463620876796 7.700554463384021
Li 9.435449010921925 8.622655399026392 13.452386425640203
Li 11.92433943386209 13.901341674212143 9.030760283125298
Li 9.527322136535652 9.15999124970793 8.499391803447544
Li 10.837595466763801 11.353373305409345 13.42417948571137
Li 9.166073070416854 13.5212519699927 14.48857025118031
Li 11.453406607975154 11.330413591954553 7.307900623300145
Li 7.984437260577744 11.421168609121708 12.52697449539266
Li 9.859938090875957 9.965205561171699 11.185850309611313
Li 7.495468126299588 8.792153746240437 10.753800532257005
