12
Energy = -15.63533245 eV
Li 11.077839102267149 12.122041068554266 9.353242255082627
Li 11.951268060152225 10.682512504997895 11.780351021566196
Li 12.484038765734903 9.349463688211488 9.223721414124753
Li 8.929414664848355 11.099819967571399 11.897786534646745
Li 9.641933601935737 9.674524784423864 9.742756099945533
Li 10.939285516136051 7.895723832358465 11.537231785371324
Li 10.308479815424192 7.308741987692257 8.507356668250859
Li 10.385554520946496 10.095108265791286 7.119830388574734
Li 8.040441542334099 7.456478761433832 10.615677377456079
Li 8.19190907709065 11.76819922943559 8.447417384143726
Li 6.573449377516106 10.016017348663114 10.22196202933902
Li 7.699713175683085 8.75504178179334 7.802530828896908
