17
Energy = -23.92943029 eV
Li 9.054802283543156 14.01545918153382 10.885514113705426
Li 11.86337845086496 13.418592736197366 12.10230167117699
Li 12.938888755182823 10.9759122356912 10.63225461115023
Li 11.341170004154536 12.988277898433353 9.114030005996034
Li 7.211809650029269 11.537517824071719 11.482264107171783
Li 13.497714706743414 11.275318455702399 7.738793866411195
Li 9.956773573054695 11.412742463010348 11.161451273148934
Li 9.312709486885428 12.491512567643527 13.627237301770958
Li 11.737183980952494 10.610977342388324 13.33673262579717
Li 13.278768443183859 8.478383214448874 9.204408476510059
Li 8.914204338387984 9.454939484158913 13.05715804016915
Li 10.933381492569557 10.072838368239745 8.602272336143743
Li 8.512467094835475 11.894944588709716 8.673418208258193
Li 13.944385761990675 8.752250717461932 12.291240922113497
Li 8.494699434591784 9.142349851626621 10.034049826357558
Li 11.181023466174606 8.591100021681958 11.201199996703016
Li 10.437776916408087 7.175716202952927 8.689254202908367
