18
Energy = -25.35414901 eV
Li 11.684036861543186 11.440399578725314 6.8074968511981995
Li 11.96617630792601 11.26433458765746 9.91214038414848
Li 8.333872544329711 12.084252440618569 6.588225820999105
Li 10.120179325873446 13.089340936822312 8.751394248723589
Li 9.566432484073914 10.29686371806275 8.284861671041986
Li 12.117672531236435 8.77863304221118 8.523849485074368
Li 12.61973015044418 11.242587771354161 12.653821630234381
Li 14.173307874231309 9.286308128011395 10.619888138836753
Li 9.274965422968618 10.269821335691168 10.955845214004396
Li 9.916128044524683 10.226618421248215 13.674200653025478
Li 7.585278386222791 12.145712260472711 9.685888881985628
Li 12.462728238441088 6.370617601875892 10.227420838942399
Li 9.900032930649477 12.723893611032674 11.902788760751848
Li 9.671381452617045 7.535127496758535 9.498258727187416
Li 11.501470296559853 8.751029376452893 11.458777240066448
Li 7.110062139112059 10.81004497078815 12.482781649891848
Li 7.024131360436605 9.193348756776176 9.601106918003989
Li 8.464935531690122 7.963208365723862 12.168764068330907
