10
Energy = -12.84725537 eV
Li 9.147348242736625 5.9702510918495255 6.918847205343636
Li 10.260046704389154 9.6599570392417 10.293804178500045
Li 8.43860526721618 7.463523872402668 9.441824879174154
Li 10.189414901792775 11.755546546928523 8.339230695013915
Li 7.88431340935554 9.292186142544884 11.862384971846176
Li 7.836446310619272 10.363875242438143 9.202049189779409
Li 11.258286114125195 7.041328550921407 9.055611837464703
Li 6.973143134212403 8.298156821147385 7.110705970630118
Li 9.008782244249554 12.215800306246795 11.26091368146963
Li 9.74710899546713 8.869122027877562 7.470369573816052
