10
Energy = -12.84631512 eV
Li 11.042058625317756 11.48312574967438 10.194143726013799
Li 8.502857226673756 10.84887306915621 9.057842460734594
Li 8.892132764904993 9.570796283242785 6.3157880199968925
Li 8.389806918074978 11.875328321326554 11.879086882396946
Li 6.6615541329667245 9.470651571461284 10.74158701253814
Li 10.7834619164609 9.022668975767543 8.380092447089455
Li 10.144677554851034 6.658333516329406 6.631847207514523
Li 9.494684550896068 9.201656335942436 11.029592508727722
Li 8.254859752096191 7.939120724220518 8.599966825682474
Li 10.465097563946479 6.560636459067513 9.801243915494352
