19
Energy = -27.51188323 eV
Li 11.556885397578826 12.026688172049548 15.535111705707335
Li 11.472352735351281 9.322830952734035 13.3719954058624
Li 10.13460759804747 12.370788332040643 11.012486133950723
Li 12.170953443434712 12.663573096211351 8.86780777253354
Li 9.992857181170224 14.231156686249912 13.090384917119865
Li 9.20444984009869 11.391187705863008 13.627469530162857
Li 9.827807370251762 10.817607726233717 8.72216702583354
Li 12.201290309289936 14.439071187832436 11.099867628947962
Li 14.216636238406773 12.083835502097697 11.113408724784163
Li 7.508769028135869 12.284603541423017 11.096650143047608
Li 14.012170875418395 8.97314619665691 11.579708619343528
Li 11.977592136906235 12.111342371043424 12.9204693941219
Li 11.426864490203856 7.8536338873270735 10.21836629050653
Li 9.552082359056797 14.347763355252068 9.388129695489884
Li 13.494111905801583 9.876517225475649 8.642327834238138
Li 14.096272963391474 10.959503092499704 14.045084701288632
Li 13.544795241855029 14.040443259477193 13.862456297521614
Li 9.169280541703017 9.607707014493906 11.37495087933116
Li 11.932348650118197 10.401982632176505 10.729523202765721
