17
Energy = -24.01260527 eV
Li 9.918904280980495 9.55293261999771 6.340288210372732
Li 8.611354627412503 7.251681900365542 7.977023589117996
Li 11.526790566081786 11.22718404809681 8.37628519471727
Li 8.7945212054301 12.257382526397127 7.406864103850944
Li 8.89897246417079 9.8844083694506 8.959302383685912
Li 6.888754497622239 9.719497240978125 7.186861454541068
Li 6.671263147915607 8.549078191578744 10.078769135984658
Li 9.720085438217868 12.443434280743704 10.317161755531687
Li 10.951874888819695 9.736541025878804 10.838363295881768
Li 11.514531131699389 8.195859230700904 8.584289656176564
Li 9.36262634466413 7.462201521388072 10.907207873315885
Li 13.57483505071582 10.120733377381024 10.312468196945145
Li 10.558001636215508 8.83459107703913 13.43904368554257
Li 6.798939356505843 11.649283665278528 9.705387627356833
Li 8.434851413952662 10.345581306379257 11.960723529867666
Li 12.409882856603538 7.465252395817272 11.413460499470112
Li 11.688409912655345 11.628956042192602 12.521098627304644
