10
Energy = -12.84700218 eV
Li 10.607151649853654 11.435188067716453 9.30667056121677
Li 8.250723642525635 13.296628010407128 9.493825307485341
Li 8.478990255502868 10.888797938632385 7.449055729403647
Li 9.785191303935884 12.07728169340732 11.979117376771585
Li 12.767210427107203 9.24466391089261 9.264991563920049
Li 10.027502028945177 8.557853056318772 8.734013514910444
Li 11.555864244684601 6.517829173920359 10.313083699736053
Li 10.767124900709147 9.233519955227637 11.315234106546093
Li 8.217353789549477 10.385967772769158 10.259845775480716
Li 8.585733736514648 7.405116400036191 10.927008343857455
