11
Energy = -14.13314374 eV
Li 11.059804985433484 7.685371345702867 10.646036300743239
Li 7.87297150764743 8.41862078946801 11.286480600943927
Li 11.10558194064497 7.800936557377282 7.750099987104869
Li 8.729208744467307 6.522008364946614 9.046288770607836
Li 10.101377911482029 10.808585881474306 11.392868769373024
Li 9.379370009099695 9.34266831187787 9.28667895145029
Li 6.545008452469246 8.560680088673967 8.698640801492456
Li 12.171876715133644 10.167848015438695 9.243138629891517
Li 7.34787169035653 11.237131882207093 9.776012056954798
Li 8.608825888327107 10.164598228966147 6.964233305586199
Li 10.022724342449681 12.236172721378678 8.854144013363367
