18
Energy = -25.04051951 eV
Li 13.074660074972519 12.054528377905315 8.69980093592868
Li 11.569318749148275 10.605086583060999 6.560789112630872
Li 13.36729153689459 11.471061974038504 11.731865172693057
Li 12.408959884663204 9.245017020345191 9.680046896429596
Li 10.095374410222755 13.104388400030771 7.772463699465441
Li 11.072360762164285 12.727762918413845 10.538876025741196
Li 9.965954656482126 8.2198947087656 7.290047124570021
Li 8.536284134139906 10.80265157725604 6.491775427521998
Li 10.064228792159486 10.55441212649439 8.870789260325825
Li 7.421201237973656 9.342146452886928 8.968234910530578
Li 9.729117453737166 7.942519864791877 10.172228537280162
Li 10.621417846923018 10.152745135475207 11.848807533193968
Li 10.796192410953074 12.496994402538439 13.429165401828058
Li 12.214037726247692 9.878762493736048 14.13840339826846
Li 8.34744288740765 11.602313936996113 11.052105909787182
Li 10.495386872757951 7.6103718777240505 13.022568877396134
Li 7.725131555369429 8.762622173159219 11.987615667247034
Li 9.162374528323316 10.151570331133046 14.20442903796848
