13
Energy = -16.90624402 eV
Li 11.737955649381307 9.797618491799629 9.470570272402682
Li 11.28097505086703 6.951209188108203 8.710086222060513
Li 11.941680265031588 8.246891287361537 11.867577370127915
Li 11.566053680322945 11.269075818782607 11.904896170174197
Li 9.411948665560622 9.55023620389076 7.769865634114541
Li 10.634649745350503 12.479621680317884 8.773728329879393
Li 9.102062514118018 10.91090684592244 10.45577642890866
Li 9.449708742476549 8.109225662164071 10.425700239934566
Li 7.720917533355457 11.78950818640799 7.9136406769945316
Li 6.88243107497075 9.269715824880004 6.304535073474405
Li 9.265150045283985 9.465928248987984 12.993138853194873
Li 6.923392598115309 9.238972728371852 9.337459908752622
Li 8.286512394921182 6.9778616485704665 7.8780946334480015
