13
Energy = -17.3649662 eV
Li 8.426268526088446 6.31810494627768 7.666959086702076
Li 5.985014389070991 9.592374169332675 10.579282544941881
Li 9.61246617688736 8.42339348880409 5.7102443561903975
Li 10.367619042822442 11.739214900389259 12.32681797955055
Li 10.645652764714894 8.877038451428705 11.516900761741752
Li 8.073881367009095 9.617040215482708 12.881234139725054
Li 12.356560768181309 9.580418507291933 6.799682359220158
Li 9.752545324424695 10.924781898087652 7.363130344709249
Li 11.687858785720874 10.871737069664773 9.600220994710638
Li 10.25958818235356 8.46157649972012 8.49923610538427
Li 8.777198497692254 10.458065480614236 10.236222697630334
Li 8.120781932593795 7.651497280102988 10.467298744446522
Li 7.489751242440024 9.039943511819839 7.9079568850472475
