12
Energy = -15.79506055 eV
Li 8.511219697784497 8.021177382142293 7.263986024908552
Li 11.159188609629993 8.955567588051892 6.679799735883055
Li 11.373402189075243 10.446549442428347 9.364784915797934
Li 6.975255251392419 9.765691105021672 11.92332299053176
Li 7.73943706177633 7.289473541896347 10.313130172532869
Li 10.664402050983401 6.059079965584257 6.432858716977335
Li 10.728738594649784 7.496874366306277 9.105397801032314
Li 8.97606731683736 11.028812942812278 7.391864097991218
Li 6.3489764991976845 10.047203978406403 9.019007146637188
Li 8.556179794590388 11.951861827263269 10.65790635222625
Li 9.907915696368303 9.173757087122233 11.982448295402284
Li 8.839171237714737 9.543904772964853 9.645447750078981
