15
Energy = -20.60892676 eV
Li 7.998559018705471 8.70915597111102 5.655817068519529
Li 9.881159490273417 10.817348811447214 6.923600692805725
Li 6.875466926567535 11.057531470944834 7.408844502061913
Li 10.682535391751566 7.810999098008287 6.91554226051861
Li 8.19925544182697 6.121655065334708 7.420137994011499
Li 5.827235831306133 8.13411693987367 7.813448793035038
Li 8.455004912426615 8.841973083132775 8.409538111503691
Li 11.26803065192313 9.581177232969408 9.392103007926172
Li 7.349298366347199 6.934286682980443 10.230749689105533
Li 10.303728096173934 6.713488523724762 9.696847747487773
Li 6.520232096320304 9.942649304867567 10.22110506731502
Li 8.976441163708571 11.608056240607718 9.682640799985588
Li 11.977948890263821 8.137051897014862 11.840692030098454
Li 11.167369702082627 11.259199760297895 11.78730085218533
Li 9.266084505836348 9.079660403198917 11.34998186895406
