12
Energy = -15.23776253 eV
Li 7.128207181892146 11.7903781434269 8.957322460106395
Li 10.274303010286715 12.58062175965112 10.59403639079716
Li 8.600197751418657 10.495758504281438 11.376725137677681
Li 7.481999176165833 8.738527282218437 9.450091794212236
Li 8.047593541312953 9.057476955600166 6.735929350725512
Li 9.618190893894226 10.554318334104485 8.654053762278325
Li 12.475229484374049 10.626514995921061 9.537883779680204
Li 9.085360735604791 6.620903213988264 8.471906137115793
Li 11.088525598263015 8.42233775789276 7.139526995613954
Li 11.265337193451296 10.057102183159545 12.226453697896513
Li 10.675351198735719 8.452675165360994 9.961639180889112
Li 9.051717942943172 7.440749610519731 11.798065884959023
