10
Energy = -12.10995714 eV
Li 9.849288475766937 13.872406098384948 10.516223146106102
Li 9.284570531082139 11.279738310259786 11.933992452460487
Li 9.459448113541969 11.386291012911109 9.083378306585526
Li 8.885908336467946 8.694305977303777 13.580657683670378
Li 8.726801775879519 8.94802171392816 10.40305378011109
Li 8.89290964680555 9.165629969934024 7.325763601624867
Li 11.977803944531216 11.650764852101513 10.445061659516371
Li 11.302909665996637 9.14096847532572 11.86167939044449
Li 11.42489377775811 9.312613824617284 8.927293112412364
Li 14.027470907788384 9.224167690268244 10.597651696386688
