10
Energy = -12.47108837 eV
Li 12.147066163735659 8.419249939427074 10.112829684196617
Li 10.184162860814538 6.238229258926832 8.593435991179934
Li 9.991282312531048 11.979850096160998 7.911769477514237
Li 9.841002774639751 9.138396816574108 8.494667232113393
Li 10.150420327895919 10.720433045427182 10.73901291422218
Li 9.573964290958127 7.7303094105812935 10.91486029894771
Li 7.428839479744157 9.596698701264813 11.554559531240775
Li 7.992106981427339 9.847489600738557 6.346900545557353
Li 7.442731910321474 7.866184502610255 8.781151961148588
Li 7.66398691596324 10.870673977510416 8.960795631686295
