29
Energy = -42.32367078 eV
Li 11.744161578821945 7.310901411799244 9.495142611239949
Li 14.740295458933675 8.250673721678881 9.608336918408444
Li 15.819918229692485 10.061173729101501 11.837599623680617
Li 12.729257494583726 9.750340564883588 7.925157412086235
Li 13.147638175637862 8.54923894376441 12.056146968958522
Li 9.776415889967518 9.15383502479362 7.8686619887847105
Li 15.758537281991238 10.991931642392585 8.78454505596092
Li 10.737617586715515 9.586168125997087 10.717067034076273
Li 13.469605717255423 10.837042405465196 10.286217986932943
Li 10.720113268932975 11.792166462467316 9.005057377563174
Li 15.20500269669303 13.055362558977993 11.039376214442333
Li 13.389084640093307 12.910618005037282 8.162690866213822
Li 14.45193687549716 9.227446866536289 14.649527717172067
Li 11.185445608072317 9.75889819235592 13.9360769980388
Li 13.422795564069947 11.393655099413609 13.034301308762366
Li 8.363713131604111 10.979300868109073 12.836409380216924
Li 12.816920190689961 11.609881312069882 15.788746632418443
Li 7.996134798020061 10.326141844311888 10.005616529246264
Li 12.4446295463155 13.54861832468669 10.76439216835699
Li 10.594179116562026 14.728344876919037 8.939077194868295
Li 10.86731634429013 11.945890637944212 12.100470872864257
Li 8.57813628778763 13.038131207647172 10.64615163879004
Li 10.303616484719203 12.825717786500503 14.706545631052741
Li 12.620949777229148 14.144749282748867 13.885498999150709
Li 5.911214563274703 12.194336421385877 11.457312663998223
Li 10.238928127300072 14.890904279488044 12.095199802438943
Li 11.859654915656938 14.28791320317792 16.86607612465092
Li 7.788757766854466 13.856296837964642 13.363235059544511
Li 9.981552806444201 15.683782421884276 14.922351783682995
