22
Energy = -31.64738259 eV
Li 9.034314197130314 9.68649088205739 13.384117754027717
Li 12.053287274587097 10.194429303809667 14.08753223843111
Li 11.423258520082339 7.9440460004325555 12.255329726242627
Li 10.807149300456569 10.536619305027251 11.500082734443682
Li 11.471901115717097 14.919940767594841 8.53731001240865
Li 13.009353157186519 11.91743812999595 11.498289782319489
Li 12.752666077646204 9.57504881801867 9.76458189574059
Li 13.278685099661484 12.390645872497913 8.743698459315503
Li 11.448331282102258 16.499418855263787 11.239806895192654
Li 10.95623057085621 13.729995102917277 10.998850676760641
Li 10.470737178337588 11.727699257141273 8.983603984398288
Li 8.48104598124616 12.064369330461309 11.357100113596246
Li 9.314571892680132 14.959973875827854 13.103765441146482
Li 14.238404594873229 9.441293331272064 12.510060997670466
Li 14.26627074168729 9.70780850634444 15.712849958802444
Li 12.198416799846536 12.365368290504977 15.974941704159747
Li 15.537139106695097 11.646690972453646 10.71826735926226
Li 14.33655591046962 12.144163336871332 13.847300626134697
Li 13.802075648637695 14.542206064180869 10.765091230769746
Li 10.480534512190228 12.396907184896332 13.552926387045577
Li 12.373093364342624 14.414476090977024 13.447575517108389
Li 9.210484918084262 8.974903804987191 10.154534467585533
