20
Energy = -28.68881055 eV
Li 12.766321644570926 12.229790304370674 8.177051090200324
Li 9.841946214263606 11.01255572527175 8.02366969063144
Li 10.191899995815415 14.101448002725096 8.462816480521651
Li 15.097004696306321 10.186294074410762 8.95172799708811
Li 9.308293215774185 9.782969618402893 10.750764730385184
Li 12.735977672229032 14.514713014439346 10.274516527415045
Li 8.082281102262442 12.495258191180758 10.131623113051328
Li 12.213309845642511 9.65668319730608 9.57500561774079
Li 10.890580081996129 12.231028090896881 10.35691313383621
Li 11.198407452982877 7.499680965462185 11.62949037920954
Li 11.616564585416787 10.14908370171344 12.409063610950458
Li 9.418630734881175 12.023287037460406 12.946622019149306
Li 13.786143970188105 11.712996482219625 10.98305809744431
Li 12.164550750860183 13.091312685138211 12.93927082336005
Li 9.932165429742389 14.632166040844545 11.599994838418313
Li 14.122759444724911 8.867250883381569 11.734998775056244
Li 12.387352815390432 8.267795897438788 14.343225856929314
Li 9.471451515146548 8.977329162561428 13.742756605842064
Li 11.365572019335225 11.204011538302707 15.07548804936722
Li 10.278385704329887 14.23394427833153 14.761541455262051
