26
Energy = -37.56843814 eV
Li 7.733188501822888 10.169886495039528 9.264719396517622
Li 8.558994371386312 7.619970009131476 8.521675916821943
Li 9.543123633891557 9.652651289606952 6.319976714634911
Li 8.559271338737842 12.330160528397332 7.599166127429993
Li 6.2331922143162535 10.825035753617843 11.773879576013575
Li 11.368870057203395 7.546382808135724 7.858238116119861
Li 7.648362503243561 8.058336171303225 11.505050349785297
Li 10.675597875558772 10.400286616946582 8.763028790385192
Li 11.32584440932701 12.339051591320779 6.621926477305153
Li 10.6650244465627 8.265690094649424 10.682074143216507
Li 8.279279383480525 12.845518274758728 10.614090446772032
Li 12.762953489380918 9.779557943590017 6.738416433195862
Li 9.245628458912297 10.526021791794058 11.828026195277245
Li 13.398472647014868 8.925793257904749 9.743665568731494
Li 7.6647311695826446 9.602666438878268 14.115266578693623
Li 10.956285839005732 13.184264376193662 9.542202868191163
Li 13.533441616189192 11.800593353122856 8.848543827795488
Li 10.097442858107721 8.00991915725498 13.463098636434271
Li 8.081656246465869 12.502707775759797 13.61878376593187
Li 12.146803761289942 11.118489865944367 11.36403149733381
Li 13.589971510058179 13.658292846565468 11.261104177904212
Li 10.810405058429966 13.34546439297525 12.568756363817942
Li 12.972413082321577 8.992123008462821 12.903789768557253
Li 10.71443866973844 10.784978322740272 14.287345373926204
Li 15.035941819846123 10.916536734718033 11.468563443842648
Li 13.486390828096875 11.99009838309746 13.768971587647403
