22
Energy = -31.97107048 eV
Li 9.408892674732902 9.732709964917508 11.1537451848964
Li 8.85044357061109 7.372505523035414 12.602843836856591
Li 13.208182361924614 12.473276979570317 9.366120378557113
Li 10.515825158667136 9.779778422056415 13.933272625573066
Li 7.534953767499537 10.148180643421568 13.156858864002956
Li 12.048617584873735 11.035322515367406 11.810621755742304
Li 9.603181717144826 12.3961906165928 12.539801846292741
Li 10.305966929132987 12.233218711349993 9.699827317414655
Li 14.449971836006306 15.067130560688236 10.022011123110488
Li 12.134281075277197 12.435962155925607 14.221735318475814
Li 11.689129184798452 9.738636040606057 9.130054225369339
Li 14.508276392896706 12.608271593976845 12.058650738099312
Li 14.263193440034613 9.753019035545663 10.645415240455565
Li 12.025524017373822 14.041040792024758 11.472202237316711
Li 7.471049252663216 11.778393247239924 10.438348312771621
Li 8.875726748797085 10.057412632885207 8.27398546300279
Li 11.533424009972311 14.707749777536716 8.64029560358024
Li 9.714579989705307 7.374848246866329 9.635333864080815
Li 13.658711962714072 9.809232498130337 13.673092875629576
Li 11.220743544462671 11.88209213441816 7.074558112860398
Li 7.004296457120453 8.581014370209104 10.476723594726693
Li 11.870585984059892 8.100130426231704 11.761051143470295
