23
Energy = -33.36222027 eV
Li 14.2564184128717 8.979416203491956 11.365146895343184
Li 10.873525815138226 11.113224529076414 14.674471461214042
Li 12.565704401824819 11.249684636761897 12.188742825464274
Li 11.718264531543953 8.44946809093808 13.160766145786967
Li 12.242627692661307 6.472412278967102 11.040051288678303
Li 15.363871866029582 12.049567125390409 11.457580728964054
Li 9.591077654501015 10.454849418153403 12.225583189892783
Li 9.372556624671097 7.6181449936599295 11.506174540695202
Li 15.2581125099544 13.694317802354742 8.78771349208183
Li 8.763239666238517 8.779763415461808 14.270871498493031
Li 11.582594844486778 9.216835181323274 10.354203074323317
Li 12.982439292444917 13.849234945475565 10.69879592133333
Li 12.127741941125542 13.502236236972289 7.9344045222066555
Li 10.705285208449316 12.036148158512079 9.94065236945143
Li 10.409993170152518 13.289488139191123 12.535302196881357
Li 6.92727133075269 9.657713968846622 11.947266518170032
Li 13.599296813536245 11.299490725831044 9.416348346984691
Li 8.74193081551416 9.892199910512032 9.425897610013589
Li 7.923055548879638 11.81474693191873 13.916669250487546
Li 10.048912473442948 14.78497091078082 9.802803024463522
Li 9.00684894021925 12.645203963436776 7.855745295087479
Li 7.961745413629245 12.507039128438093 10.818289680614996
Li 11.188850363124597 10.393069257931973 7.683383627281756
