29
Energy = -43.64789145 eV
Li 13.41868930819107 12.203999275076534 9.802169053756622
Li 12.45267390625369 11.453259305233791 6.874570878284723
Li 11.202184526027473 13.839214567366268 8.558320362516326
Li 15.794971893263732 13.255089642737302 11.523610019580415
Li 13.078223903281852 9.262381783710785 9.102270485216911
Li 13.099714573484714 14.855421631764314 11.113362544716136
Li 14.595734624381338 14.776186590580737 13.946372519690232
Li 11.975975327428996 10.253677085926103 11.608179826518711
Li 15.716380828212872 11.837741548599293 14.305534604417804
Li 10.712616138623373 10.98388798837096 9.026715414602805
Li 14.875299461849423 10.269421643544486 11.670700082365782
Li 10.528982934761716 8.95055100936007 7.1363812709938035
Li 9.361912884610248 11.771176380753628 6.787437760246312
Li 12.967005383509674 7.716961259707302 11.905593441463289
Li 8.043419172361672 9.774220745759736 8.92795391605035
Li 13.189098757892145 9.924855161528694 14.221042520212915
Li 13.045457150865147 12.711984458321847 15.663608509099978
Li 9.041956621806577 10.599361156576064 11.563901463243106
Li 10.334850822149011 8.246919337181643 10.213801514482078
Li 10.911975498012508 12.902485750512593 11.297801912550625
Li 13.434191269059411 12.548541085132253 12.89052370067987
Li 10.288126626032524 8.652964387495725 13.347753677906395
Li 11.387491449150437 14.507425319629867 13.671731303695836
Li 8.437927520082932 12.736412211251608 9.643071597740137
Li 7.560261283696092 8.234841556808611 11.680744338641807
Li 10.65559922908137 11.615070500669347 13.978796554214021
Li 6.352197632673469 11.043268973583665 11.312251617543668
Li 7.714930315119183 10.363534938103484 14.02411183041592
Li 8.405025244186575 13.206786460277897 12.757399109001186
