25
Energy = -36.62897107 eV
Li 11.785749334575208 11.65617428703099 8.276173593177402
Li 11.9211734338704 9.23615094709239 10.192748376995274
Li 10.850083342612 14.280584831602857 9.346406193862553
Li 8.628049758521293 12.443340190736198 7.925575369040237
Li 9.34427417058664 9.450364445797714 8.476184104954696
Li 14.235628767621597 11.113270973827213 9.954210396703651
Li 13.983126969464982 14.06093715870891 9.787463468217386
Li 9.752501952534644 11.502673391575694 10.28181769739166
Li 7.029305304599177 10.937089819642363 10.026453857162643
Li 12.157629414856531 12.725516034075861 11.147699222722823
Li 8.258927785368314 13.722394720472408 10.871038373259603
Li 14.583941479787626 9.081656861992373 12.178359750748445
Li 16.552301864351353 12.184933688090934 11.766855792731018
Li 11.73551795142174 10.439771156853782 12.587739491404134
Li 7.457357788910308 11.527299983290659 12.964869445841462
Li 11.39756848082869 15.12926995546595 12.281822402178737
Li 14.150913376979318 11.67893104962386 12.745753782732619
Li 11.680968144332535 7.828504514010337 13.068216111279591
Li 9.178436698264777 9.316834693882905 11.827891878278376
Li 10.023474500755851 12.655876933285418 12.987052404686626
Li 14.45266423040669 14.314941339087987 12.820174098051988
Li 15.66552130719462 12.193283593997634 14.879247893160388
Li 13.347524949903605 9.987633036903693 14.914867995130892
Li 12.3911734184484 12.853353838803738 14.564532821714245
Li 10.06921297951646 10.312239959861193 14.759872884285866
