28
Energy = -41.10950174 eV
Li 15.574714982189583 10.385637988741848 9.021230605336724
Li 15.001040236938383 8.676194968463015 11.453998241392041
Li 14.94624899945614 11.839724843900195 11.736555863301534
Li 13.362170567350615 7.86266790340075 8.871816330407816
Li 13.126608397554511 10.613230228811037 7.261765121917402
Li 13.808064970501592 12.989645922681682 9.148767863943908
Li 12.106577737994293 7.518694845817907 11.788729757273927
Li 13.014366265731333 10.248012633851664 10.087814957210476
Li 12.790962412835082 10.130514319463327 13.04867414044902
Li 10.62185578542272 9.100681085137882 8.24021042140578
Li 10.312348288678736 6.576622491590317 9.612299483236667
Li 12.065044834484462 12.553830070663706 11.574019547211808
Li 10.294151114501501 8.762611158084097 14.033423743542077
Li 10.966698439324425 11.968151096627986 8.896393489427068
Li 10.93520064728893 14.774470688539026 9.987989875916584
Li 12.967397932279948 12.903326987890816 14.201620135363681
Li 7.7494213910958205 8.014077942797535 9.838550648683928
Li 10.266297537216474 9.571860129775137 11.120325542208453
Li 8.4492440769305 13.669351092036145 8.50861762980749
Li 10.388276174527496 14.511658200541623 13.033411463441727
Li 9.135994541787866 12.584059915612963 11.081477243812625
Li 8.960701545200363 6.929163323385601 12.207322484132453
Li 8.261283057457572 10.729238965836622 9.054466079571421
Li 10.252668608472078 11.582605148453228 13.578604731007703
Li 7.955645903872607 15.05705260029128 11.172445288964415
Li 7.77085594135417 10.00383204852769 12.332748547866256
Li 6.37052360833618 12.41577764376819 10.661371645921708
Li 7.579656348859384 13.007342633548213 13.448263175815136
