28
Energy = -42.16378509 eV
Li 13.554655895929427 12.521842664446302 8.085237846756518
Li 14.353250387197205 10.562479540230607 10.416381560414129
Li 12.652769359961793 7.892752434781633 10.580271429058591
Li 10.360479165178072 13.154238771379768 8.213686549047102
Li 11.445481820879102 10.329067308083172 8.883218227756918
Li 12.581665532613862 15.168541186229776 9.312584882232697
Li 15.134491311118941 13.481234088645529 10.758388428027468
Li 11.275169119602948 7.962519877340725 13.359964471765524
Li 16.527191703894694 11.191525566562444 12.549356578652278
Li 14.211131535402687 9.0985466035335 13.161489616725243
Li 12.270481479418894 12.718810864316374 10.49212435011399
Li 13.934598416028452 12.001139964415572 12.989066567115719
Li 8.418180635539034 10.584966206618903 8.266528201923023
Li 12.974777458113095 14.795258213611774 12.466959589747969
Li 10.010765848328237 14.583785200965735 10.874025242667615
Li 9.416088083336344 11.673595063019196 10.601454551090953
Li 12.045416097765063 10.552434691787116 14.842067447230674
Li 15.112170703096181 11.12922465876618 15.351494955525107
Li 11.799129248362075 10.180276006462842 11.840136613350124
Li 15.679287347320681 13.869323301202245 13.88828571657182
Li 9.698667757029826 12.558514490185374 15.496093669531254
Li 10.95034482644147 12.680427967783457 13.05019053065365
Li 7.493123539949767 13.30361750169084 9.54080663912593
Li 9.489023177324768 8.771462439851048 10.665969289713132
Li 12.9116778253312 13.36160884312529 15.296526495658805
Li 6.924065481217795 10.597729906481415 11.024907757678362
Li 7.969096978714319 13.029506357385282 12.679005950845374
Li 9.16860510557804 10.367248017412809 13.310240690299397
