29
Energy = -38.10102064 eV
Li 14.503475884985775 11.649145801239312 14.578424327714657
Li 14.67053784217396 8.842419825140555 14.120474997410936
Li 15.484880008677669 10.433612239912222 11.888629777632943
Li 15.639443254423146 13.200211165824173 12.199557495467223
Li 15.386854181970444 7.480529663609418 11.739072240232773
Li 11.615271456460675 12.025022145379861 15.187174304069062
Li 12.353894286040774 9.324055867200663 15.517240042792821
Li 12.407729241571195 10.611779295929425 12.57318713513156
Li 12.987525406905263 13.58012461906478 13.156709339822699
Li 10.137557278512832 9.152507640927661 13.621634381115667
Li 12.475106685399954 7.6656212216655195 12.601644157082557
Li 14.009554714720847 14.90768498688609 10.677886965791812
Li 13.494888724374835 12.063122120261207 10.352140043285692
Li 13.618278074795462 9.114697319889551 10.161192851058301
Li 10.781445654027948 8.612582496268825 10.588009344464027
Li 10.576859466114493 14.603981858719594 14.352469128233261
Li 10.452485169316805 11.857368152024828 10.243776108702873
Li 12.098628182037332 13.926845976277678 8.735891378499993
Li 9.795650847718987 12.158584524387512 13.00663756164101
Li 10.353369600518196 12.455336018268415 7.088414303278462
Li 11.986823067459776 10.371263892851076 8.279839895168438
Li 11.234726211334506 14.709721057255527 11.415402827998298
Li 8.407802643534529 9.968866548779571 11.590732268980586
Li 8.579072930578093 14.866659653936527 12.392337717084889
Li 7.8697817886940085 12.334258977356988 8.269058881191278
Li 9.127306336412243 9.733978793253604 8.641426227457774
Li 9.27587319449806 14.553690782970348 9.376412809293196
Li 7.532216435661082 12.646281541725623 11.090883981212276
Li 6.332766877289564 10.381733797699367 9.625503382492502
