26
Energy = -37.90335165 eV
Li 14.853636753600671 13.644960154085512 10.592915491783634
Li 14.3948489463098 11.069346405267572 8.928811092436144
Li 14.510564444411235 10.639754658795868 11.931143745535989
Li 12.810805439288252 13.494601712670688 8.397207355674267
Li 13.623296813805938 13.4339584276864 13.283418795085847
Li 11.724131890949332 14.825380124444305 10.936003600958887
Li 12.42176013246032 12.217889480745669 11.008931560038915
Li 12.167545329108787 10.754277590992631 13.89444301107973
Li 11.360983759589088 10.80570970760724 8.76958518422613
Li 13.131123612871573 8.62022461462542 9.91346126241595
Li 10.633619874137015 13.306915229197603 13.458921209795855
Li 9.855345170422629 13.065422739313012 8.344514083598362
Li 13.07428166460842 8.037946401126268 12.770943305377365
Li 11.042569957808846 9.684469086289223 11.539455469384704
Li 10.742177903064983 8.164103612996636 8.103737101931504
Li 9.523048944453715 12.38405238841753 11.007405049134386
Li 10.215535831566989 8.026671646007879 13.776378831276784
Li 8.716240561072118 9.95181073479599 9.805573701670827
Li 9.104155512355772 10.686190579632294 13.374886728598527
Li 10.455643639440817 7.065249569317922 10.845885080535497
Li 7.079647681246539 12.211229678765378 8.995105891979534
Li 8.020441890498066 7.316280136265472 8.858617756824701
Li 8.478125726907484 10.146852744479581 7.1439891801431745
Li 6.736063892367952 11.18243310465143 11.728097380874905
Li 7.805723861365223 8.2920836753235 11.829010832167356
Li 5.969812284465953 9.436123302914176 9.28867754925247
