28
Energy = -40.87861277 eV
Li 8.088294229510872 12.979464089069904 18.20331303583798
Li 11.99429036106347 13.462369350044376 15.709418366726876
Li 14.007689800161627 14.63103597820194 17.54291239455502
Li 13.293035157723626 12.969084417842666 13.138871040263776
Li 14.386743566474646 15.166104690445492 8.960212276809587
Li 11.761074634162691 16.255922294974944 16.4232889137225
Li 16.482607773326436 16.453522702734325 10.845834307586914
Li 10.434044279161583 12.35133511802063 13.501738150459285
Li 16.195261849989876 13.87671363955192 12.938387958242155
Li 13.967018945814479 15.51495368172589 11.811957016621344
Li 15.00847136970534 12.550368585681538 15.544354229955694
Li 17.914478795342575 12.282049723361894 14.633029078532326
Li 14.805131204652287 17.35939686205352 16.450917602634995
Li 11.919586405126543 13.65884826490255 10.71078326610235
Li 12.591876841818198 10.71961818000525 11.736516597823101
Li 14.766417721593616 12.703362715423749 10.635357155725194
Li 14.105185813758911 15.253124668110068 14.736121108358034
Li 17.2108428539314 14.016168568529705 9.882515215163954
Li 10.087099015686382 11.529088325426258 16.50268833808785
Li 17.984030352870903 11.912976239870076 11.69227744576855
Li 15.446378149285545 10.969077272471884 13.09417231200105
Li 16.81220296197543 14.994309504098538 15.72482383356096
Li 10.976390842165337 13.891998345814814 18.26963109009595
Li 11.361713348490067 15.304592397193487 13.471703013082923
Li 12.686878618651795 10.69470956960737 14.885147927840137
Li 18.650690557998203 14.897825748745381 12.689611183407122
Li 9.352410662006891 14.35859330108226 15.75719360389769
Li 16.15165014096557 16.931308089191084 13.704720704209945
