24
Energy = -35.14848791 eV
Li 11.622758776892708 12.446959971881506 7.32708998963259
Li 12.257602360574754 9.469951746433457 8.015640802074234
Li 9.636638809444763 7.900136653075019 8.24460897596641
Li 8.487319833853993 12.785799711175107 7.107861257804626
Li 12.333787103818779 6.646021527462088 9.614917716531856
Li 10.030495710880965 13.597302984011103 9.780570000307174
Li 12.30637662214785 11.51587893723232 10.173003880951368
Li 9.7591532871257 10.83004750841273 8.728862554008348
Li 13.958261441609574 9.14335658809916 10.679437479474267
Li 7.267974893679482 10.002033674061096 7.618732828819501
Li 9.802063184518667 10.299728186473406 5.992313073833451
Li 11.79036403559432 13.275226756164448 12.442445932215321
Li 8.59194972986079 13.669698421505915 12.430559812983013
Li 9.70906798405918 6.4527842196701775 11.143133844263225
Li 7.43109964898059 12.121303190438232 10.036458267609202
Li 11.068537793832059 8.844338554964127 10.647017978235057
Li 14.616255340966422 12.017626533092036 11.850416186847175
Li 8.113936667879006 9.136138011305485 10.54545546298225
Li 12.36244142106666 7.2266226372470195 12.615020566276506
Li 9.758579315229253 11.300978902668884 11.664426375586757
Li 7.350009826545062 10.839142635619227 12.982884450689854
Li 12.387508074386727 10.365148226294785 12.951474679917135
Li 9.76097122131897 8.820958102175362 13.250089092677312
Li 10.062039082712362 11.586722919482408 14.46841128313664
