27
Energy = -39.76418841 eV
Li 12.457294815482374 14.27455278274036 6.633113353630631
Li 12.536428671113862 15.802609907554363 9.413786427085801
Li 14.340191888828096 14.323963799218891 11.826459995128564
Li 13.25652660658801 12.956304869636009 9.1854215439221
Li 11.504901727555307 11.265313013611728 7.511403623297553
Li 10.470019213201912 13.791223719750354 8.767558583124508
Li 9.854315089515339 15.90988075644371 11.007553692495486
Li 11.578105945842166 13.849809651778465 11.496862504310444
Li 13.38169050139325 9.654535098514149 9.641144020854782
Li 13.26601028010133 11.527797906733829 11.933201328797061
Li 10.99266318498415 11.178950802129279 10.273704221387296
Li 8.85283076638892 12.826082186850165 11.276595176251877
Li 8.740143595915226 10.90012525154009 8.807698876508578
Li 10.596096964699612 8.390015468380902 9.421530267282883
Li 15.383467632799233 11.822825926462151 13.625754376824252
Li 14.638005821109179 8.876239069789246 12.40177386668645
Li 10.448935590115507 11.683113752312675 15.904870696968034
Li 9.761859971147313 14.107893769987395 13.854794632759246
Li 8.047752167705442 11.379139779969323 14.08385849668592
Li 12.878514023639035 6.751447162010148 10.774179100682732
Li 10.618026866384476 11.426256406418705 13.201080854033924
Li 8.929609988297399 9.539201169939224 11.666862337927562
Li 12.74136891181621 13.265270582808794 14.230941565658343
Li 11.745164486265626 8.893624087483092 12.067720049667988
Li 10.002901419716428 8.872674383455399 14.500874424419653
Li 12.882266814298374 10.161467913844543 14.530396843666882
Li 10.11023958785488 6.608250030394625 12.110602192830948
