25
Energy = -36.75188439 eV
Li 11.337859803328172 12.300407910877187 7.4333112545992
Li 9.101601953363865 11.244996971031515 9.453901683904824
Li 11.596726477735661 9.4376207685435 8.657759412994334
Li 13.270352567326112 14.118841576737054 9.05794589508704
Li 10.112319342322746 14.211855128038678 9.739347716981422
Li 11.885770082068289 11.944495913295926 10.071789059834039
Li 13.673706230451256 9.531322158761213 10.810532264494368
Li 10.692569115542348 9.740361377192272 11.480364060474859
Li 9.699085258083048 12.493255383644723 12.111922453746958
Li 11.775316270348352 7.198189216165582 10.854602614337729
Li 14.211522981257845 11.185148107250187 8.462642319215444
Li 14.194324948127257 13.215075589103327 14.17837170602441
Li 16.52058210502008 10.10917168645815 10.274697806194167
Li 12.234133776031642 14.179021692345248 11.987645606467785
Li 12.330670600619383 8.605517606231555 13.480801795471436
Li 7.265431302915179 13.330085586724822 11.090498540627156
Li 12.436603681904904 11.485249389971386 12.95194263052166
Li 9.366777144939393 7.761355765754855 12.889327036633311
Li 15.17811892964568 10.299622846250697 13.12467075548263
Li 9.221175584011343 15.158386158992297 12.630821291568873
Li 14.708247281799286 12.343408119238763 11.1582787658252
Li 7.717112609768924 10.39656912220602 12.188475083410378
Li 9.826985097643407 10.431920004299577 14.255462728377331
Li 10.909890868116012 13.40517376078924 14.60387053318877
Li 7.74328924023487 12.883121412700783 14.061190237141442
