24
Energy = -35.31844753 eV
Li 8.594996070737206 10.44985866614705 13.311174527042652
Li 7.817933732226984 7.761805518348378 11.606880464027553
Li 8.852690590303183 8.370668594857104 8.802645170169797
Li 12.72816516776444 13.35516251754464 12.386899082433347
Li 7.741102777337851 13.514166878469533 12.461476481883095
Li 11.611130169601077 10.54401067402951 13.278483621464336
Li 10.482646845256605 6.38359280492193 10.553981397117225
Li 13.517703921774022 15.827558995192994 11.020596024252141
Li 10.045118125654831 12.29753118779661 11.561146922762738
Li 8.756552961253757 13.801533683485639 9.631181207990188
Li 10.308767995958368 7.699328403982471 13.37010763754638
Li 11.995874196373954 8.541521617729838 8.848426945962599
Li 10.229003867358626 11.192873927665257 8.869860774569219
Li 14.798732320768245 9.48397348441563 9.646463225703819
Li 11.890871672162874 13.763733245509135 9.706371506631685
Li 7.714269500998863 10.855604210776065 10.519770457445903
Li 13.097209763548369 11.413962390804352 7.893623262269093
Li 10.409799695102029 15.23748075201114 11.888807164298349
Li 12.864281324352795 8.134805435416016 11.592634433856315
Li 12.559735340077324 10.90479124457697 10.565132659868322
Li 10.123425190954624 9.169600853489023 11.078545372323173
Li 10.182412879280465 13.126468843527398 14.199595971139841
Li 14.542833511778626 10.7246713135111 12.496401683593577
Li 14.674911356068414 12.932396302749432 10.209969667495168
