22
Energy = -31.50133369 eV
Li 16.193505526704616 13.989626628139376 11.204053700089693
Li 9.69751920773491 9.952408232963569 14.163550698473463
Li 9.863727719017321 10.880446411909919 11.21010965655581
Li 8.936430709748628 12.95445643325828 13.238866064328032
Li 12.691610688790464 8.927054040035626 14.718839878127156
Li 13.483507325380206 15.164811188615039 11.08616433637645
Li 10.581149465352276 15.376325326346766 14.418725053669112
Li 15.580149237183322 16.574241644233876 12.829651507927235
Li 11.508191937041412 13.39357333694598 12.769917903462837
Li 12.549382275145385 17.263284635481742 12.839957848035736
Li 12.89501491874912 9.874841409264716 10.532731525826541
Li 10.26237036331765 15.22009588788991 11.302253969668943
Li 16.19743097553856 13.29045190074605 13.9691786070494
Li 11.956793466711908 10.677231122418506 12.909596256849577
Li 15.295694146789529 10.278352449174989 12.588409533665308
Li 13.59369114782146 14.77039400254934 14.049761443007505
Li 14.76119644873693 11.992802754310526 9.440023534305821
Li 13.849101725476071 11.773851353710098 14.768480546371428
Li 11.91995356909997 12.759889638867033 10.067703918865238
Li 10.940959186988291 8.061526837301653 12.201885499023646
Li 11.148598434962828 12.424318044341385 15.336684061243295
Li 14.01451015282621 12.496404469806466 12.033607924283753
