29
Energy = -42.55390523 eV
Li 11.888729504392273 6.447803818853368 10.244630041215935
Li 10.173323334989083 7.321220295374283 12.77581981596606
Li 13.097609300638208 7.539656581328758 12.963485535299911
Li 8.708990571745176 7.955275118050522 10.301197318588056
Li 14.803489407242218 8.22015671952036 10.749145821328407
Li 10.459942642819348 8.36739979512908 8.285197159313144
Li 11.6195808724635 9.662488929026667 14.555351770090821
Li 9.696266478350818 10.021073739781025 12.18828072252416
Li 12.005867654749007 9.179523958462001 10.801319958063793
Li 13.346876990674573 8.30589077482608 8.201680062107034
Li 6.6003591316643 9.501133548375535 8.518915464930588
Li 14.250241773026776 10.42266694513873 12.959347868760695
Li 6.94306691544628 9.873897353989504 11.773024865607884
Li 13.906248822937702 11.138226045124759 9.934624859995115
Li 11.792879852935586 11.697254992895392 12.74832293536397
Li 11.851436300295799 10.857750093711642 7.898125304090445
Li 8.89627974215414 10.108450950879853 6.537798574982824
Li 8.745168909154541 10.919181767207453 9.324090216692959
Li 12.379581080248576 14.024411070767824 9.074344274213123
Li 6.409969569071928 12.369446963292452 10.115657934622627
Li 8.60450036388689 12.550764814567433 12.056763447082101
Li 11.071533308022902 12.157172885871457 10.269906129397073
Li 13.750349400093018 13.401977128983663 11.902452556895772
Li 9.829734785113493 12.157148667323106 14.660540770961642
Li 12.931717856043495 12.76566555524971 14.911903604211894
Li 7.014822904480876 12.362998779170118 7.295416770053883
Li 9.96586761347055 12.892138086469096 7.396579892005118
Li 10.953688568537055 14.359899675409151 12.50313192088624
Li 9.01823855345733 14.212203737118923 9.756721506958245
