20
Energy = -28.86586033 eV
Li 10.706640565309518 9.009542291503726 7.154854567974065
Li 12.457953793872022 11.657609162481887 7.374881234913533
Li 9.505419655512094 11.62288260437137 8.278909692578683
Li 11.63317152786704 10.111299656207931 9.602423693053506
Li 6.911026822421819 11.299768544169234 9.923275052129119
Li 14.163649881662051 11.432908869325829 10.011431771335117
Li 11.388318715330108 7.246512816635644 9.668337206799675
Li 8.898114488200857 8.97739722723576 9.638612993310964
Li 11.591119857960189 13.047047090996793 9.962492686152563
Li 13.68064681889351 8.874927098870563 8.207400546140395
Li 9.441306067227744 11.433876902573695 11.204315929170154
Li 13.471886475702842 8.751515849005447 11.423660746574676
Li 7.681718984348845 9.483852406091675 12.380534097167851
Li 8.669336336030259 13.950575744647052 10.132892032226339
Li 12.259501266760575 11.271290208950832 12.350225691303631
Li 10.614583337841529 8.772648969523656 12.17005215558221
Li 10.458270158945385 13.670149154070849 12.705716919097116
Li 7.463963967271289 12.62748233330834 12.741792611968327
Li 9.877675412495062 10.927272010923131 14.047056655093868
Li 12.492953055139333 9.198698247897987 14.388390906220037
