28
Energy = -36.7856802 eV
Li 13.700762912938563 10.160813583728611 12.33180920640562
Li 15.589778148665157 15.173500036218874 10.888416363808066
Li 13.877483356329462 17.29434354977248 14.776975921083762
Li 16.23669983150671 10.843681540770605 13.48032953121032
Li 12.832487639247253 14.322286241594533 18.322125648389488
Li 11.34206913205686 12.032682363086831 11.605324219392665
Li 15.714897573208727 15.48892501444068 13.800531126937628
Li 16.04134263144373 11.167369600011899 10.718568763482917
Li 12.434433441643971 16.69699928001836 16.977580122797434
Li 11.127602492619571 16.363089933060547 14.384212887211643
Li 11.54121151482567 10.866619545201987 14.058030140268148
Li 13.281066480581115 16.08234549329347 12.36963426739644
Li 11.743383016193704 12.06329701917306 16.698330761469013
Li 17.18081420880913 13.353930978572798 12.585777957436786
Li 10.463092210544133 14.655639494060722 16.628419571113596
Li 15.082467234408007 13.232621500825825 8.816888370255043
Li 16.06518681796693 13.115018242182543 15.183955296079453
Li 14.166743293440465 13.08875553534688 12.577826727394358
Li 15.133252051354223 15.404213192006212 16.74399852541804
Li 13.048801919528133 14.186216811016651 15.052625671375194
Li 14.545735969957317 12.496308317171648 17.384888550637665
Li 17.558728806889132 13.313603364566175 9.855269164613592
Li 12.861788584229979 14.231557989140487 10.104277267056718
Li 14.033385221970663 11.03219408086493 15.12426476216073
Li 10.138676886820368 13.222471705370658 14.31257700250567
Li 10.75752271476434 16.039732212309683 19.02432604470769
Li 10.95910926286919 14.686367544260847 12.171542098216543
Li 13.383256939526568 11.349922037990037 9.830428575402726
