20
Energy = -28.56777672 eV
Li 12.25455414338081 10.542237550371413 7.812231660086468
Li 9.325317301531767 11.38722535764043 7.116611949531203
Li 9.906504145382524 8.483830662903692 7.980498978229341
Li 11.292145860519511 13.253092195848994 8.868782926753129
Li 12.060439455102133 8.591694887833578 10.058611111888668
Li 12.732701850084993 11.55336704837577 10.66826253069635
Li 7.369678495058932 9.971190588345497 9.278044375468282
Li 8.26410996240059 12.94009409694846 9.686948678123127
Li 14.341198121799081 12.867807904447051 8.766453977942835
Li 12.961159092110838 14.351459418205327 11.167683988373646
Li 6.4008560620365 8.633590786024516 12.093114362197763
Li 10.04490422496522 10.749989078202152 9.67398939842046
Li 9.157590748647594 8.269901546007603 11.06864478737543
Li 8.188670670991774 10.934668620984645 12.018085149631881
Li 11.505041224909174 7.217276354149971 12.682592457836728
Li 10.393459205680143 12.888486330417145 11.825513538638644
Li 13.895513963248725 9.35820694082652 12.284197273085564
Li 11.086934147416374 10.009785189005552 12.390156663132727
Li 12.774905121148283 12.116573263293857 13.513457869199902
Li 8.972006725500108 8.807212702082763 13.973808845302347
