28
Energy = -41.0654685 eV
Li 9.940496164252517 14.668189258765201 12.686349389392616
Li 9.085351362017713 12.141423949992246 14.272445852535833
Li 11.287967059304536 12.25567529558064 12.380862042219972
Li 12.086880791174748 13.31036868934468 14.683150137820617
Li 12.83124707591664 14.7326943690006 11.762164414977645
Li 7.928521184355785 9.4051939764529 15.43575773432775
Li 7.901427989039959 10.066379647183725 12.60477648986171
Li 8.65247810932787 12.333349923706377 10.831149872633329
Li 10.824778487113287 13.764229460794771 9.96332088184348
Li 13.118473980486014 12.083274945501866 10.16584784501903
Li 15.191414466862653 13.781883745395309 9.780442695913713
Li 10.395888162479341 9.57388975478801 13.766922728631222
Li 10.521043953705428 10.18549634326121 10.693312870391189
Li 8.541583988187702 7.208833060091246 13.201189866404556
Li 8.297006464534658 8.270738789754901 10.478331567071328
Li 9.16947134702243 13.570071899609587 7.718238968138982
Li 13.021398897924843 9.876751298395247 12.32421095684873
Li 12.650583003826561 14.137167102252088 7.931144177883806
Li 14.40422037781237 12.512419483904072 12.69207619397899
Li 8.967296433464291 5.654103539153171 10.122673690896503
Li 8.284180001135688 10.408058988206593 8.551495311977579
Li 11.106047125452404 11.404218324057611 8.191581504332143
Li 11.050628633717151 7.509949350150705 11.465794277667916
Li 14.256822112337264 11.54418756781552 7.727613401577812
Li 15.52372997643827 10.732360439262866 10.401597828086777
Li 7.425779931026034 7.281650380450434 7.9302594396812935
Li 10.270352147116238 8.034534091143135 8.497323173318154
Li 12.930994224393395 9.224015943966364 9.452894641977657
