26
Energy = -35.78275229 eV
Li 8.429998584433616 9.938460540310675 9.071804997711777
Li 10.453915301427788 11.5172447535567 7.377907302065227
Li 8.01235568046337 11.45476028124319 11.75173885604284
Li 8.401884926142912 13.04155108015433 9.121410475965801
Li 9.800651476449481 8.925835410552713 11.58254110185635
Li 11.386280886475664 9.00565076449492 8.956231639195675
Li 12.350598182447763 7.341043490346168 11.37004055728299
Li 14.388026241778599 8.910806036984136 9.679777491080456
Li 14.650925753982081 8.892063642189031 12.783792893435962
Li 11.786064244929335 8.972423873230763 13.950784564307678
Li 12.613770856208252 10.079279993133262 11.40011854568395
Li 13.132392127840191 11.519779986504355 8.784241795262151
Li 10.62562662745606 11.467313664316915 12.971426482525418
Li 8.852687856240658 9.881980573389098 14.313604643437083
Li 10.4288448836157 11.492199915740144 10.126316284091253
Li 9.74769826385615 14.024236419839768 11.649044729901535
Li 11.325010349381829 14.016642179181154 8.996472030665105
Li 8.818813557308603 12.994915865286172 14.343525761827278
Li 12.576874124871088 12.935379150936361 11.403233469450445
Li 14.332262036003069 14.150804728642623 9.687930730867217
Li 11.731542256192387 13.977630638288506 13.990018694623243
Li 12.259780548567921 15.662941912877683 11.430065624458127
Li 14.585003806613187 14.158375782760979 12.792758445424376
Li 11.151331481954324 11.456085581233017 15.674794885646353
Li 13.555005504590731 11.511234294094859 13.870650562897985
Li 15.105287389209167 11.536900768254123 11.184408702788653
