20
Energy = -28.94799035 eV
Li 12.015803355333928 10.856774966532369 7.847209772870016
Li 14.532577679643234 9.190788534521422 9.355627101048956
Li 10.916515911431544 12.337354321129748 9.861768777817796
Li 9.623123584219336 9.976612884484528 10.081006611179737
Li 8.852516774862304 12.141465378204881 8.17758081185849
Li 11.56356637766992 14.20557803955501 8.19717292668923
Li 6.929789471398302 10.385751574496254 10.420957044272065
Li 11.43156622537381 7.753450213971805 9.225338872970559
Li 12.313671849026912 9.988109005998162 10.413555644641828
Li 8.5221387892478 7.660245417243092 11.080531365466575
Li 11.381545842900897 14.40265486246389 11.566658983290397
Li 13.656249913789985 12.391056090412032 10.286118443692247
Li 8.662993501626792 12.802816207723307 11.243475945617522
Li 11.332586353866942 11.52025091350362 12.383454269240199
Li 11.257696491838523 8.372226411955559 12.302947686062952
Li 8.865700036460723 10.202698490393134 12.873551741400446
Li 10.017201916759731 13.024322283073428 14.151812751274573
Li 13.934656704496778 10.044138303718675 12.582379237189915
Li 13.158628391644994 12.898450255884256 13.700669041507318
Li 11.563442524634349 10.377227540962357 14.780154668135872
