21
Energy = -30.5128192 eV
Li 11.910217469896384 9.28805551197625 6.075963671435463
Li 8.819127809033155 8.73905709795028 5.903221300801844
Li 10.278210155684471 9.068487280230645 8.138279602429076
Li 6.551775894134031 10.030603284256966 7.390854661983879
Li 11.977427684981416 11.307701110526232 8.498556076916142
Li 9.239107243304083 11.575643816559383 7.115837985656535
Li 10.640706388645864 6.536968728522091 7.242383199086331
Li 12.803488338529096 8.47786060178256 9.301364361433892
Li 6.862577932992364 12.6685701129788 9.041632419023388
Li 7.952894229361581 7.577679041221677 8.731498650400956
Li 8.269077392312573 10.388903683452794 9.486948516374586
Li 5.973946257016524 9.051825641249513 10.413591374458031
Li 10.28934821980852 6.9592824182880815 10.26845914094122
Li 9.873123046516852 12.614021254588025 10.30811506168396
Li 7.542803877596039 5.914705197863154 11.136366578149698
Li 12.959841054562423 11.087872521100211 11.520623279386806
Li 10.73773047353298 9.918510317875935 10.685257995210891
Li 7.507931686614405 11.4749158261888 11.879399609606576
Li 8.56091768761935 8.596787839173292 11.838919284188863
Li 10.241070334117545 11.08319239355364 13.055826380222221
Li 11.698348643598843 8.329028140521213 12.656572670468579
