29
Energy = -43.13477006 eV
Li 6.613007177117816 9.141172741146352 10.674342148357805
Li 7.5395007614863445 10.80465949204239 13.419250142956118
Li 7.953180850840686 11.98632498538298 10.624135141836604
Li 10.169624772886403 13.161384266373062 8.0401808121292
Li 9.31107358208705 9.511971779773775 11.41140852941376
Li 8.026075114557068 13.940858718665588 13.39750071536469
Li 9.993465413160038 14.28512192618973 11.003129973450992
Li 9.052719479492426 7.2408355789878 9.761692200094904
Li 8.835898810905814 9.909495626885723 8.502625928089696
Li 10.80317119591048 11.741161698330261 10.076540295587066
Li 10.414067812645246 9.457462962997923 14.239396975512031
Li 11.336499083114317 10.437178766173611 6.90133817982981
Li 11.649402053496852 7.5123492800703495 11.674007512400957
Li 12.698045951606545 14.732094183170156 9.822566343629285
Li 9.994732149011233 12.120468641642342 12.889553154651928
Li 14.213525318788529 9.952044344710648 10.630923800187125
Li 11.548992525704406 9.113757743425124 9.337636438391684
Li 13.588311425269124 8.921412609895746 13.723170510525277
Li 11.99698955571354 10.259742477191791 12.110007076281148
Li 12.424063316531491 11.933589545015451 14.546054156828019
Li 9.473940151214643 12.384618902680703 15.54792082844491
Li 12.794983223533 12.884962014727979 11.759206285947503
Li 13.184215731332545 11.848339839189835 8.703790957901678
Li 10.864743502875678 7.45526236966735 7.239551147277855
Li 11.17161057212915 14.556458503678684 13.764488129543544
Li 13.7700307851168 8.843290013022834 7.685564083083017
Li 14.967546728142835 11.747843625970425 13.04725850979232
Li 14.283304031593357 14.79948989042379 12.924333678245345
Li 15.329260842400235 13.18583566322721 10.485394247951332
