21
Energy = -30.41122079 eV
Li 14.181000308761956 14.364992503781009 9.325800773550627
Li 15.08253116925474 10.711766870470031 11.968530941444845
Li 13.219490060658828 12.132655727824382 10.452862295900514
Li 13.275074629806191 8.563594393660468 13.827950277246849
Li 10.624157713270908 12.567602071885563 12.395267791045278
Li 8.238713088858866 12.828043338348799 13.687019102683843
Li 10.949459912883592 13.573612467812588 14.913987898654305
Li 8.774429877585002 10.262542748191315 12.00935328204849
Li 11.20452434148652 13.948557691329219 9.903424321147957
Li 8.70531494885478 9.352459754748873 9.112577104997166
Li 10.780359264999165 8.237182070927089 11.520056757152513
Li 10.693024807608435 10.905548083062087 10.05285009665815
Li 13.190665062531334 9.35503156181847 9.74360989996546
Li 8.461666451921246 12.670174303638282 10.34866825609432
Li 12.994100345239506 14.068012908933818 12.442059322125013
Li 12.34521009298987 11.93117699195069 7.851628316081164
Li 10.572252855304976 10.416455538265692 14.454099033784106
Li 13.3863096567323 11.6718776177453 14.363843655157483
Li 12.25795297918075 10.416395569025811 12.304600783766507
Li 9.907281312772364 15.183539851096796 12.431151292903087
Li 15.293018136691401 11.449070296416869 8.766854282811062
