22
Energy = -31.63604365 eV
Li 14.576381709501778 13.23887782684306 9.017906009220813
Li 12.209457767039 14.661495626162283 10.403908160208015
Li 8.03029161787257 8.938431077684088 12.18433669242359
Li 14.898968566235778 10.335007947203659 10.429226606580995
Li 11.262104973978941 12.6577989180276 12.610059150995088
Li 12.840024267814206 11.740684825463719 14.950399375352852
Li 14.04993867662618 7.649004318541512 11.917213003335979
Li 9.889601705453623 12.98739380042151 10.026693004897854
Li 10.159980081192575 10.243324080726264 11.096249426448525
Li 7.7888521418418675 10.849827843374344 9.638241887246993
Li 8.276293281937242 12.23367738001508 12.290244262667906
Li 7.358225571335223 14.074147813122154 9.965352554488707
Li 10.509540068471809 10.73095634160058 8.177946866573022
Li 10.944304165827074 7.753726696120131 12.329308128588025
Li 10.21957652609052 10.315006326038915 14.021770457820557
Li 13.56574487285266 10.586487607567083 7.613785752575689
Li 14.114294273869358 12.872948704700933 12.118282520131494
Li 9.417183013679125 8.033177473888651 9.561986357077405
Li 12.768672186316659 10.140340415751728 12.538065518237323
Li 12.502864391792322 11.764050590055108 9.99237724379051
Li 12.383877145158847 8.830685155928274 9.824205360853284
Li 9.504346486980339 15.010079132296505 12.042097391206264
