26
Energy = -38.31261336 eV
Li 11.431122448074502 14.651410665325635 9.531872749501625
Li 12.228548357099443 13.025954324873132 11.76392784682993
Li 14.748278536612684 11.99798213706985 12.56232272056609
Li 13.585704707314052 15.238147170433708 12.04621912518123
Li 14.08529559419509 12.94875883347496 9.53990549163389
Li 9.047218400372662 12.566493868340821 7.528967725322683
Li 15.942073882477901 10.438646520030678 10.19609141634667
Li 8.632029504079181 13.624924711771612 10.367628606684454
Li 12.749537288944774 13.22991701696734 14.581616201928535
Li 10.392348754297462 14.786074464394881 12.65926174690965
Li 9.734986841219738 12.586398310862064 14.72936564084478
Li 13.77222427797583 10.408804705994742 8.003834803235629
Li 12.03349739849464 12.648663154373697 7.036805015844612
Li 13.042457351065918 10.576478557135935 10.644116520073533
Li 10.927875206522963 11.947684902684674 9.446810235956903
Li 14.347766949144626 9.035607109353712 12.563937235453347
Li 10.678446519124405 9.80844476821585 8.028685680523417
Li 9.879112803830015 11.823858404715994 12.093295185894142
Li 8.277683154034776 10.665287762872495 10.149587761050194
Li 10.757484305334097 9.217302086015446 11.35171066808323
Li 12.079974003408925 10.735443906978922 13.563444459910416
Li 14.226692642795694 10.364661748241708 15.28419971180043
Li 11.938195719245053 8.228702406075909 14.358689423118562
Li 7.300516184669343 12.318219340682376 12.863689710783722
Li 9.146664565471882 9.832701397590528 13.92198394061021
Li 11.360498525785305 10.563230844069148 16.278625848952526
