29
Energy = -42.78666349 eV
Li 13.985035397176706 11.131643872690004 16.009573363547634
Li 15.154041143028605 10.83829413758472 13.22805531355576
Li 12.452928170423377 13.769746913357906 16.428411394411143
Li 15.958693811948363 12.81974560221817 11.035386838150208
Li 14.628420582172433 13.716022937401052 13.886795562252928
Li 9.798786694043518 8.006500093894225 13.35796702448973
Li 12.384349019407116 9.615013807302756 13.297502779727683
Li 13.400023514355821 12.145355807775719 11.591477882380278
Li 12.287126771918254 12.275658759234975 14.226707264510145
Li 10.915655407086847 10.54153765357728 15.904698227358049
Li 13.988005108176205 9.647141031016847 10.567287271842211
Li 9.782258753330703 13.607048412810006 14.620162404068543
Li 13.807317834056608 12.29760490000509 8.767813090640725
Li 12.107259737251189 15.380423513286841 13.675932482009625
Li 11.193936590183407 7.8968305588760375 10.700342062576519
Li 9.795852839083096 10.961029914976317 13.16530688098569
Li 11.155122820258212 10.711693240275237 10.774515388064488
Li 11.051755828369597 13.40176857883034 12.092267297448887
Li 13.388578674527055 14.828826246769419 10.855463858471689
Li 8.693289804336684 6.25368407588175 10.876103974474661
Li 11.278933109179176 13.24145276976525 9.313566918097298
Li 11.920667222044413 9.908281077177007 8.233736643545335
Li 8.691724155086339 9.24796841771961 10.796740948512172
Li 11.357299230462763 12.606839427754908 6.575067071012707
Li 9.528013400463491 7.9926755470671935 8.35199694241951
Li 8.694104938123111 12.680413709793466 10.854524751379953
Li 10.265433592842953 15.65787484379404 10.809971591834566
Li 9.34089209310539 11.141193006277009 8.3844568377483
Li 9.114886960403846 14.235073637373166 8.063002429356768
