27
Energy = -40.09320551 eV
Li 14.364157166690438 10.889112665322703 13.049576581787463
Li 13.039498743614956 8.698830780076197 14.896149248773966
Li 13.155378918820489 13.800120394564429 13.247522285569234
Li 12.219788877026458 9.082364513132955 12.128768162397458
Li 12.295247125416791 12.04541749953677 11.281794280885213
Li 14.07654282246556 10.053540285049746 9.958549708958197
Li 14.738671667016142 13.094861886229843 10.74268694582428
Li 11.537679707890893 11.143186082680915 14.096641066755385
Li 12.101196023668585 14.70697144518159 10.442309741424292
Li 12.503691577017733 9.402642730109141 7.199782740311674
Li 12.30086447630413 7.395030199168152 9.585785349413824
Li 9.66126797575963 10.653629676883849 11.724188002442627
Li 9.909441220696168 8.609889905277514 13.83553814220838
Li 9.535926187428128 7.853253624376827 10.774548460275351
Li 11.220249799326497 9.983338598978083 9.47771080927698
Li 7.217027510377211 9.197842359576192 11.902706546552807
Li 8.355898504099551 11.312737606869094 13.963787359612704
Li 10.083250132199776 13.43344139652292 12.478018759544073
Li 12.61559223024668 12.325936677335612 8.386010226787278
Li 9.6607582299738 8.067887955399652 7.786954421693132
Li 9.835257766033926 11.046169281474008 6.966967568725855
Li 9.817748487477086 12.676509419808111 9.494443457616796
Li 6.975116194919435 7.518432903260514 9.133428148307555
Li 8.149055618161851 10.11403767499525 9.162495949987205
Li 7.332349496935769 12.229981415236905 11.05267836778683
Li 7.160144612616172 9.499099899819667 6.622600217949461
Li 7.288657612662756 12.4388504620342 7.747301046507085
