26
Energy = -38.72669037 eV
Li 17.152121235121086 14.801894054018922 13.033373729475592
Li 12.050952016967736 13.475313082095749 10.456375640276736
Li 16.82268832174253 12.231498613211574 11.122825642888476
Li 10.95096044023693 11.26484892706031 12.526642213145278
Li 16.379207365757807 17.140466739885383 14.94646895308598
Li 13.560702702826847 13.251443263678649 16.164955928175807
Li 10.052354429532913 14.291337119946155 12.865932823898495
Li 16.388792153680605 14.236012514624994 16.10560326222983
Li 14.7122739824006 12.873847286545418 8.906093861136592
Li 15.435937548170575 16.97287465932408 11.890581106077903
Li 12.500257047105697 11.237877940513158 17.763974308172397
Li 15.436629283387115 12.43391633978002 13.855744669178861
Li 14.169698542888048 16.032134620154196 17.004203720950986
Li 14.758581878220093 14.135051215261772 11.378463081088473
Li 14.565096418219502 13.425556425446016 18.700409454417155
Li 13.091212377724966 10.701318698200772 14.687051190789454
Li 12.504529292987286 16.06837940472395 12.189754929578076
Li 13.886911957498526 11.281823432769146 11.532512675279758
Li 16.779882007584913 15.073761122120793 9.797363652034903
Li 12.62137918115388 13.305225653368327 13.318372939087984
Li 11.68800621377634 14.222286836151763 17.974915043745067
Li 15.428566516580704 11.202570777638156 16.672885747409612
Li 11.774713410245027 15.523458372602441 15.13202745305033
Li 14.560655755051638 15.249761402671442 14.158126412435893
Li 10.792699578057583 12.544928476791254 15.4810829369458
Li 13.831809340680486 15.80720863309499 9.368094949607809
