26
Energy = -37.8266857 eV
Li 13.100492923439521 15.441531064997493 8.066158500993225
Li 14.033372913616205 9.219104663430086 9.735118939094798
Li 15.41084856536234 11.66436422772231 11.473740946101001
Li 15.122412468459075 14.641660261540942 10.336019813309298
Li 13.978036432333806 9.1314256245407 12.59011695584794
Li 12.20136915539784 14.31703523666737 10.534126682184455
Li 13.669584308483692 13.606948644729314 12.940052355069582
Li 13.727648150773035 12.475478992087476 8.977252434171993
Li 13.60693529336499 6.4560089305732244 11.413322638147141
Li 9.277545619593607 14.807817650254355 9.857711330336485
Li 12.78614949879215 11.16658237817025 14.398712108313433
Li 10.990244845147116 13.24608939156075 8.026437365057026
Li 12.680267001315062 11.383718960412567 11.384310284774552
Li 10.617530097996882 10.31147688615387 12.898291801163428
Li 10.498016782425006 13.128357374054332 13.204620693208478
Li 11.491248399228638 8.411632570927225 11.0926299841143
Li 10.152478981681298 12.248108083377032 10.559419697022243
Li 11.255517530668772 10.342390028572753 8.866981917032343
Li 8.330395728610704 11.761830759066395 8.454803587516215
Li 10.031601496978654 10.300873131885835 15.530367945769957
Li 11.714995620510807 7.999818115988284 14.011662202822956
Li 8.009673885125649 11.01066153526643 13.39895151164143
Li 8.753344046416476 9.839559955444292 10.759026081608523
Li 7.438521943585044 12.601541895157755 11.11723705958046
Li 8.639147358712888 8.196364889082071 13.2378974050472
Li 6.022951073594544 9.771378121512091 11.55211046493597
