23
Energy = -30.81624926 eV
Li 13.160001623776427 8.891501312344547 8.276907634281494
Li 10.95132240319479 10.042799238969474 6.8933946421133
Li 9.354714867511582 7.657103203355905 7.512394166287555
Li 13.483978909529856 7.763462170384258 10.90093526749993
Li 14.67978346524231 10.40817716390453 10.293596397714266
Li 12.120470788641466 11.320701951378814 9.276987038622053
Li 10.823063986802392 8.597237635644836 9.985672220847823
Li 8.851572006308892 10.403063818872269 8.771942225205084
Li 7.743109911104509 8.018050485717037 9.82346543172036
Li 10.153237244181478 12.764211076832073 7.709946617370977
Li 11.453873052687774 7.410888252476915 12.824982896079963
Li 12.512882223511575 10.093271957493238 12.160618806843232
Li 10.113467871751341 11.33295020561344 11.237915401311596
Li 9.010664603542688 8.711436695638357 12.247176415727589
Li 8.239843064904493 13.073492372072058 9.867242160947235
Li 11.22062440452014 14.018371546649085 10.110542309462675
Li 7.159515619474839 10.632071807591428 11.080806356924445
Li 10.686585459729054 9.804149220243085 14.3337112020277
Li 13.497419464043892 12.77042178691005 11.416579790586848
Li 9.45917360432864 13.99626937489315 12.372799431032991
Li 8.447814363965763 11.506482865345463 13.554609136632159
Li 12.207145994062389 15.204784411104693 12.63053745406219
Li 11.565511651816115 12.470094245926925 13.579912728161093
