27
Energy = -39.33759878 eV
Li 11.257610932523912 15.97173744014362 14.929762634124623
Li 11.97697628457914 15.914534829858056 11.829959424965056
Li 9.914596587495067 14.104932262352367 12.908954490254704
Li 12.62200433595211 13.073113040735224 7.698828118763747
Li 12.645223388374806 16.003501617476907 8.751099160784298
Li 10.768360121652625 14.099921848776967 9.863376639288784
Li 9.66968093889645 12.69595198656499 7.334634700299053
Li 10.596297531127448 12.948156962325273 15.618499098943493
Li 8.668046415384389 12.088529207421459 10.469804377742957
Li 9.370188793114885 11.05358177679621 13.41005493312734
Li 12.628320454431561 13.61381452218578 13.605625091094833
Li 8.89228994876719 9.779882937878197 8.018256243328901
Li 13.42927038869467 13.5768441027723 10.483123621117969
Li 11.394682445013075 11.95565248292108 11.731867617874514
Li 12.00585007312605 10.584105316782201 14.382425753805402
Li 9.767090666983625 9.9709673273589 16.187170790806682
Li 9.388172203779664 9.242457764632388 11.024738303059289
Li 10.968984473808533 11.0858751670388 9.127795089450707
Li 11.700001465720584 10.30740727849949 6.576867798526998
Li 13.644101517518735 10.633120716569422 9.221188937879642
Li 14.203609309670906 11.004198864151464 12.189680022010393
Li 10.639063580295316 8.170119622936939 13.826354359257486
Li 12.348489430758264 8.464185129981226 16.356447245504718
Li 12.098842700510724 9.310738820649007 11.535828607395269
Li 13.671822752174293 8.203506301045367 13.597867683139098
Li 11.557287187298849 8.274470701217966 8.93703184885755
Li 14.399491575695661 8.052383676391583 10.601646811120583
