26
Energy = -38.22115902 eV
Li 12.864308153838609 13.264259455033175 11.805309938307943
Li 14.854936926427014 10.832172573863305 11.02818585266507
Li 14.634776960694154 13.15957042513321 8.946301620549189
Li 10.06283208374914 14.766635038554075 12.28849611742483
Li 10.665707883924926 12.43318023669947 14.02552023294715
Li 12.747055957880288 12.320268461557095 6.691788095780748
Li 12.162436966345528 10.46308996284568 12.192736108229056
Li 13.208679872393082 8.58389928643404 10.141970847428606
Li 14.08198963269094 8.574716259837539 13.13463898935654
Li 11.613568495971677 14.178173766530012 9.227080821916637
Li 8.187060019171726 11.15264417877236 15.384220167288325
Li 8.68841367111678 14.306086529095257 15.227447762259851
Li 10.31719687281203 12.283078763510881 11.024600029598506
Li 11.138222322153167 7.778350194863044 12.203609968706994
Li 7.929411279253361 12.650178428947724 12.95752005590368
Li 12.60659307258667 11.431903605709575 9.32159805363117
Li 9.927804521051966 11.830399531595704 8.123251494683107
Li 9.253689026563258 10.084634778180254 12.810618584758327
Li 10.409815459905062 9.59915329509885 9.974740202545963
Li 14.76392724584671 10.260511535381172 7.933639829592995
Li 6.459062144565073 9.974189190422605 12.992058682889333
Li 7.772640987211783 11.008267858188082 10.34344153682602
Li 11.799349662216807 9.3815427614412 7.412947260132486
Li 8.696537956726642 9.006283954356238 7.8802223419701845
Li 8.208872966536845 8.094050328468992 10.960320825300037
Li 10.732972195469205 7.013626137928351 9.113491009212826
