20
Energy = -28.34534585 eV
Li 12.541859335119884 12.468149366889648 10.07526521485194
Li 11.428452206811937 14.863891726801674 11.514867741614335
Li 9.483533063778392 12.84630700237545 10.293242897676617
Li 13.819367902348144 13.25604122708559 12.68463438237024
Li 11.040780527541093 12.304210561872775 12.70564846789177
Li 13.199766507166132 11.014501813121385 7.658311816735489
Li 15.27720851518761 11.665609464139887 10.218272664396897
Li 8.81476883573802 13.987517632566687 13.049669136276831
Li 10.149640590256206 11.332691752757546 7.891352778994853
Li 11.472862199499382 14.270863257365917 14.635752304911833
Li 10.983897242668514 7.6412451282468 10.935721902977347
Li 12.603766713029001 11.437362196347882 14.957657756554388
Li 10.890832766232922 10.276286132075226 10.384942070039926
Li 13.278402887249612 10.424371782386409 12.18002018183298
Li 10.749936634159562 9.490423256734971 13.306490624164727
Li 11.18027071194803 8.576179676606213 7.9822407347014135
Li 13.520355561432154 9.153135346937328 9.68485473863284
Li 8.465570788560019 10.898265170371268 12.175071702102564
Li 8.532336247398941 9.20946882787789 9.580698238664915
Li 9.536061154451762 11.853149068017066 15.054955035185666
