25
Energy = -36.53271689 eV
Li 11.197195901219079 9.961254723547192 8.444168176822414
Li 8.233058689817334 10.761996075817462 9.019472141287496
Li 13.039914888380443 12.526200048491702 8.369065702663498
Li 9.285469327404064 7.922328058910425 9.613045001997932
Li 14.17831720081364 15.287379982431245 11.83388723852697
Li 7.483508276681684 9.467854279341154 11.671929425423535
Li 14.257531597584386 9.553106768814407 8.892242433113175
Li 15.230692472657068 12.351127633678361 10.557509804360645
Li 10.367596721634373 12.82964920520707 9.644305820148999
Li 10.072659252146302 10.205066839295549 11.142275754663226
Li 12.173952587655801 15.455480175023874 9.254709954526751
Li 12.254880848070728 7.965467949165307 10.651896944077007
Li 14.06914599535824 12.162406456830599 13.304909264119699
Li 10.593128349542152 15.113925958826897 11.972926935532126
Li 12.601862700984459 13.438020439624673 11.024896242032755
Li 14.916663055973027 9.388654536164017 11.957325341119471
Li 9.881486065002736 7.740819633500632 12.628517518451908
Li 8.424297292083576 12.53009049408274 11.861465454949496
Li 12.812043431794658 10.762502655256368 10.8266262757097
Li 12.469519511983163 14.489392753408913 14.258635533859948
Li 9.331946305381804 10.440708065892238 14.120425693383359
Li 12.157918777347804 9.5702909623143 13.373706027832768
Li 9.607126756249592 13.716165308998836 14.708980167066356
Li 11.922004388559387 11.771832435427893 15.598111012174762
Li 11.125423345442965 12.275622299716783 12.9563098759248
