27
Energy = -40.12560769 eV
Li 14.419378061469743 13.930055949866524 13.089796191035294
Li 13.450484903675676 15.559041442383796 10.720411050448789
Li 12.03414573127698 11.729309696425378 13.79363045476246
Li 9.978305574126804 12.193293520705678 11.79320438804523
Li 15.42080077573977 13.26036146571538 10.223399063914384
Li 9.043325118872797 12.279327910229858 14.577586760339837
Li 14.498432078327307 10.821802799799086 12.150082189872135
Li 9.690737823679713 9.667751595825058 13.383512861919792
Li 12.61334760083729 8.633179460881856 13.58658449331364
Li 12.791576167231554 12.94973592808305 11.075336560734087
Li 13.077515147992868 13.558973348197403 8.235173111698343
Li 11.313481852706719 14.546594424642388 12.984117455425983
Li 11.858169190955097 10.058520803218673 11.367823527463509
Li 7.401030993616216 9.529215403632813 15.128843200339722
Li 10.556800963486838 14.465998675075301 9.930323355467248
Li 8.057547748262254 12.392989930956563 9.73746258419682
Li 7.315795765883645 10.911429279321709 12.505999716857898
Li 13.637896061180458 10.775575805910115 9.127120769407256
Li 13.641493599633035 8.085786777607941 10.751986697370894
Li 10.512156994882682 7.453246396512466 11.3933093618884
Li 8.912155220699043 10.070310082408124 7.566041198280894
Li 7.572123223914223 7.9078260327754295 12.275288655912822
Li 10.888586036764965 11.66800890661633 9.0780372978637
Li 9.025543512695574 9.685550210389321 10.422589412875615
Li 12.060548274516417 11.046492476953361 6.569604311376097
Li 11.247818025042399 8.742610108840262 8.700286148241204
Li 8.380745299175121 7.329917477182073 9.145257818065225
