21
Energy = -30.36927113 eV
Li 11.829887645773942 8.515480955933278 6.4419397637476195
Li 8.615273169380286 9.83203971765978 6.5217435235530825
Li 10.993534159817111 11.332699252989734 7.7196553922163815
Li 7.413999755763731 8.10545899871497 8.652115000095723
Li 12.762794852543022 9.054527386831131 9.571330143703856
Li 7.9168721071892225 12.882500218627841 7.503611567699069
Li 9.338659292260939 6.608705653308457 6.891162754787835
Li 6.060631710513287 10.695766061578441 8.33646803913192
Li 8.69467145970291 10.964296811509824 9.36444650177477
Li 11.726081085656988 6.296431919421342 8.780798916458808
Li 10.161647408914765 8.598179840398155 8.51032068577764
Li 9.564261535302176 13.618676101609935 9.898164269160107
Li 6.783279906750632 12.680321031804002 10.467857976651182
Li 10.239299975573282 9.192415324448548 11.107037263915077
Li 9.163937248596069 6.625435964592177 10.515425886151274
Li 11.595206033993446 11.583954071861628 10.541881250753397
Li 7.283927547421027 9.37294120133568 11.256130014504526
Li 9.207779601878354 11.499459444700499 12.33250978672965
Li 11.903796945466953 7.058086933641631 11.813519006818796
Li 9.356558163052735 8.235003165238124 13.42157662833319
Li 12.029648290110915 9.889367839456902 12.994053523697756
