28
Energy = -36.25997842 eV
Li 12.840908022345069 15.421294227144413 13.82826301788471
Li 14.315737264520573 13.251508260015532 15.022159888561696
Li 15.28284256991234 14.552795802909097 12.482050230181382
Li 10.285675506908994 15.211723481699853 12.681823379536683
Li 11.525591008307165 12.911802051146758 14.045958523975132
Li 12.705913272028225 14.227759523600493 11.198575499470023
Li 7.762498887266155 14.776248484376953 11.700007431125766
Li 13.11114880445964 10.663620976798178 14.83771997245413
Li 8.7803083803878 12.540322653072947 13.158544854593725
Li 14.27045251279398 11.903589073711613 12.411630076640947
Li 15.189032229009968 13.315210125225791 9.868734429987
Li 10.138007081852837 13.91811269771241 10.065371126102558
Li 10.122851540989826 10.358205983093876 14.25415286046853
Li 11.475040637304879 11.516109865186577 11.502247558008449
Li 7.6892214802913905 12.421741653133823 10.242871725571215
Li 11.891378970678753 8.181464662805807 14.90023623668367
Li 10.12799957496728 11.353891788467763 8.84924350725525
Li 13.36322174119728 9.231704688982239 12.346723456943334
Li 11.781673844302999 9.075385956530209 9.951696477552257
Li 14.179229962582554 10.62578943819169 9.836214674034613
Li 12.536730076078086 12.919370262841207 8.683868279369621
Li 8.956213140992839 10.162777041249864 11.571162547645534
Li 7.571187217663041 9.91869609682843 8.932035719622919
Li 10.741967159906427 7.970156345638851 12.389801081167196
Li 12.560520031886865 10.319455156190825 7.3897440091404185
Li 10.074461226307141 8.720433784244223 7.663159940282273
Li 8.876814717992653 7.705689289919403 10.170443380262887
Li 11.205709986957263 6.3041981646543075 9.361043432680303
