20
Energy = -27.76187931 eV
Li 13.433306141903152 12.256573591766923 10.205183972693098
Li 10.506414653091003 14.63668281698029 13.431775793100577
Li 14.142809867702887 11.687444909307615 15.195267228644013
Li 10.008483702218632 8.58015884575154 9.264921329470067
Li 12.4249211968176 12.571112646131297 13.033685406630555
Li 15.172643295211204 13.154147859481787 12.64949186235291
Li 11.715295984651275 9.967947293430504 14.245972513456007
Li 11.305052765593125 10.417301846508005 11.361782334901047
Li 9.539781908632264 11.748609479350458 13.208681462550512
Li 9.35683540052421 8.767394155953584 12.342830513831743
Li 11.031756798892701 11.215906688576128 8.633064410979255
Li 13.419595567497678 14.636071313231632 14.667093281266174
Li 13.116436596943426 9.208216522039157 9.457671687345602
Li 11.263793762078489 12.618256272763698 15.674857041411455
Li 8.910537642903273 13.007792202888194 8.067859649264916
Li 11.67594376627308 9.14612253183857 6.778852587153302
Li 8.59324596918344 10.98572121953438 10.315193147666545
Li 12.90659936307336 14.966258550140251 11.568650771711024
Li 10.51012974945568 13.29652927981721 10.700402477752784
Li 14.109162148257624 10.274498255412185 12.339508808721952
