28
Energy = -41.18265423 eV
Li 10.363343629858864 16.13763962431083 13.18271633142533
Li 12.484544270889614 13.937334199489197 14.093467766488155
Li 14.787097809141846 12.084243849325539 15.123038686650936
Li 9.601149105601609 13.244883502656405 13.775020129398568
Li 11.980260066382682 10.901647185804745 14.695070226440649
Li 14.052811802781894 6.761734134656929 11.655990655660379
Li 8.492212253735596 14.417398001477952 11.267168664253909
Li 9.56217950190461 9.17219366325576 13.288452034825163
Li 12.332258315413135 8.961982231724416 12.153190394191908
Li 11.397023288182861 13.940088451602561 11.338783992387564
Li 7.770401819476324 11.246046471684792 11.625095755579133
Li 13.513259418720496 11.671174159912884 12.616400432265243
Li 10.697205705205707 6.736286235196325 11.363776189421545
Li 14.59098069341032 9.195091820110123 13.833474625430327
Li 9.34105901440155 12.243658302528809 9.578473368432572
Li 7.737284353242643 8.076683722253316 11.002256233611512
Li 10.655289848216709 11.398343320072634 12.144746546979846
Li 6.596392027561635 12.994453081831056 9.268724016090044
Li 14.147161000587792 12.973442338305388 10.085257657837746
Li 7.6247211261079375 10.208147593043067 8.627952941835694
Li 9.955265696131702 9.355662383462867 10.358989025684952
Li 14.734955073412065 9.68503413348352 10.77976673230153
Li 12.494591662204435 8.190423177495143 9.349969129861252
Li 8.588308509932817 12.642893278728236 6.924249334561468
Li 10.615107896076 10.333851614962962 7.673203377814165
Li 13.783627852762725 10.817255519056431 7.83523240007465
Li 12.177570732019554 11.133904640441074 9.973183815801578
Li 11.648963815095502 13.195338376555062 8.111150452821342
