29
Energy = -42.7293039 eV
Li 15.07866521749735 11.44661056279326 13.942891661843305
Li 13.714918398251001 13.777271332064961 12.44113504469449
Li 14.723819254663441 11.642837981586213 10.683274902002132
Li 13.438177796369972 14.426041340706186 9.421586844640446
Li 14.371397768688697 8.936753757505057 12.424772821966098
Li 12.575637326043301 12.73124733503487 15.126186848418271
Li 12.663310080953163 9.562908649769275 15.072711769585787
Li 10.759533443805488 13.67687656398166 12.569364255562515
Li 13.211664590595005 11.51517101709245 7.848123079721302
Li 12.537984352911703 11.095104600734304 12.812363557766098
Li 12.496879701848526 9.656966606977486 10.131985487527473
Li 11.11427569866494 13.556342344538992 7.561273839574282
Li 11.936639670233626 12.439147554057708 10.309239814184952
Li 11.4072014366551 8.316658106608692 12.506440227884966
Li 10.24460465471658 10.900283153089807 8.510944419607442
Li 9.928709535338829 11.433200427581063 14.333803019734919
Li 9.987741219146884 8.17723731290606 9.805518156454706
Li 8.684568695290523 6.991447635937309 12.282917781503544
Li 11.673004744257078 8.712782791621601 7.349417508126362
Li 9.770660601983659 10.67748545260797 11.530760782833283
Li 9.559304804465594 8.66232883318846 14.635430324616726
Li 9.360874770639603 13.55732106559968 9.94187039397683
Li 7.821305414356321 12.652663164319218 12.490604447503058
Li 10.718433929170882 11.08470868774466 5.750995752759028
Li 7.186082285076656 8.47299750319381 10.130609090173094
Li 8.291065123033782 12.37337204112144 7.079276175937244
Li 7.401062117903482 9.707661383744922 12.84569246030698
Li 8.501808874100417 9.213155359982439 7.2528910100100745
Li 7.5034481122354055 11.245034390837132 9.801941803958085
