20
Energy = -28.84875644 eV
Li 8.132576390753343 13.95475275266487 11.095374882764725
Li 10.522510799460528 9.874705507964896 9.448185874979131
Li 11.807016465620887 14.276751104343955 15.091665831981953
Li 12.745803180829878 12.849444208838383 12.76850022754975
Li 11.85219054095082 11.110589051577897 14.98715903600192
Li 15.342619752497981 12.213791408168705 10.995381644035785
Li 13.137076957158227 13.989326656403229 9.973412316840365
Li 10.514058789288969 12.661693599830716 10.543860461840232
Li 10.991818088882216 15.043222887483374 12.140692297805447
Li 9.789803386262546 12.693095474461593 13.429714675239037
Li 12.45837394657495 8.260753682280948 11.0180395384679
Li 12.108669566795049 11.961646988300823 7.951497820053268
Li 9.405775025967118 8.037693642396762 11.731834888177673
Li 13.925230062037006 10.050149301720086 12.864220015127671
Li 11.579102244958325 8.130411622943852 14.017244813868919
Li 12.84576298323034 11.24113894947654 10.542215604715253
Li 14.40179609750003 9.969757941313457 8.95684676752757
Li 8.361134471747556 10.932613179419796 11.260292860109905
Li 10.974012474162947 10.238902216519165 12.400189561607537
Li 8.763203960074208 12.16809500864439 8.44220606605929
