27
Energy = -40.46509019 eV
Li 15.001080401956198 11.209701366385922 10.282937211012397
Li 13.384919152121514 10.45383666874802 15.368487975073203
Li 12.255097304263964 7.636294949974921 14.638044886731267
Li 12.737951009153734 13.324215301850053 9.8826940298465
Li 13.80987112964247 8.454328270677118 9.492162024220583
Li 10.405217740390647 9.872045806539983 16.012854118360153
Li 10.662119378869354 12.486786866004286 11.836853525651797
Li 11.180180038428647 12.68018379815123 14.736296740356218
Li 9.342952234192115 8.139541187807643 13.68100283389148
Li 9.471665257211894 9.870911968623885 11.084224638134732
Li 8.726025919603423 11.233864270475568 13.681086120621549
Li 11.41400815287456 10.00120901512902 13.462824452154104
Li 14.138954426395161 9.116873680350784 12.585317252594601
Li 11.982566489004963 14.849719974722024 12.469063167761792
Li 11.630506319879458 7.74489572853437 11.573078454605225
Li 7.948063112770164 12.498710066211615 10.646954020352144
Li 12.346131068876655 10.45344156524715 10.616338604323278
Li 9.965863037039748 14.67018298739417 9.948103704171482
Li 10.25327116835542 11.880043947144085 8.89833296919648
Li 13.47089779026614 12.123977783397697 12.808675026491775
Li 8.96261082777623 14.31169226808632 12.938020500923887
Li 10.84167571164373 9.000323265233188 8.526029166582546
Li 7.984085285277061 10.339592845401075 8.376393202346764
Li 12.908581272376438 11.113824947013438 7.793768120100361
Li 8.267492934334541 13.348322294201834 7.646559626835061
Li 11.325342696415266 13.81958282132131 7.20534650055328
Li 10.110326149281695 11.119060795075379 6.266693004722787
