23
Energy = -33.54942447 eV
Li 7.343610169047378 12.090211090472422 10.755425028959875
Li 11.129319828357168 12.07335735528361 7.292139573581054
Li 8.71992613530419 10.507667630738613 8.39016238562549
Li 6.9844667241185 8.857156128893905 10.563208106198795
Li 10.108759401359482 12.20037270209528 10.04544993027801
Li 13.044424135089942 7.607053580195674 8.727242551784713
Li 7.339608101444219 10.286031821779059 13.367202114619072
Li 11.21679874196688 8.942352490046344 6.686236581305243
Li 8.794018877796894 13.939858487065498 8.611049222589973
Li 9.30932689432519 9.934927583747148 11.360022141581862
Li 10.814662894287983 14.432477898819352 11.295424415987071
Li 11.95949418915476 12.980421686010166 14.067242516436858
Li 9.199064726040673 12.603949625734788 12.957814450860049
Li 13.754042760938551 10.301418106423544 7.472241711168154
Li 11.645221690635218 9.974736355904524 9.239209397603693
Li 9.835790556643525 7.782660699071482 9.513269493384602
Li 8.908651960916131 7.608913763842061 12.63784498981875
Li 10.419103162802589 10.155965359921792 14.10078130297466
Li 12.949761061323862 12.677626389415888 9.619372279629928
Li 11.849270394670306 11.332648161679584 11.908166022439836
Li 11.812994055188494 8.424511392807494 11.774481976197778
Li 14.151609409477324 9.903594316504563 10.587139349812963
Li 13.527038606683346 10.140341119724855 13.758378875388876
