21
Energy = -30.29255996 eV
Li 9.097817482777895 8.13519411193604 13.614489235705916
Li 10.492272759690948 9.74134804502998 12.007024795789063
Li 9.465027901535205 7.780912777492768 10.539169068241806
Li 12.468052852228043 10.495090840708873 13.909648737284995
Li 9.388173526697825 13.4336525378595 8.453990325914912
Li 15.072606000592952 9.90795190027272 12.020745468319904
Li 7.894503103057436 10.29353684679789 11.392200981964896
Li 11.076514039512258 15.18155790235819 12.210415879458875
Li 12.482997528618057 7.909268872398892 11.99679393408469
Li 13.885742441431846 12.96771516946226 12.389628144579765
Li 11.3689031911807 13.431761993331941 14.772323781212828
Li 12.842779153036389 10.795570556483337 10.913977817911377
Li 11.847309448809094 8.949545161226048 9.167140939269874
Li 11.1165884610327 12.481029672227223 12.355653933831162
Li 12.219177482429119 13.525063248642935 9.903983279885582
Li 14.77005564063231 11.71933130787708 9.324945610305726
Li 9.239078390646311 11.25727186351917 14.036482352170982
Li 8.691538856706051 13.31594577931859 11.576239479237135
Li 11.935151345980348 11.554774042459067 7.734630634959568
Li 10.24960928228453 11.408289968328837 9.952989575454154
Li 9.063868049376307 10.127589649012249 8.080357875329367
