23
Energy = -33.10772983 eV
Li 13.540610179088386 12.807666911742214 13.465109074423584
Li 11.075225299018632 10.636821239134958 14.00950730935178
Li 13.481319471518278 10.063559538613676 12.342007820093873
Li 10.786304423854254 13.854183777903428 13.826776393647231
Li 12.444293499889278 14.710687008601713 11.370467915678935
Li 13.988533937311065 12.231592966640997 10.448987972991143
Li 11.261776731541872 12.105632329814787 11.69111156634832
Li 8.522775940380665 11.890947712761031 12.635810647324499
Li 11.171418930482556 8.14798232355688 11.972304581433214
Li 13.263406058408593 11.361398311385589 7.660656398038012
Li 9.440601430851618 14.353364309925812 11.073059382532344
Li 8.582392490148575 8.9518982047301 13.39443715971198
Li 11.975764997056189 10.050603049936395 9.745073396789952
Li 12.485518089114318 8.504314335824384 7.326562975172268
Li 9.252637319753752 9.787373150172554 10.750698944839279
Li 11.06732151114701 12.912035446699312 9.048079761027578
Li 14.607166799461359 9.279530324813727 9.576291752889464
Li 8.169391993161568 11.955108663288659 9.482413887132804
Li 6.466653385223093 9.824145230243753 11.207304404612046
Li 10.261374294133525 7.5923232233850655 9.048680059044523
Li 8.03384950721974 7.20059317760685 11.019091447084095
Li 10.086580659988783 10.29866072936289 7.6805162695688525
Li 7.53589970695726 8.912382101861123 8.566676705616274
