27
Energy = -40.46675847 eV
Li 10.66131371 14.829768408877854 10.378737886908768
Li 10.66131371 6.492859011122146 10.378737886908768
Li 5.983547005251557 12.262372050142465 11.728789765600455
Li 15.339080414748441 9.06025536985754 11.728789765600455
Li 15.339080414748441 12.262372050142465 11.728789765600455
Li 5.983547005251557 9.06025536985754 11.728789765600455
Li 15.175506580718597 10.66131371 9.063287525938444
Li 6.147120839281408 10.66131371 9.063287525938444
Li 10.66131371 13.291882423818219 7.684555422130305
Li 10.66131371 8.030744996181783 7.684555422130305
Li 7.655737939534188 10.66131371 13.790326530671203
Li 13.666889480465812 10.66131371 13.790326530671203
Li 13.321328652372856 8.110842120780227 9.495647368388878
Li 13.321328652372856 13.211785299219773 9.495647368388878
Li 8.001298767627144 13.211785299219773 9.495647368388878
Li 8.001298767627144 8.110842120780227 9.495647368388878
Li 8.944637386866912 13.158019658634243 12.384106578471862
Li 12.377990033133086 13.158019658634243 12.384106578471862
Li 12.377990033133086 8.164607761365756 12.384106578471862
Li 8.944637386866912 8.164607761365756 12.384106578471862
Li 12.261879118094754 10.66131371 8.14659169458782
Li 9.060748301905244 10.66131371 8.14659169458782
Li 10.66131371 10.66131371 12.808534921865597
Li 8.118587144790808 10.66131371 11.034277843410132
Li 13.204040275209193 10.66131371 11.034277843410132
Li 10.66131371 9.208655840965102 10.208603295025659
Li 10.66131371 12.113971579034903 10.208603295025659
