28
Energy = -41.64102278 eV
Li 10.622224128855809 13.171804186038367 8.69476031134287
Li 11.844845436878572 10.734863568913816 7.332940802459404
Li 7.799529791630562 13.387547973497076 10.446335798505242
Li 14.234965564952676 9.547299250903214 9.082514249691846
Li 10.069712151101445 15.733165459673286 9.929013953462515
Li 13.885063672680092 12.674211115418649 8.889531018363952
Li 12.953760583183517 15.518915623152807 8.969880879301323
Li 12.243061927899817 13.786595052050096 10.989708136654487
Li 9.147469669292965 10.454527799735814 9.31652254628934
Li 12.012223292497493 10.83159470784842 10.049460846355585
Li 9.896832863034245 14.746725450682513 12.554980970672354
Li 11.788816198439449 11.03183335558416 12.870526058696406
Li 12.44973720137894 16.32815096619022 11.989406510540551
Li 12.727060423925838 13.545635368157713 13.736055679751457
Li 14.330284135631732 11.571041957145747 11.756246195241863
Li 14.877585485004486 14.554114848764145 11.30920579244014
Li 13.477407050557684 10.108293369726509 14.665273454348455
Li 9.621379183062187 12.396864753542381 14.257136957989074
Li 13.16654103010352 8.609510278553683 11.746129977934585
Li 9.905983000827796 12.146479780065688 11.431873233642717
Li 10.276268656646296 8.851633788520878 11.743590817406451
Li 10.15789959181619 9.547583167262863 14.59832666177587
Li 11.313935522658017 8.215663862637486 9.120715591543044
Li 11.799501644101317 7.340242404134437 13.935337854224233
Li 7.932098438999461 10.304432288691341 12.293707774091086
Li 10.91583510144092 6.198918289078549 11.284237167011899
Li 8.297991975013687 7.657697580512226 10.236708859161787
Li 8.659942532581487 7.245637773460321 13.263616119223629
