20
Energy = -29.08753119 eV
Li 12.566683361734283 9.66622908186779 7.724705175795384
Li 14.536162907999731 9.52821802398522 10.508886885040457
Li 9.626735665183254 9.850151932650393 8.847720110424437
Li 8.285162934635961 12.078333664461184 10.2189832689509
Li 12.098703499902706 10.653539681755053 10.113292110216953
Li 13.955007948996684 12.185510552035574 8.968735443897913
Li 10.902473472885742 12.695082939756054 8.529876753634785
Li 12.520467670689095 14.577757124759048 10.415150285168847
Li 7.699568573283897 9.068123740344188 11.304251652733017
Li 9.443257201550843 14.931163512920994 10.90386674641941
Li 9.968933296170391 10.263413597534916 11.708722198891905
Li 10.838898473177968 12.759908244628441 11.38860399433913
Li 11.086659576022015 7.950060638780112 10.615961536933257
Li 13.562035232081659 12.130425949205412 12.116427452104569
Li 11.602342323264997 14.38633659347553 13.404895850389064
Li 8.63060042520782 12.226058688490252 13.190822269186482
Li 12.592886317494989 9.382831538113354 12.728316117762867
Li 14.206184850461572 10.784885701839784 14.716438931859427
Li 11.396951392058725 11.470270914536599 14.037891333409812
Li 9.865076694150133 8.7964896958121 13.941243699793397
