25
Energy = -36.84893701 eV
Li 9.913743462855606 9.615852903375213 13.864488325208903
Li 11.682032348311596 12.269577825216828 13.475816515016431
Li 9.63083076544628 11.449519049038205 11.53577804754695
Li 7.2521400229549675 10.03562254909129 12.330248574680677
Li 8.219710331681604 7.067506447211388 13.090966698021601
Li 11.293931230231683 7.034552433779007 12.717664302712029
Li 10.174216445327879 14.286363210119326 11.639804748977738
Li 12.062914974505288 9.789394806079391 11.778150118770068
Li 14.427418227359349 11.6226073445837 12.108191751180295
Li 13.341730325631444 14.527970811983431 11.977599061089224
Li 9.493030066639449 8.503907008833467 11.118719011667856
Li 7.344248238217042 12.974164246999303 11.13091221838746
Li 14.661159458939627 13.229518860599612 9.464485189373644
Li 12.242648784310273 12.452660483512322 10.532860817543892
Li 6.9472318946335 7.616486625577151 10.310067299430683
Li 13.822575104574778 10.190520806241937 9.37579602724566
Li 9.468152916765138 5.813236122246235 10.526868016191528
Li 12.062645885438013 14.909166465788566 9.171399497019898
Li 11.976023462674009 7.578308535722704 9.704996070241101
Li 9.635000578969636 12.909438456703748 8.965754856968879
Li 12.283273417986077 12.193236939825539 7.5692233457439
Li 7.9152402455069 10.4595813369054 9.354674318461146
Li 9.279120010057587 7.988997945915571 8.197249011955439
Li 9.588184680074995 10.755615192792877 6.6994017947799485
Li 10.85083226313439 10.230912253484716 9.11383239040788
