22
Energy = -31.96851728 eV
Li 7.455493927509564 13.220371136169682 10.926361690925532
Li 8.71336521932324 14.12362834461436 13.674506367211555
Li 10.275386562076672 14.629452466206134 10.902801591100786
Li 7.289945848296824 11.420149699134209 13.463807101209854
Li 7.955134621611049 10.182576900890773 10.572500452875794
Li 9.8019065264693 12.195979467990057 9.12161173053466
Li 9.694108079461891 12.072639696455596 12.11761220181573
Li 11.898528216820951 13.590695613529192 13.326938564720281
Li 9.533537557898304 9.18980906567479 12.996263661154764
Li 12.332916493526277 12.461262505019247 10.601581113984636
Li 10.037909071184972 11.612846071122151 14.886270669907443
Li 9.561401057793404 9.391079779073277 8.00177583844437
Li 12.25279963039798 10.676764403531052 12.926857329886625
Li 10.841522630609704 9.85020297822099 10.441620813447114
Li 9.47917812550088 7.449616982012911 10.412743996794639
Li 14.636277356785545 12.329278432310762 12.204343632370037
Li 12.428330565756262 10.805383891792124 8.053440955387059
Li 12.12552815977363 7.848775650408089 11.96733612645349
Li 12.320087192381532 7.9660628780394385 8.781960381138147
Li 13.885148053014646 9.957149650391237 10.379933345580262
Li 14.840431341341311 12.256727646232793 8.970390932947529
Li 14.99779944992402 9.27849213422861 7.732403690882137
