28
Energy = -41.14396707 eV
Li 9.192538237517288 12.744069651581354 7.256549242055405
Li 7.814860672245726 13.011933039843791 9.957424303693687
Li 10.154594064636711 14.725197395207005 9.98319728964959
Li 10.188598756360664 9.423753432501652 7.39381819277757
Li 8.346642971835253 14.662752316120386 12.417169106130228
Li 12.036288189573742 14.275655796059253 7.648238979201865
Li 11.95915836443124 11.592933437201337 6.453705343155153
Li 12.881849958997613 13.885735948748895 10.504052389164215
Li 11.027183930534578 12.010776578080685 9.108614908399469
Li 7.525162658429001 11.178354708973432 12.438959131584868
Li 11.48799567494633 14.265750806992866 13.182717802299361
Li 8.841156546102738 10.306753896912676 9.907669578052666
Li 9.12676226036004 12.771053387240832 14.531067806495525
Li 10.039251492894628 12.406283720152333 11.859936249023757
Li 13.231078938054573 8.946465995309755 7.3465239168860625
Li 11.746494371304674 9.189016035352738 9.77476226725991
Li 10.220213508612904 9.45101277558062 12.294476255664966
Li 9.294080429752798 7.4654095341529665 9.617837695672728
Li 12.66186450864793 11.23127024962853 11.614258303289876
Li 11.975289306881903 6.589636516881454 8.56704610986713
Li 8.094073729886537 7.774829882367817 12.391726994900969
Li 8.730637849229002 9.726411951962815 14.713692442545325
Li 13.827197344170761 11.413957490953353 8.879688861503364
Li 11.493357617407266 11.001031965576793 14.339749202130864
Li 14.252069726526415 8.252401983064823 10.196128910274835
Li 13.041483854917441 8.694507500127283 12.9556953114581
Li 11.369291649274786 6.801742162162935 11.529905500068313
Li 10.660558305298235 7.529071980281926 14.384633535050748
