22
Energy = -31.51892262 eV
Li 10.864438003144512 10.582625123971301 13.565602633001223
Li 9.379266324861577 13.78323216418017 12.666838421127729
Li 12.530562894935516 11.536708978244654 11.542098452174217
Li 7.938983324917545 11.059667899554888 13.361239213229005
Li 11.58073525258578 13.858144054225454 10.322027070944944
Li 9.056201236707286 8.207494568991601 13.525401241748929
Li 8.825055952752177 14.142779502200128 9.590164351719418
Li 11.973815616593665 7.417220006801656 12.989403396441372
Li 6.8416964093997965 12.434881743281089 10.96017843994667
Li 9.53612308588274 11.687915868197795 11.05808700043848
Li 10.706083006658368 8.95877727082334 11.186021896573425
Li 10.922047428643678 13.200767356943675 7.617552715696173
Li 13.592067860280087 9.068803125402281 10.769331924299411
Li 11.243378669421793 10.808622849347953 9.12093092138594
Li 7.887810521542128 9.31589450594016 10.787631176280502
Li 9.445653884405159 6.4457181973767215 11.221556009590204
Li 12.10523326912887 6.6863695178469715 9.94730264787533
Li 13.631732991108207 11.883894982569219 8.571384917679545
Li 8.487245177072548 11.223698596303674 8.393231146953804
Li 12.871802804347528 8.83876173935744 7.965908873594093
Li 9.778830564005528 8.354201430727963 8.534733591210923
Li 10.857265986323615 10.467950487998433 6.3626138914355765
