25
Energy = -36.75070578 eV
Li 12.592949234702003 11.756794155052319 8.39050464243732
Li 9.661486913225952 10.639592045106374 7.73869632719821
Li 12.229564765564916 8.72482384997924 7.57132772892718
Li 15.089214775049431 12.75833637228254 10.036334193392785
Li 10.165174312070045 12.460357829161918 10.099277724643402
Li 8.230301058140638 10.140214331568334 10.337440475418648
Li 7.6162600341555775 12.815980795596136 9.010885277193902
Li 12.297580348369955 7.121245589190823 10.149302710171911
Li 14.213464382828489 9.678252466129823 9.888277921517117
Li 11.212783716344456 9.683661578587195 9.972069107834278
Li 9.58404847304014 7.688166926916361 8.781156823817412
Li 12.791524933039133 11.8897033648769 11.335622185056508
Li 9.232534332380558 15.11022863583691 10.506296945564918
Li 12.384322847842787 14.479573987661466 10.11016854920777
Li 8.01119258602491 12.782138529804358 12.058261364676037
Li 15.156033672180595 11.10854645471642 12.591258358467398
Li 7.738670335164124 9.960887419812101 13.384639378298601
Li 9.749459317322678 8.050717810764812 11.914889000051005
Li 10.240788479797356 10.875387147604778 12.552732369862944
Li 14.109573342079976 14.014330165400944 12.68318700739473
Li 10.919681214708026 13.868158095626296 12.690267220827696
Li 12.659986905539204 9.178879263236901 12.50543626963634
Li 12.45858389276335 11.802922827777829 14.253088541545823
Li 9.383840312328736 12.255970997154046 14.825428309498724
Li 10.444678095041969 9.328827639859858 14.78714984706368
