21
Energy = -30.40452783 eV
Li 9.358454830513585 11.838312754955426 7.50534942564006
Li 9.939612645184946 8.853503716326092 7.7140289008854275
Li 12.267740283167525 11.190189440391427 6.786493953240849
Li 7.197408493847928 10.097961400067266 8.659424868767458
Li 11.390595125601672 13.267895492733508 9.098107095926789
Li 7.426008739789836 13.140882098318935 9.598334677531398
Li 14.049520380778908 11.6828907565649 9.429294375658621
Li 11.342479905939896 7.472378978751482 9.92270077555917
Li 13.47730541269461 8.744056107415622 8.175220131521622
Li 11.634736295217376 10.374848408468665 9.314799822453255
Li 8.690247668711347 8.779181896833578 13.742498409716697
Li 9.769788366639036 14.087154097433638 11.490799346015242
Li 8.537136712643541 8.135054632413233 10.510730264231531
Li 9.324658746321186 11.458014636994061 10.279947197004391
Li 10.472832211478565 9.544409856994362 11.868786555563862
Li 12.011461990123511 12.071556859605893 11.811122696177387
Li 11.098697104020019 7.116138593925625 12.893046592493361
Li 13.242134032052322 9.259200811279705 11.43937486278439
Li 9.418107751358576 11.762774230387944 13.325266201168123
Li 7.140451965921546 10.683533222496251 11.669311701903734
Li 11.705466805030666 9.934907474678283 14.260207612793383
