29
Energy = -42.87319132 eV
Li -0.5667849207514281 12.602338044952642 13.921038368884465
Li 18.804928758682497 11.895913066409339 16.6495230208019
Li 11.514892718179782 15.668475696771507 15.820872887264887
Li 13.02803571919496 14.490208297823234 13.873015189220972
Li 17.159309718471036 14.282753112976884 17.80738838481472
Li 15.883428718601586 15.293012347424616 13.261496001689183
Li 14.753946236028534 14.759645794372625 16.075794340348345
Li 10.437092291956898 10.379414689154592 12.960688086364192
Li 17.311798317534368 12.848432238929151 12.094761822498416
Li 17.43767773700791 13.606686415312817 15.062063987533861
Li 15.469648524939176 11.862302267303479 16.554714198984158
Li 14.607882059227878 13.521336592397825 11.219680431418038
Li 17.077190848152 16.567345911766274 15.579217824009609
Li 10.503409466036208 12.946546898948121 14.408531575916859
Li 12.563072099047565 12.926130075422256 16.51279897806972
Li 11.921749613172663 12.680050523734767 11.90904821072117
Li 10.761693065977296 15.49570787897776 12.70636054260761
Li 13.689675946697918 16.249645377302038 11.685399210456684
Li 13.953181574023025 17.165439858021788 14.57918127110264
Li 16.583194516992666 17.848617307465894 12.754277226794388
Li 19.741373166575475 14.782864840922487 16.09858792300369
Li 10.442820045627997 10.609150570673247 16.1610649439966
Li 8.967404013332725 12.923991641009032 11.936652707805177
Li 16.870926556752824 15.583192602498501 10.681624155479001
Li 12.864032730488523 10.991735783792183 14.488489628542032
Li 17.05900768878298 10.749689909037565 14.141422089865726
Li 18.751130147996136 15.491223236584561 13.159313433262833
Li 14.962932544184486 12.635912459178993 13.857959592246667
Li 14.515446534111177 10.599850168793157 12.014074960653128
