21
Energy = -29.8086325 eV
Li 10.609178410646683 11.265416670744587 7.829752597924134
Li 10.245275118001242 8.559743651484471 8.875744092344858
Li 13.03879424881471 9.462969248861983 7.749912677749001
Li 8.183002316904249 12.979156722147929 8.65460280351817
Li 13.588047418330143 12.186543093805373 8.952957293660265
Li 12.902769336003953 7.485844812963145 9.995826021671014
Li 10.999484974132216 13.400160807659246 9.651902752523329
Li 7.793866955760567 10.174687862802175 8.324024678315855
Li 14.997314576264085 9.597702658095386 10.121673970723723
Li 7.82651026111672 8.277678140949368 10.582444686137055
Li 12.160497698533264 10.284827490465423 10.475848051655278
Li 8.522849136675035 13.96808850212702 11.348372334584582
Li 9.358794603509606 11.030408775465341 10.843905698325477
Li 6.66212555326132 11.52148863177243 11.14557839628253
Li 10.52656190629304 8.119761447656282 11.846385894434015
Li 11.241128452446452 13.053616702699566 12.394767011996537
Li 8.268118051739734 9.454709087439847 13.259677318851935
Li 13.874202830851948 11.733525697660669 12.170727991952498
Li 13.50340457615944 8.786952344916957 12.670609996046862
Li 8.634330996958589 12.268485386913756 13.66486221344473
Li 11.13377561482752 10.458265300599987 13.510456555089398
