21
Energy = -29.34266718 eV
Li 7.952735071162374 10.552575078059402 10.999910547350536
Li 9.452346017887999 10.497989045170264 13.437010776596187
Li 9.316636992201815 10.62687137959438 8.481110131851356
Li 12.311806705751591 10.503843143347536 13.356768163407837
Li 12.17819113508527 10.64669062257423 8.385183917542774
Li 13.66217421457918 10.575014014146781 10.833378477944052
Li 8.283460881629033 8.107815565304694 9.48374452636892
Li 8.366157472225474 8.02829702866744 12.356222509548367
Li 10.727387560613098 8.163764490614552 7.962606304715178
Li 10.89724097556633 8.002526969504284 13.718471449863626
Li 13.25673726329517 8.128078805854452 9.325758538425665
Li 13.342715951515066 8.044996252505253 12.200409331820966
Li 8.3554214397779 13.140786314464346 9.66213826597205
Li 8.421339569012913 13.063010617714715 12.448304623340304
Li 10.730163688069988 13.194976944755403 8.199053797178946
Li 10.876076067213692 13.046558697740515 13.771616777107793
Li 13.178454776802214 13.165167382259085 9.532187788721176
Li 13.258509224854206 13.083522482455214 12.324722715805883
Li 10.799720117008635 14.52353604634539 11.033772035274374
Li 10.808945126973379 11.793219779608288 10.950309226301238
Li 10.810075691073406 8.753678947530593 10.857997044920092
