25
Energy = -36.47994448 eV
Li 12.652620035761466 10.297058781529477 8.041027908751433
Li 9.146348422362994 10.339507227538366 7.6494711050906234
Li 13.863456386221808 13.08272357363026 8.469561337734275
Li 15.380292126926696 10.726932314197299 9.673668491135022
Li 8.359744795419665 8.43500064478654 10.060319881303132
Li 10.75081225874329 12.698858661479266 8.90473021248029
Li 10.702100606568449 10.133117947467468 9.961078382809385
Li 12.266073478105783 14.676364831099272 10.72840399061554
Li 15.4166361386007 13.533297270811405 11.115117218624038
Li 8.215803056238002 11.323213746939324 10.478115144967308
Li 13.091633884527292 11.68388232435754 10.671996072349705
Li 13.080456779134119 8.891736580709324 11.064784272011119
Li 9.10675532910655 14.428354620762361 10.776864994576107
Li 15.140181090789444 11.127300999870366 12.774954006600762
Li 10.794106206224573 12.530448132112287 11.929507628513825
Li 7.074925132432996 9.439903353337373 12.790249042118333
Li 9.802505400987954 9.628778635061847 12.412398672872834
Li 13.408729864177351 13.32946793587949 13.308304075048897
Li 8.563718823899993 12.007753168328083 13.459669909320919
Li 16.19578352553954 13.588294154318094 14.158234776561974
Li 12.280069941524228 10.449382376618441 13.405083132750672
Li 10.655749465346727 14.917925614037811 13.339916719022291
Li 9.712613370830306 9.650231217121316 15.187429222330922
Li 14.090447959409165 11.623671365696291 15.554861992980484
Li 11.133487885938615 12.341846487128684 14.969303774247999
