21
Energy = -30.10426248 eV
Li 11.452304460610096 14.705312873159263 9.841460855782202
Li 15.161078977645875 10.971389647809609 12.768723070927015
Li 10.688355033962072 9.032026742342289 14.124291727892698
Li 12.925521990527221 15.44936845731732 12.553173425350877
Li 13.388540761731097 8.242548796754328 12.684964388572507
Li 11.3271658078718 13.214394831172145 12.175691509304942
Li 9.737983736328582 14.897130153786797 13.298349918606384
Li 9.9689302101053 12.693778728450166 7.680393751460167
Li 9.260982622565512 11.23887266805795 12.425047526645438
Li 15.838597010092286 14.096820902155411 12.839339043644703
Li 10.787957720221064 8.938063469668183 10.930081830796825
Li 13.79247908144591 12.983083621181311 10.951759186169186
Li 11.155277044825024 9.697875146089038 7.939530660449328
Li 13.384888927258277 10.208374945793965 15.182674714559552
Li 8.851440913740051 13.460698671609311 10.437899864001247
Li 8.582579510676482 10.570079050042805 9.305576286239111
Li 12.289819173177944 10.700694684607576 12.653364703155669
Li 11.098312481456631 11.635606960032323 9.965978598788839
Li 13.522286309769862 13.064118381697591 14.119264448545394
Li 10.793573872784686 12.137852649465435 14.831999894226252
Li 13.515805470404969 10.02542551320351 10.155534509509145
