23
Energy = -33.01933441 eV
Li 9.80963866466388 11.049345914352312 14.24846968477394
Li 10.051214683920142 11.332755664604065 11.370713770409134
Li 10.940284923107003 13.592531526666571 13.048777808762505
Li 9.117139677660449 7.6848057222041275 9.76934709403546
Li 10.342285405558506 9.114615497838368 7.412471172079344
Li 12.448873000669256 12.585670193877199 10.543718709525763
Li 14.295124387776971 12.883214044137505 12.940173698690057
Li 12.595899020288318 12.197927167817511 15.381877730652532
Li 10.535297381349361 11.946547483915028 8.45754902864186
Li 15.122022526093827 13.136361538789371 9.934947420099641
Li 13.31768140445577 11.233460145388273 8.212385255202925
Li 11.527784503773265 9.584507566617797 9.981448136132295
Li 9.682694021700108 13.984229017919008 10.344262824277386
Li 6.173329444681281 8.506483653578695 10.32770823606399
Li 11.47457670021541 8.497609786845295 12.607134136474858
Li 8.248541117074366 10.251591361191903 9.375962666692338
Li 14.212028463675777 9.74959860830555 14.17022330028535
Li 12.456785116507714 14.401063958278906 8.562751841622077
Li 7.353476217636537 8.237670074080702 7.452800765590313
Li 12.253859072285978 11.075031630870576 12.92320126540297
Li 8.510368807251343 9.189490421134497 12.148782495614473
Li 14.195398394450784 10.298346013270397 11.088390314401412
Li 7.587259402369498 12.152648778526652 12.007051252031484
