22
Energy = -31.91139895 eV
Li 10.098126819305813 7.466116278485539 9.749394894139618
Li 7.149204476367891 8.372626314443762 10.374959878949166
Li 9.482531983346046 9.546607186836976 7.570336326970213
Li 9.74935626008586 8.001821609291774 12.80707302647023
Li 9.306803584889707 9.777916935448511 10.753783728917698
Li 12.584732877851875 7.079042968227146 11.68339206748203
Li 10.24579085101392 10.806699068503699 13.779454989274992
Li 7.689760777143565 11.553301483616355 12.310356994176168
Li 7.763400892172943 11.443427908487905 9.24516017282315
Li 12.605271348813755 8.965926053290056 8.880909969774452
Li 11.889594371942229 9.73577282051701 11.51569079252326
Li 10.264553752184334 12.25883055247048 11.406619616052009
Li 14.610029489901816 9.28831970428373 11.543845091964767
Li 12.728264260585592 8.957123591089562 14.034524380199276
Li 10.874610618440721 11.261536568185507 9.0585569800548
Li 9.771670622900931 13.940612550866796 13.352818943480692
Li 8.496026510016398 14.060301116885283 10.321254912308374
Li 13.488055730852272 11.631753041872514 9.821103312609754
Li 12.272543090216086 11.565397183554992 6.874308041420699
Li 12.721539196261048 12.201665703064657 12.719922735972498
Li 11.588749136160436 13.983912138891043 9.556098735327778
Li 9.505541235052977 13.028623082772613 7.428695489266295
