22
Energy = -31.91313768 eV
Li 14.909290754717878 12.710172140364154 15.212468487638047
Li 7.765214959360628 11.87737702636685 12.597648987769318
Li 9.341446616504587 14.548650344705049 12.944733248247033
Li 9.533432855595263 9.6867838763936 13.966213986136761
Li 12.037694860250618 14.330144720554909 11.501661841769643
Li 9.269339533508884 12.475555650506134 15.21514056921768
Li 14.672806332156101 13.11905578329851 10.173434868722634
Li 9.596110613504134 10.088974132109682 10.829236353188062
Li 12.216843102493412 9.55457374863355 12.401461865651829
Li 14.707346542416063 14.742178662258803 12.916057711847577
Li 13.651004770230365 12.133471592364854 12.823602804878735
Li 10.585202615372122 12.020336001551804 12.817963056900538
Li 9.514864342559726 12.9775336131572 10.185787949676428
Li 14.800268338502768 10.258899076323889 10.859995099200798
Li 12.153248028115497 11.018216422933863 15.114280127679653
Li 12.097564059812164 13.707805584973295 8.478008422784608
Li 12.045573236607508 13.999218398380327 14.493332465096996
Li 14.875329097999826 9.898095801232243 13.999097276251028
Li 10.549781110733543 11.052587275789612 8.086424539136782
Li 12.135039248876492 11.63992571199279 10.33527704300366
Li 13.723091715319784 11.077144519114796 8.114789781760516
Li 16.484433704171927 12.199875198693936 12.623491921837806
