25
Energy = -36.35545638 eV
Li 12.706696807372598 13.87376115089036 14.48496327882248
Li 9.838466034656447 12.994021117695832 13.231466251089596
Li 11.643554019091273 14.970768481724967 11.9235701652396
Li 14.617916214957372 11.672746792549436 13.908324017604434
Li 12.588520511456755 12.2523184749887 11.922361582840614
Li 8.791267102173073 14.572075840046457 10.855570292180893
Li 13.048864842149285 9.492272380736006 12.227725769274388
Li 9.950416959233147 10.22888945991924 12.016998914320197
Li 14.730504115439077 14.122197661486682 12.057662688310602
Li 8.223890674283618 10.341181323607366 14.1604874107745
Li 11.555669819774193 10.951073953969235 14.488609931931013
Li 12.776328904912972 13.719741648508109 9.413215099901935
Li 11.253289857992568 8.359601992236886 7.663002263168535
Li 8.857941107997023 9.845271119204869 9.198800187681815
Li 10.797914900376403 11.463867540114984 7.49654073890785
Li 13.568882633850027 7.960072503503814 9.630698973030377
Li 13.591774621270387 10.954299482372711 8.63232287734596
Li 8.07109256389713 12.70622848447353 8.423022437027731
Li 10.547383531823513 7.53857465685076 10.556554462770256
Li 11.681839156055386 9.906263293242398 9.89661542649546
Li 15.184235347653118 11.332005397097957 10.954857739850492
Li 7.832059592084384 8.558646820823704 11.756156161608832
Li 10.408812232027472 8.11557316570791 13.573786027758013
Li 10.261419279175072 12.435545047004407 10.200553366039863
Li 7.524200138307611 11.685943179252966 11.379074904033715
