29
Energy = -43.69592484 eV
Li 12.969522450850466 6.700183434500715 11.78846201403593
Li 10.80413022221645 8.083102551335177 13.677633331624158
Li 13.270893046053018 9.692928158754805 12.99339260539268
Li 10.007139025866504 6.296152877417658 11.07829668092626
Li 12.512270845988152 11.434382929098833 10.750981420731915
Li 11.804579643394732 10.93390404856298 15.444221233607317
Li 12.82939635761013 12.786512524802816 13.391022980321335
Li 10.603945360880989 10.87404104230048 12.822976203149251
Li 12.128544523574162 6.979937082960087 8.817519546823759
Li 8.504031455134472 9.005640467923119 11.786520698865969
Li 14.071351470360849 9.1514882445832 10.084826771173189
Li 11.29055356905706 8.667356765833858 10.87155349899949
Li 12.91059005880356 14.053506315536232 15.848959493100136
Li 15.118608220039302 11.926935642745686 11.731369048214953
Li 14.859541029523852 14.776482322818678 13.423901769538444
Li 10.197536166296574 13.372325268425552 14.503581181636076
Li 9.314787047586314 8.366864026153134 8.769285706476936
Li 11.746995528927352 10.050208776260476 8.216906534990093
Li 13.335694019192074 14.260210855957823 10.817537334105953
Li 14.260894484368354 11.982749990295485 8.693034002005323
Li 11.896916043813869 15.54186710774669 13.242148575135808
Li 10.546015962209548 13.54159127546054 11.543356654500963
Li 9.628824986271985 11.058751453416138 10.036357771928946
Li 8.097923298918616 12.230909794446411 12.419641507927615
Li 10.790482674955774 15.957714006468922 10.221164516926635
Li 11.253898261214067 13.122490748300386 8.674435044542328
Li 8.804842646320465 15.361638063920799 12.486990206569233
Li 9.102040646320427 11.18657288560525 7.268568274537813
Li 8.484541419880022 13.847403306707855 9.676529544709481
