28
Energy = -41.74344062 eV
Li 6.298394888955308 10.926998520885293 10.831943800465144
Li 7.008885040765475 9.530360780684767 8.142278698113484
Li 6.919383792826625 7.881718185111861 10.731073852531317
Li 8.264001622807497 12.373360864239636 8.848867127968461
Li 8.8061893226655 12.34931916297512 11.829941136923388
Li 8.131161334832415 9.675150658891166 13.072719982633776
Li 9.20582168148332 7.396686028370608 8.676863472036393
Li 8.818815434958411 9.778558195799748 10.182300257413225
Li 10.05877864293289 10.197743379413911 7.514922555349755
Li 10.10944606780714 11.85614268715115 14.5411636632786
Li 9.924092235154369 7.503477852488021 11.741292449739705
Li 9.827713127450364 14.828802888046383 13.446498955550728
Li 10.232667639203669 14.567090691319454 10.31453714122863
Li 10.861915771178 10.193440666817205 12.251969651660842
Li 11.688235100813811 8.85710965942202 9.683411375845862
Li 12.511845324462678 13.9761423645052 14.782924056232456
Li 11.683509882932814 13.017597936970557 12.34562281006761
Li 10.939399829203698 11.768564556344607 9.785274209614194
Li 13.082486405365932 10.95557047146632 13.988496682491016
Li 13.454074569667366 10.873627146559773 11.029657816872229
Li 12.58951368526023 15.61065426567515 12.230224253101097
Li 13.07300356010486 8.26604161557832 12.330120186174858
Li 13.206481694735482 10.976036818487719 8.103060786373138
Li 13.206784605872725 13.603979533885438 9.848572881995544
Li 14.613260616008155 13.130550911076126 12.507031456157284
Li 14.81944697251509 8.777448981384717 9.732653581495542
Li 15.703845987554454 10.107461735165794 12.410799241551665
Li 15.782782650453377 11.743167829432108 9.858472161460131
