20
Energy = -28.98822479 eV
Li 7.591743951885251 10.155101688387711 10.811475897736885
Li 13.794796903900995 12.19075432540549 13.421572421398313
Li 8.137204775417658 13.263921144165598 10.736257205233875
Li 9.986775240224924 11.273036975663562 10.8852551143444
Li 13.82491553446237 13.204984331737876 8.663463499051
Li 12.167620826289786 10.607598193097376 8.80798706651224
Li 12.67414751333141 9.310171250816298 14.557430120903682
Li 11.292904393771638 12.28247330757818 15.537545919332038
Li 12.58286579361211 12.329074986489848 10.926174488508572
Li 10.899767517267627 13.821313012103587 9.467674264300689
Li 10.787982187265634 13.817844064147984 12.6393302254865
Li 13.350641782006155 14.874285040919476 11.314586137203367
Li 9.879650095352442 8.844080617121156 12.879047577735275
Li 10.209574877942295 8.638217193693238 9.773328137219988
Li 13.26471504110285 7.828450413350453 9.317543896252811
Li 8.639865243456542 11.71948830268472 13.478461039270803
Li 11.335543669721835 11.167879610463977 13.184983929933058
Li 12.456840730982192 9.388836566388834 11.53460305926895
Li 9.138209059608648 11.383654336720232 8.364251853309963
Li 14.741800630337432 10.656400407004329 10.45659391493779
