28
Energy = -42.06172521 eV
Li 10.908844636444348 16.653389116021195 10.82723674498497
Li 15.12172483245904 13.408111088700624 12.46444666272872
Li 13.323238632117846 14.657841282289553 10.122198057703947
Li 12.313198404737422 14.775636044142178 13.047581163498586
Li 10.794148625955913 14.969162056459547 8.217137353312014
Li 9.140320797162131 15.221642306384961 12.937386449196303
Li 8.206144649943067 15.24579017061809 9.981327047887916
Li 10.494004001628914 13.966585882835432 10.832381152992019
Li 14.962196226279305 11.68415333059599 9.814539505756814
Li 12.812913692222084 12.253442870945852 11.70498127144142
Li 12.061001308902455 12.287301865724231 8.818088518104265
Li 10.487766476350492 12.427990970584629 13.566920594550728
Li 9.015001448712274 12.454618807503353 8.781630559311571
Li 8.047222254488235 12.599554527093279 11.715544450722291
Li 12.934874074028949 9.620333384270292 10.300990234558267
Li 10.382252166203498 10.94987055433199 10.92363464123053
Li 13.354139474238869 11.884706424401628 14.497495869540577
Li 9.079017817680691 9.70723350697806 13.26811050582887
Li 14.91396257420824 10.131846465268929 12.393597333316256
Li 10.593547623257889 9.594735745133582 8.44721817248176
Li 11.977346746545487 9.71808035007186 13.154759382055381
Li 11.053535375496258 10.116466205233579 15.729717393661877
Li 15.463473051510645 8.421543572729005 9.919723178305244
Li 13.776696624294098 8.756846855342259 14.99768626835443
Li 8.009060087616671 9.814961890627849 10.28530726065512
Li 13.48243662352976 7.4201751840794845 12.17130500977855
Li 10.547125763034213 7.996609608373535 11.189194398480465
Li 11.055541798825677 7.376417453959382 14.240053506027742
