25
Energy = -36.6670679 eV
Li 7.816958821181744 8.597655593287751 12.127101836061835
Li 7.741426847150701 9.19603369816444 9.01995046828196
Li 7.512456086734047 11.552267260921564 11.125928738807502
Li 9.67415355846985 7.110974508206692 10.169247551532626
Li 10.97209069556581 8.31545390491874 12.87387737393145
Li 9.546617024731482 11.084614501043854 13.429754847206198
Li 9.437238529127807 11.905463855833297 8.44237026990479
Li 9.751615034779626 9.883715403208294 10.69476315791052
Li 9.864720788496927 14.279978243393188 13.553210561866445
Li 10.771011709418264 9.18661065063174 8.003709805808002
Li 12.454156665349409 8.526303565011295 10.293380814347845
Li 11.361873971046094 15.950546386357816 11.36806891276373
Li 14.492346497984803 15.174091791363226 11.511308449362476
Li 12.860005889312125 15.394256246518031 14.11834397648056
Li 12.157546450914706 10.859130844513123 12.477620047340917
Li 10.075186307250933 12.93091281543364 11.044388735079309
Li 12.387123973990647 13.945512557706493 9.187299729761195
Li 11.834341094185543 12.531848666874994 14.87598219410981
Li 11.997712552104739 11.254547314749436 9.785678615800586
Li 12.996908028069349 9.73176906135369 14.795072481005304
Li 14.502060964125278 9.604994457779096 12.07046017649375
Li 12.408144667006946 13.596310291386754 12.159202714220594
Li 13.905874846449478 10.258481377113386 8.192660912722076
Li 14.536848604956436 12.508555109490063 13.630405650814254
Li 14.479775876388349 12.212677093141119 10.56601541963434
