22
Energy = -30.51970588 eV
Li 11.377837762886914 7.9484026493211175 8.737622743509624
Li 11.732410760353243 10.922654952276705 12.914661619803624
Li 13.875401967970687 12.557099139546539 13.972097950001064
Li 9.716922089436894 9.653983589572164 11.416910433411783
Li 13.381148291543754 12.824004341006168 10.968950125701765
Li 11.103594854919777 13.888358483119328 9.667417753224957
Li 9.272836992680652 12.473460122563552 11.48607313771293
Li 10.379496095921233 10.002077349420658 6.997823068724217
Li 7.673259310715523 10.657525348024024 13.133698630435076
Li 14.079310289535067 8.843006311395914 9.199751533907312
Li 7.3716527930757625 10.393637065010392 7.246475702934483
Li 9.818527477193749 6.747737187213636 10.95859324725091
Li 12.179695551727766 8.378283960826783 11.608427170289188
Li 8.605633300357088 8.543535109329099 8.982105241768835
Li 9.282217412435037 11.87470937946304 8.78190144990692
Li 7.113656716992524 10.71440310456372 10.211692303249322
Li 14.257151502249599 10.257873323203041 11.673576294630255
Li 12.01599774510446 12.428577570077275 7.43193708815719
Li 9.699016950454444 12.271445043299279 14.348100899080068
Li 11.80056732945148 10.762443568013776 9.815633148566615
Li 11.393907402566585 13.966815587603948 12.691637062023823
Li 7.408941494693847 8.10029263148468 11.82289386662967
