21
Energy = -30.02536988 eV
Li 12.715225842806742 13.46063003242187 9.544868911974714
Li 8.379114257853173 12.500313559396794 11.873379609729792
Li 9.536364841995765 14.143000224802718 9.757001142621997
Li 11.307701892629115 9.2363004679521 8.835089190864398
Li 14.328178251691991 8.3153854416912 9.509355719402157
Li 12.894366203921878 11.63635790176218 15.006386293397782
Li 11.797215659388883 10.890755302753933 12.69545681320916
Li 11.19467968781663 9.002601813545962 14.488393183707295
Li 11.909899879464831 14.557052428193286 14.614849382965465
Li 13.32126629153477 10.737088227217965 10.389335649081543
Li 13.994279966120361 12.789748244807557 12.434915021395994
Li 8.27828510604908 10.877452703276935 9.22008382107966
Li 9.939734486336022 12.277683998109978 14.395949094404036
Li 10.783105329386176 12.059718665154865 7.660338153960091
Li 9.217369117971513 15.191029260263386 13.124099883602808
Li 9.37172844255762 9.667063989946937 11.953929360188281
Li 14.25787711652367 9.572993144375914 12.93235293065325
Li 13.614021758812545 10.747778968436611 7.634703987375646
Li 12.014135295328668 8.255226945423548 11.563706192653164
Li 10.621213899689188 11.59544840082813 10.295229325455823
Li 11.222908603519326 13.594931738157229 12.11671340255615
