20
Energy = -28.88518994 eV
Li 7.9992988321279865 11.437263380771746 7.797607288953798
Li 10.61393317075423 10.438804888632196 8.545818246244352
Li 8.709720462842261 8.504814381760564 9.07127539249959
Li 12.402319288774011 12.85405012932227 8.024154305315848
Li 12.1990407577403 11.756391862099493 10.522507633630692
Li 13.472320833621692 9.987001468368835 8.726562457636552
Li 11.57301274090158 7.749806664183271 9.714627825729826
Li 12.120679252414467 14.43788090151149 11.067276386702302
Li 9.792099077434235 13.057194839036974 9.621832943476164
Li 8.369622814818808 10.914447961812456 10.691935058031342
Li 10.748382225080206 9.680604091045028 11.44243498953514
Li 14.742031287057495 12.386982067693419 10.414720732795052
Li 13.559644782894122 9.612294717590391 11.765782406222423
Li 10.308955465121299 12.481149187781376 12.489314652961495
Li 8.857655213170128 8.105014955191654 12.245352187423052
Li 11.775606884131761 7.31880514295988 12.790138005674173
Li 7.743627418948468 13.587894339353555 11.791719288306991
Li 13.106509285785467 12.309222240415833 13.15771080110588
Li 8.333440561828088 10.941232586740126 13.621560030060474
Li 11.194915913039157 10.061960462214934 14.120485636180069
