22
Energy = -31.92889268 eV
Li 7.9403179375095165 7.948737414504683 12.466741683847339
Li 11.252361853834001 7.7896257422853985 12.208599709244487
Li 7.174096122442883 10.698733414559257 13.72732786643265
Li 12.356783288699342 10.425657317708234 13.52348144989506
Li 12.552500752062459 7.628539952210765 9.261102242310788
Li 9.961318998432562 12.356728891300111 14.355783480465142
Li 9.618055372385095 8.616576437153812 9.867704992827996
Li 12.150895105027246 9.978326166719544 10.61142906310298
Li 14.282948611245223 8.628315224421133 11.61422444852375
Li 9.583083001474712 10.25072479511642 12.315006695191517
Li 12.920516559433272 14.5292872572983 12.000485018475901
Li 7.162665673362777 10.24865624359306 10.727176559881388
Li 14.289158031612706 11.786856205249359 11.474604503545558
Li 11.294603814314353 12.412266070288556 11.820895625117773
Li 8.33266888421219 12.872207871698208 11.936546573530487
Li 9.751100692228631 11.54635205876038 9.614320086468172
Li 14.416132068226329 10.150412258798235 8.900964986124725
Li 11.44075907397847 10.137754591775956 7.806779501394755
Li 8.363910582336242 10.239358138029486 7.574388606218742
Li 12.632547762514521 12.72576732596146 9.258094126971153
Li 10.365189491937814 14.427601142823523 10.06635380696879
Li 10.161302435187375 12.868049547077407 7.2320487403955545
