39
Energy = -60.00744006 eV
Li 11.677194088028331 8.512713092947608 13.846802285492235
Li 9.76668150130388 8.411535326199134 11.178289317439754
Li 11.677601488560164 10.723440800416851 11.814327953942437
Li 13.172764494599246 8.506156026259577 11.072664296820015
Li 11.312158876084544 9.640180419020972 8.8946601342309
Li 14.015780443970526 10.259437504646844 13.464991484277368
Li 14.554022784486428 9.819680625413243 8.574759005671767
Li 8.157513507347996 9.628863091863053 8.588716542718757
Li 16.126226962515645 9.207893174104546 11.777005624858262
Li 13.321102097188396 9.76035446039104 16.307741996090876
Li 9.17596417129262 10.292279848711159 13.471906127830385
Li 6.932574402690931 9.890413000875792 11.347145061199647
Li 10.182245494873374 9.702427142117344 16.40253864049523
Li 16.194596298230046 9.7405776324787 15.061169475699767
Li 11.611840742299613 11.395985122678427 14.705574388105292
Li 12.542170432686335 11.352397762153743 6.654355022449905
Li 9.250153822047581 11.237748942841108 10.572661341653244
Li 14.490978763405511 11.328663271478382 10.789085590207094
Li 17.041415835037878 11.414115102097147 9.766306556702
Li 14.718427325844742 12.90701699478694 8.192952653673425
Li 12.230422737087475 12.232449865598834 9.34466974362242
Li 15.639456547695575 13.943940396812486 10.874342836292104
Li 9.73086995415686 12.09673477568706 7.726144450361738
Li 7.237210638887879 12.665792778476272 9.575627910094822
Li 14.37796504607905 15.304498545539188 13.377011668469631
Li 16.233495558985307 12.030669260743304 13.01847246583797
Li 11.728161828960646 12.246634229940483 17.341274540802146
Li 14.32881832852784 12.468803220333601 15.312606185022489
Li 7.419696845263138 12.66178593777062 12.794978916185961
Li 11.90936051888677 14.301427189772273 7.4028505537795075
Li 10.091282088082181 13.22651214460819 12.73155617232671
Li 9.117970679819411 12.473475520339399 15.56267139204531
Li 13.076272441733167 13.114203570740008 12.509153589734096
Li 10.157768724581567 13.978779404631336 9.944675850141806
Li 13.02932371712566 14.9220015017614 10.240197985391912
Li 11.784359741323328 14.282897077062511 15.016329945810226
Li 8.865656418587802 15.203039164131338 14.378913448805228
Li 8.193605078866566 15.254376325406996 11.461580309017327
Li 11.219151338874475 15.834400653826963 12.435737532452205
