32
Energy = -48.24456027 eV
Li 14.12406462247425 10.083372383450738 16.087408797853566
Li 12.302940560455598 10.14828135801131 14.051307031772929
Li 11.27110090610024 8.77653732498552 16.191371362834705
Li 11.565631526007893 11.966284198246832 16.20452451109948
Li 13.474358619525173 7.638672577738864 14.280928514544309
Li 11.08794782597694 12.801009638781267 13.501162751748591
Li 15.071259201767859 10.16089144173103 13.038659851761668
Li 9.313274544695501 10.531576454318218 14.339652170260756
Li 13.118394139892263 11.770863586636995 11.653702884986082
Li 11.869913406502095 15.212216567072188 14.907391560419157
Li 10.517823906434446 7.991559606344698 13.22528899321671
Li 13.002868099727714 8.844859603128981 11.391346112256862
Li 10.014236225446236 15.384484868658502 12.38315800859278
Li 13.841846269781268 12.774750601796455 14.398709444495935
Li 8.467466166558687 12.574049329459383 12.038027511184868
Li 14.699305707971241 10.376780220263788 9.6156267473006
Li 11.91905480023749 17.58047109648323 12.615370612150482
Li 12.515984172165949 8.519526908960723 7.746860116108327
Li 11.812073521547795 10.769930869731933 9.074983212308538
Li 10.612243995413849 8.075590266759646 10.178944983055276
Li 10.87791383130799 13.252380924859867 10.571876869864592
Li 11.500940127361176 15.979456115206133 9.863165458133988
Li 10.51528618274716 10.530192577315944 11.687682699029914
Li 8.09686373924052 9.351821106318162 11.286978919404973
Li 13.498128843267702 11.475814442096706 6.945631500434008
Li 13.567910840691622 13.397516416139329 9.393625141024282
Li 9.050001182621648 8.830624845360617 8.019446494230982
Li 8.981983934274696 11.53213577754915 9.159045090644332
Li 12.917361805228571 14.801099954592335 12.207922799790767
Li 8.687203454928616 14.655113598752175 9.57151585295404
Li 10.638482806898894 10.725010809223132 6.478320992659701
Li 11.017239153061848 13.469235201582944 7.778320819205866
