34
Energy = -51.83299412 eV
Li 9.15092035745476 14.23744447360716 12.727490584212449
Li 11.011686006611875 12.407262000960442 12.05932584965766
Li 8.452991681259222 11.449302624344085 13.82540269144779
Li 11.131028418652276 14.449032887261067 9.812392888077024
Li 6.263347765292648 12.567889621341699 11.83317944792906
Li 11.776281976689491 13.043225230586446 14.708342642441195
Li 8.156654743427552 13.964618006938842 9.830807245626506
Li 8.667657354967044 11.568538273940927 11.11624439552962
Li 11.048932408323441 10.120416949374993 14.162519335150286
Li 13.725510714861924 10.52272440817322 15.538959191030536
Li 7.946270273551583 8.366935339896619 14.162159681630678
Li 6.849084567473254 9.474811711052851 11.317644918167776
Li 9.474213707349362 13.750664454135382 7.088377664945494
Li 13.07967563431256 14.398781265517773 12.251364421080435
Li 13.564569133985058 11.506706710090748 12.960417555884629
Li 15.012482488694655 13.226607201052138 14.492670417298585
Li 7.4616400660576945 11.355536520928869 8.537766706234763
Li 9.425694301226285 9.082915619496156 9.239853794721247
Li 8.466921497739119 6.752819435216743 11.359175414057296
Li 9.55030792948691 9.058398917902764 12.113243852468521
Li 14.221536740132429 14.706964465648952 9.218682068456875
Li 12.422677695709464 12.868296468938494 7.267380981191461
Li 13.166488485218538 12.330086364962174 10.033481963817074
Li 10.700267029040262 7.11751599812494 13.706118399879953
Li 9.958811570712676 10.699338468215396 6.533263960915723
Li 13.34008931298524 8.616740060477092 13.06796778443516
Li 15.99240686015405 10.35247444126065 13.429937070907258
Li 10.33451391495339 11.865308469668115 8.956710164546932
Li 11.635941658934767 7.388910808639876 10.659001349279706
Li 15.623843978827793 12.782699902518127 11.379287977041795
Li 11.741342971883238 10.097932389137261 10.979778023220957
Li 12.491559530209644 9.87713794398891 8.271327372723746
Li 15.252127743245797 11.82663180009259 8.324141556886454
Li 14.610907832794503 9.829702509865633 10.6219141468197
