34
Energy = -51.84074549 eV
Li 10.361730627010683 15.19375788599398 14.962214371354916
Li 12.81212538878735 13.958881911899557 15.289642387887735
Li 10.729700644487373 15.932349767969669 12.002401211117933
Li 16.96385255218363 14.944021282773564 17.096847181483223
Li 13.663117243086454 15.533781065264593 13.111530906399354
Li 13.186892076448997 17.61016169006048 11.177409824379964
Li 13.209077321652419 11.095804916028893 13.679853255945417
Li 10.431638361152524 10.923992428618265 12.201257334585458
Li 11.186998263047519 13.647084088654339 17.648670074543414
Li 16.89319046368879 15.389502435512343 14.001416319447507
Li 15.21234024031035 17.990166516960315 13.461726032505002
Li 12.247048187469947 16.48812263699538 17.09542879238522
Li 8.814062081831157 13.51956767644614 12.930219793853352
Li 13.471625604055077 11.474571338974718 16.639166901086142
Li 11.609533472370147 13.367156272656002 12.656356909944641
Li 15.693773117638438 12.91288320321226 9.765245941017215
Li 10.287884159875688 13.406305797403778 10.191672156897162
Li 14.049099672071407 18.992345363191596 16.185776949040335
Li 17.397733966550526 12.77379914446252 12.41122053903598
Li 12.194168290149946 17.58350788765856 14.22312264393135
Li 15.523191206297843 13.310247190090369 15.232938988826815
Li 18.344742103324876 12.83984269966699 15.312078571150387
Li 15.018895371334576 17.080973873792182 18.43235257959738
Li 16.15596270124726 10.777849611569746 14.612325901425992
Li 14.694744823111018 16.282990521957355 15.7748432536882
Li 13.113787462046018 14.665747291430026 10.356121635368446
Li 15.56437183423343 10.428229298614056 11.63158920244231
Li 12.95357301981275 11.703856351582612 10.615370704333822
Li 10.586584207236633 12.074301150051859 15.0686137419759
Li 16.40488554435063 11.911716978775168 17.548445043252087
Li 14.719362856486425 13.055146312626468 12.427642038089711
Li 14.1980898963415 14.145209160903262 17.87977164719738
Li 15.853879815844405 15.643337940681526 11.205711545465396
Li 16.958476287221103 17.825270118576647 16.00180232095098
