33
Energy = -49.57342267 eV
Li 7.956423557720223 6.983415593331363 12.728666456889242
Li 7.805221226255187 9.376477442161587 10.52433542614025
Li 8.708097554685558 9.732411612373932 13.39764476100317
Li 10.25702051951607 8.225191500864069 11.438626328540769
Li 9.479710886823938 12.570363287897681 14.188672822161747
Li 7.600412983625151 12.345967983810667 11.443019431778144
Li 10.87216459387558 7.756144135925184 14.26834569930634
Li 10.012616110533328 11.240074696597073 11.171660279898576
Li 11.275389403540782 10.655809952741258 15.86264966076942
Li 11.655638236985663 10.266035844791089 13.260364202626468
Li 11.433709448395314 9.923391849878831 9.098195999070521
Li 8.796122674177026 14.511210331451261 9.403643805261744
Li 13.183870803364917 8.866148263805044 11.458193950145859
Li 12.167594829030055 12.928044917292782 13.770474270263765
Li 10.336679346261253 13.942557773587522 11.741394856315994
Li 14.051218094671011 9.107404641701338 14.42482044036128
Li 11.701919652091227 15.73966016401078 13.600238153233118
Li 11.435192582104822 16.011836083506353 9.848534717316701
Li 14.41426664723896 11.526541066710694 13.138150299461756
Li 9.06531643997581 11.725601430908164 8.451241333740699
Li 12.762493893289719 11.662230210949343 11.058511354401825
Li 11.825525353621922 13.922909734485527 16.214590415925624
Li 14.061878509117308 11.834764158023463 15.876743315554897
Li 15.948453046330245 9.959371438449432 11.695046384375631
Li 14.648921504130774 14.265903215259833 14.165409409756718
Li 14.317220852854847 11.29111190804796 9.013453728032218
Li 12.07868521702326 11.956774166983127 6.840679966058301
Li 16.82216405046234 11.639794026260299 14.253308410910469
Li 13.240729357911105 14.316866526061188 11.445583752798745
Li 11.365171096996827 13.178581682538779 9.183677386043584
Li 15.833693824074775 13.014440549620696 11.317554942837432
Li 10.777594833877153 14.719374364983292 7.029870856629213
Li 13.71972478765976 14.266910815608536 8.378784114650054
