32
Energy = -47.7584052 eV
Li 17.422783473243307 11.153328170401284 9.355206036840336
Li 14.793494972455585 12.163408121119732 9.367018916189389
Li 12.180446350885951 11.866480758705537 8.125779483145966
Li 10.7877758145995 14.52430188880497 9.11666460153257
Li 11.58657887027189 16.481689023131775 11.393507460996837
Li 12.923007050654213 13.735572669021536 11.04276396917499
Li 16.294705729787545 13.3228973485268 11.396586227031207
Li 14.51927325443723 9.255439099962901 8.84207820287992
Li 10.553145333161279 11.815378903743795 10.377986609621786
Li 11.509978220535293 9.169853219088273 9.15499474359791
Li 9.424329458506888 16.23011860443585 13.627536336160762
Li 12.168612895354148 14.639700096279304 13.920235216167447
Li 13.00911959232209 10.744731401672468 11.02064917664422
Li 15.667170049326366 10.254681589495345 11.588821158758869
Li 8.578856464414734 16.20292895245643 10.602004428509078
Li 12.581557359369127 6.6246627384188335 8.45979233824454
Li 13.114807391692548 7.847295223160498 11.195025199348443
Li 9.938478474177055 14.192951749084033 11.895930773993916
Li 10.19488267469428 6.966986040936129 10.616006762787324
Li 10.570766693530294 9.35799575384692 12.021383698648732
Li 8.566159664292492 9.7255605423354 9.928817985657771
Li 14.255889976733862 12.333077410141593 13.373579394549473
Li 7.236880292441766 14.272620398540981 12.606798078732556
Li 10.95774208685433 7.15292271644988 13.611757759695342
Li 12.230335245226676 12.003084683303063 15.734949233043936
Li 8.077116909659486 13.123283483464629 9.828068492553367
Li 9.49746120492163 13.263728290116644 14.731688142756754
Li 13.022614425049328 9.564604124688568 13.711455232971396
Li 11.414193406324273 11.95895410310276 13.147154065278203
Li 8.488123061575479 11.420365134956395 12.448711002596395
Li 8.141715950916126 8.260226134484892 12.747802261949776
Li 9.98173499702052 9.958344472796323 14.745808833626562
