31
Energy = -46.34390891 eV
Li 13.829424895424587 13.805976941785191 11.863877919266828
Li 15.939298237837093 12.928011819159961 9.658421049511126
Li 14.096232941454424 13.880086015969303 14.948102334168183
Li 10.838498072006926 14.695177484106084 11.047976716601767
Li 12.861765979494413 13.006832737250662 9.080533029829956
Li 16.048597992853225 12.101303257578602 12.793559008898798
Li 11.321900512141 13.589487690873703 13.82867009577738
Li 9.77676410791736 12.403565707836071 9.301490970685217
Li 11.496183834134438 11.35167439627935 6.762808238898955
Li 14.338566617400204 10.593829544738476 7.937942240172416
Li 7.777341977080321 14.589538026133958 10.511872839981983
Li 11.537167262149149 11.927116577340938 11.532392775340725
Li 14.233753254251424 11.05014400237256 10.851633942491205
Li 8.786743150017873 15.358184440105882 13.280171991883044
Li 11.67419752164039 12.294608579483127 16.315172270989986
Li 11.843493288435774 10.186830399152166 9.250702753183674
Li 12.179186431013822 8.3931854635409 7.2187215047216
Li 13.94095961199741 8.156330785315655 9.912470774961841
Li 8.857417345331083 12.726256386401992 12.28850270018085
Li 13.348961873350959 11.335989157809408 13.838658949138066
Li 6.329659002549305 13.428786618400093 12.982902073157792
Li 8.641781418884037 12.867293691521564 15.130950840613721
Li 15.110717425167499 8.918298016258134 12.636919322481646
Li 12.295307892051236 9.196588491025256 12.075766689512477
Li 9.32312599308227 9.57589207206316 8.26642604204689
Li 13.08326496884151 6.484512338095579 12.319672778941927
Li 7.0804522792353275 11.4892074438644 10.481280873015237
Li 11.023206337577268 7.501469323561522 10.073153615453851
Li 10.404546833026282 10.656244891355984 14.03955873806873
Li 9.48063320729094 9.918108963756692 11.253194641263612
Li 7.359167395850084 10.539719582046256 13.426460380761412
