30
Energy = -44.67343203 eV
Li 12.209279642267578 14.326960698622841 9.800969016255253
Li 11.879658469425426 14.510235900484878 12.786510481301361
Li 11.742027073333887 11.63391481419606 9.890705729850971
Li 9.556646436725321 10.563259201899402 8.349781979483408
Li 11.065227790166352 11.316404349115238 12.668957940656515
Li 9.465576544971764 13.787430535324209 8.371060249945723
Li 9.124637878946615 13.32972770886452 13.601311893408289
Li 7.4234142771667075 8.847721055690322 9.867531048100718
Li 11.833140266605197 12.3614561824461 15.008405513015969
Li 13.959057182408586 10.418385651832677 14.099392775017803
Li 12.199265156801436 7.063279220102411 10.974236439973092
Li 10.25867610081078 9.395793080337617 10.868186091428882
Li 9.46270720400185 10.086206673539142 14.375763510641923
Li 12.084730759110396 12.238639471298773 7.335859368720219
Li 14.47657461985385 11.88780438987166 9.422830804170415
Li 16.02387151048391 11.257157808342352 12.1478045333887
Li 13.430581901751152 9.701239596273174 11.30472943628505
Li 12.455641541840173 9.220177548372941 8.601268613286422
Li 9.876806568203172 7.3582716604747205 9.030217055888166
Li 7.8676482020726395 10.836376605715015 11.989186599442894
Li 14.743511717037618 13.485148920834433 14.186147242349652
Li 7.104481075132463 11.920577376683818 9.243432372157706
Li 9.465174032710605 12.779128867997885 10.853442949621446
Li 11.872563247862667 8.491239760780093 13.457067022698881
Li 13.480551505416175 12.416154648994507 12.080121920421595
Li 14.985527392428247 14.493148437926164 11.317071418509254
Li 9.551191772962065 15.528011608427432 11.030280610178181
Li 9.075040539946528 7.466611428771483 12.21423326236805
Li 6.985572050494837 13.922451510221794 11.412211918138587
Li 14.901192719710549 7.8280341250421275 12.657887795173064
