30
Energy = -45.20615823 eV
Li 10.111869502050203 11.62573853750827 6.744345017050523
Li 11.940331200078367 13.96639203151405 7.972140168760917
Li 12.737742870101183 10.99704159307568 8.437636962594421
Li 8.704430633056807 13.99748849010034 8.017119857219186
Li 10.200270532712297 9.175759081823376 8.939428848237966
Li 7.6456054095229335 11.04904917775112 8.58435464221899
Li 14.96332479590396 13.182772919027608 9.010064149026705
Li 10.081414613407048 12.12812414077585 9.440508454111747
Li 12.69907551688757 13.038773097225267 10.59936595884846
Li 8.705182285016516 10.116069642512281 11.387267696010072
Li 13.610838071405517 15.636203018448855 10.252475650467028
Li 13.075343939539112 8.2263936030236 9.924689195793649
Li 10.432967954827804 14.879707390724647 10.51180179679372
Li 14.602842336616707 10.748151399308501 10.980309687849944
Li 7.826318377630953 13.048483185192143 10.985090035304271
Li 11.737979042531508 10.309985977155524 11.058275455925221
Li 13.252240471201095 8.7855448736505 13.099858185338272
Li 15.106311561522153 13.558139024478628 12.20105292902929
Li 10.601437003579765 7.7475008409507655 11.93095072083774
Li 8.319774335511006 8.291878006315795 13.880751424827169
Li 12.98241814603813 11.756678311932278 13.299096916612807
Li 15.549853794369989 10.919695460981217 13.96525396952021
Li 8.148958456868533 11.493746861849738 13.902608162846626
Li 10.349792399735202 12.517001164096307 12.32661467847013
Li 11.167565425405757 7.487547094857143 15.043376204254551
Li 12.366392069169708 14.665418503498532 13.041393456325928
Li 10.61284594443374 9.95300035849818 13.848121978353117
Li 12.907677236649201 10.244837064991279 15.736205892032835
Li 14.122389140477548 13.294715420223945 15.245731472684946
Li 10.949798655770554 12.671155450529467 15.147102154673949
