37
Energy = -56.7795297 eV
Li 11.677697378222822 10.149675309291442 6.906484860166607
Li 13.18020463225001 12.605133216702162 8.021499837248827
Li 11.605517622308 10.78398748863773 9.528292095925694
Li 10.360744595489557 13.14368241517283 7.60071317957647
Li 13.744333458535687 15.707116055369648 9.643798808741419
Li 11.816661054780141 7.902379200636145 9.180824642646291
Li 8.82153165686563 10.72725023291337 8.4472888703541
Li 15.171216483341626 13.017078294513611 10.02165325557786
Li 12.165187717150014 13.634059607409705 10.540639450555345
Li 14.2904469680217 9.965403703320268 9.717396692891247
Li 10.489922963680232 11.251408043111992 12.17450626385856
Li 9.657040561671277 12.680262090397916 10.183250053172713
Li 10.73727261957127 6.450530729637458 12.047912257195106
Li 16.732890002557657 15.244135596306295 11.267580917251207
Li 14.347392350992433 14.398577206501816 12.379128873777407
Li 12.206897634323411 8.840033254341673 11.902753406599512
Li 9.52209670091424 8.960279579152047 10.747626949867838
Li 7.695104953430808 11.374376616285259 11.67895362613381
Li 16.352348129485602 12.16380041461888 12.481157009044647
Li 9.05843010294468 14.300628991994907 12.253214554044918
Li 13.355887753860669 11.533094801262736 11.891613246824331
Li 7.48168510173685 13.797246341956631 9.268530258475357
Li 14.697444742175106 9.55626238704775 13.3927877178699
Li 9.586453909918616 8.951884527248245 13.725349980162841
Li 11.789840535660478 16.064751350575023 12.300056165479539
Li 12.01069414024653 10.541348072020666 14.396940304104952
Li 11.653470880816013 13.465940804943774 13.442092651363613
Li 12.262684443058939 7.783130080015291 14.703322345859105
Li 16.35305533768181 14.602987297100448 14.36597117552127
Li 10.280793267391934 15.513515716442107 9.590979573706157
Li 9.28077008254839 11.991333916347962 14.59174727865214
Li 14.269736554102451 12.397219859832488 14.540626084603367
Li 10.190049383699932 15.185336367940934 15.04977841918338
Li 13.29485763071115 15.244005823217234 15.013849377102536
Li 13.71755329242456 10.037955909901621 16.45619288580309
Li 11.770448704240316 12.674321789527397 16.28955955120179
Li 10.540288172997846 9.769966036644453 16.600551043666652
