31
Energy = -46.69373886 eV
Li 14.896222415401985 10.863906708163961 9.372077994052695
Li 14.758431034945211 7.646117983291017 9.853457115000056
Li 12.443287528720571 9.166926670134165 8.35855039027373
Li 9.617820132837908 7.799385619882334 8.241944956320927
Li 12.869966173537694 12.047418069989778 7.157396909053083
Li 12.116597357025729 11.774658970326932 9.755566399402737
Li 10.014482309804446 10.866481177425964 7.561877992269481
Li 13.203051245046844 9.343486627825339 11.229677998592129
Li 13.796369247402765 7.20270335130065 12.783422525313085
Li 7.533521225193537 9.889011395949474 9.381795741401739
Li 7.586324407145872 13.025555871927203 8.122934164417362
Li 11.700054241937076 6.929215757968031 10.506308709677121
Li 10.237606947665508 9.468041255291586 10.374797740760231
Li 13.840188334847154 13.966578809148771 9.429483623430196
Li 10.709329203010203 14.02224134901359 8.439931340863946
Li 8.59321388223867 7.314799922970024 11.114894321342865
Li 10.786393199119903 8.39975875869296 13.122016402868521
Li 15.7703598099134 9.549533248617882 12.10808462001046
Li 9.281828640446468 12.128526680418366 9.983978317964292
Li 8.180084441499886 10.09066771258865 12.440229403935644
Li 14.092607757082313 12.251019328870962 11.97579597646321
Li 13.248217650311226 10.106687779664629 14.114472960124512
Li 11.46074597905696 14.201710594453555 11.401371419872472
Li 6.6528144236570155 12.389671224136489 11.055202268576096
Li 8.496393604755525 14.842349889788458 10.72269101577861
Li 9.89941094493757 11.148633981608342 14.83966578262826
Li 11.32503826204008 11.16960121732419 12.386022370917017
Li 9.22021241056564 12.73938427314479 12.564033093846477
Li 12.063309563394231 13.181770623870863 14.14423935145773
Li 9.460583331707138 14.922341281607261 13.920413898222725
Li 7.059872535303995 12.72991808710177 14.117669433407519
