35
Energy = -53.41732113 eV
Li -2.7925551469298298 17.751984906329167 11.018788174369345
Li 17.274717922559933 13.162624162016437 12.675981000887335
Li 10.663623400174151 14.677238389028602 9.510014027211998
Li 15.137784878668063 17.39182112492666 10.845598065388161
Li 13.511051704178417 15.645035603676858 16.507841563643247
Li 14.497981902871818 12.184944137008388 13.131003118529117
Li 13.846721094028107 14.927359411916918 9.231168229040795
Li 14.200221749836688 17.04653031723382 13.85601938220579
Li 13.363065203661797 18.355169606328964 16.6302205522334
Li 16.192525390846516 16.882715746275732 16.238381941534808
Li 14.450832486874242 16.559741254731488 18.918686222122716
Li 12.768167631509789 14.445054690555683 13.927548813422412
Li 12.395198091594017 13.102777459239745 11.20328936984327
Li 10.139369739082904 14.331962857661088 12.807573869165994
Li 17.068326155089647 15.075302123878568 10.266034259765243
Li 16.275317044627204 10.162846763234493 12.578349589793369
Li 18.296481220812062 14.59143219184404 15.285207031787277
Li 16.54418002437546 11.82079226641074 15.383129633267234
Li 14.798078659462458 14.769205303526174 11.865098410613417
Li 11.85790722390234 11.07375624847653 17.077020012729378
Li 17.038149976856353 16.275706206518308 13.064642190723845
Li 10.993733624426705 13.955215220933972 16.09954702039122
Li 15.548931030181175 14.487822845162716 14.716583873680696
Li 13.267489956578444 10.153827973145894 11.735385009115268
Li 11.661520339589078 11.749783024613047 13.938651239444578
Li 15.312769758903015 12.287069917935842 10.401808665964582
Li 12.248326433565733 16.142167840996198 11.544985567431107
Li 11.296897175312376 16.71828131737633 14.865164663134268
Li 19.503843400928236 15.188406389455045 12.248409271326587
Li 14.855487348425823 11.11310598295857 17.970100653711643
Li 11.402673414161825 16.431743748856444 18.05232431804297
Li 13.746098959872128 12.68543062007252 16.011258482372508
Li 14.045452155945876 9.984515461297159 14.93302466164434
Li 12.981764375525538 13.694741795288813 18.57290789509813
Li 15.927297962264605 14.07704919993173 17.536208432205346
