32
Energy = -48.92448213 eV
Li 15.09119540544738 14.84851264104859 12.488657639495905
Li 13.930514029242488 12.131919120829192 12.362913515247408
Li 10.516487927462254 12.99423681354275 9.139489680505926
Li 14.551329488583866 13.085148507761229 15.123960004150755
Li 14.649164725878302 15.876430624731825 9.446560799744208
Li 13.756567110845673 16.189435662601046 15.087714801869492
Li 15.407222454027012 12.863257969929474 9.953464605605928
Li 11.611093705075207 16.0215623981668 8.997931646124949
Li 11.099543635753964 12.30383335823883 11.954995639329589
Li 13.665456362502724 7.334463108269613 12.588719254390622
Li 12.100896448757808 11.558831816123556 14.61812124185672
Li 13.18194983010851 13.517340022410572 7.795860185635576
Li 12.900274483804234 14.168199166872524 10.584276467880331
Li 12.870773253180223 11.276464204725336 9.711034207028844
Li 10.213182187305835 14.989043250029884 11.664063839655833
Li 15.043975099921006 9.729785948344734 11.092019117563582
Li 12.574204789990807 8.321312380808903 9.707329763740216
Li 14.55310217775458 9.973186396867423 14.273084343623191
Li 12.406643759185616 14.3672848413386 13.588231201516166
Li 10.633945996177488 7.556448156991831 12.123877369482493
Li 12.391468148103796 9.681387408626593 12.232791776265957
Li 12.727864009123353 16.753550393631546 12.020144268279186
Li 11.482517788472615 10.575549136120257 7.36862446625434
Li 10.686103722676137 16.28208003449351 14.55351209130293
Li 11.833713393018675 8.721818891935795 14.976286078355255
Li 10.181456501812937 10.10978066608477 10.20205453299382
Li 8.382896924325534 12.441140842916273 11.491757254736347
Li 9.6852572482967 10.30468007806874 13.398145908399275
Li 9.672448673345148 13.313004037354014 14.275282912367937
Li 11.834061466700554 13.859886824148317 16.41355905122806
Li 10.116927322840889 11.090190365096685 16.46762598651998
Li 13.184526406531132 10.905186563819017 17.022566717045038
