35
Energy = -51.92261019 eV
Li 14.356314414433236 10.10628424640116 9.927027392486155
Li 15.446695436937711 11.50168585810638 7.433125148569492
Li 13.576220933099988 13.981469205205933 8.157861252151068
Li 14.26900594641283 8.621944254450293 7.418561084091627
Li 14.64458924463161 11.617031623788842 12.67067916469223
Li 12.57551896889775 11.159317102640651 8.031088655782726
Li 15.478351003006122 12.884690817750057 10.10407913602271
Li 11.975931654362597 16.636238556451087 8.827490856064944
Li 13.86166299855153 15.30631592287588 10.759541584969428
Li 13.693125197687895 7.271168811218258 10.32784383017297
Li 11.600579171614612 8.46063116956203 8.808173769059298
Li 10.638706877283651 13.995193231262741 8.796949476225656
Li 11.799058975249446 9.733646888352032 11.3064747887206
Li 12.570958523106455 12.590489163834617 10.71714684119193
Li 13.861436320522436 8.815329461106845 12.99860709415093
Li 10.020803076188935 11.175366471735382 9.62781799361309
Li 9.145817071725897 8.419043948470971 10.428850556643386
Li 14.240235790882418 10.56244427405259 15.563904617663843
Li 11.263997264138474 7.17813801365379 12.164293958265242
Li 13.027078786579603 14.006009240510341 13.297292512396634
Li 12.000881906110324 11.32546561446707 13.853591925507695
Li 10.920716160806869 15.210537013784249 11.307263463623185
Li 9.911732268472685 12.584544123469424 12.106120403782676
Li 8.0674919944372 13.71051562955222 10.311428686510386
Li 11.571857419463921 8.784286948566661 14.920139119901352
Li 8.957336114659968 16.487281893232975 9.572347249837673
Li 7.446788288513964 10.936180324090348 11.127876258439636
Li 9.439412052968505 9.841432969501207 13.053520448006614
Li 14.610882326878327 11.899497252410958 18.278889685274237
Li 12.67359094915996 12.926006957282047 16.176197489178236
Li 12.089137699070843 10.434875275963439 17.43725640824393
Li 10.349596319687288 14.083940533729285 14.427432934851502
Li 8.29377906697534 15.431890482341904 12.5777803745117
Li 9.833081545383026 11.400368264768634 15.60900762144034
Li 7.630980683607679 12.634120440057208 13.622364786637766
