39
Energy = -60.08370702 eV
Li 7.500323997890869 7.322858301173029 9.919671862410981
Li 6.45732542054356 10.111679134111908 11.334196897930942
Li 8.016630593890078 10.156760843372636 8.5536769951857
Li 9.12765625172809 9.245948796572064 11.044667947367682
Li 8.801535905326125 13.015203868132831 15.741257518479548
Li 10.314906192878675 6.640083850380265 11.551823620151355
Li 7.066122000720211 13.326410807526837 13.063298611798936
Li 8.534598231214588 10.761308817925384 13.574847882499316
Li 8.596506382357235 12.139087124056294 10.763408255120533
Li 11.002370925024396 11.20184996530806 12.101830870651309
Li 9.665246486241344 13.53817767260463 8.168472203151763
Li 10.824973958449199 10.977569570598181 9.125745448171518
Li 9.927114445691629 13.461450462727788 13.238424023213165
Li 10.348551627987684 7.992576876203514 8.77464159439968
Li 8.935429769723946 15.739924452950795 14.215088575880234
Li 12.0488608093663 8.926447030894977 11.029671045257041
Li 11.381984824590885 11.471356161685879 14.976096421096354
Li 10.847260436863127 8.778603121574752 13.71107351122005
Li 8.859432376376876 15.111152724688658 11.06905266669648
Li 13.514173521620634 10.294283851277815 13.300402385579439
Li 11.641348871828528 14.379009484108824 15.407132813080398
Li 13.306209272227406 9.12404748369925 15.791083733951762
Li 11.287827350425877 13.648816553125013 10.432585810284076
Li 13.12696299702851 6.716629542716983 10.004130356308933
Li 15.088591014649305 9.236854123869511 11.050916703192353
Li 11.655720880766102 15.744328500510537 12.55335970069905
Li 11.30180304498037 16.35011412384666 9.694993595565988
Li 13.500176924634976 7.438090626682822 13.089585547476496
Li 12.372123058287544 15.088992964185238 7.366952834869165
Li 13.058180906832208 12.52921735807925 7.964976014889273
Li 13.389521171538632 11.52995967697954 10.623963702066787
Li 14.391026617892088 12.03323602158089 15.30953529276039
Li 15.972497726488971 9.430921424531896 14.124751017404826
Li 12.96506283368119 13.223848709088163 12.89508510948216
Li 13.338213725314532 9.50901312467333 8.460993635468512
Li 15.680321432900678 12.111490209796811 12.299414424164913
Li 14.035435233726425 14.461562908331352 10.114879689998471
Li 15.312298325645523 14.42506027297628 7.3653521989999104
Li 15.715843259181712 11.853738918888434 9.147411847229334
