30
Energy = -44.85711273 eV
Li 8.941722959116637 10.67172477516032 8.258222581849253
Li 9.830286063122072 13.63918966546552 8.713337406528563
Li 12.219603492639324 10.68419573741584 8.456474156165335
Li 12.649087083975246 13.896255378997289 8.217444564413913
Li 15.194066150205852 10.278024491036064 9.660530484925063
Li 13.419160425487947 7.7225916725167085 9.503546710227543
Li 10.90269474863224 16.390737724722182 9.430448332653937
Li 10.48273505967934 8.526881201457986 10.03140216451337
Li 10.452635288997973 11.513187995874508 10.557120881621824
Li 8.097819559207927 9.860326677480497 11.204822813079957
Li 13.52586678442018 12.563342984316355 10.509518765047583
Li 11.433121667722622 14.277694473230111 11.128836712746587
Li 12.915381040428883 9.807639603641372 11.226743289091816
Li 13.76312560617885 15.671359971625968 10.340562718356693
Li 9.066089922341387 7.058460858091111 12.344876984736027
Li 12.108880542001911 7.2217255402636775 12.369104591886506
Li 13.7310774897733 14.352455630076461 13.069753599209816
Li 15.001859740575163 8.252837404609252 12.0696555284963
Li 11.692629228542586 16.72565753892517 12.461326771438294
Li 12.07480116316429 11.954236394863369 13.007597964866493
Li 7.703176840920304 12.733498334556778 10.28240089901328
Li 10.44085011152932 9.508209477858149 12.842321948343324
Li 14.952050397934535 11.332420458694191 12.843987027124133
Li 8.975228903380806 15.282910319642161 11.63372568371502
Li 13.051550146982153 9.463113416070888 14.301913244761353
Li 10.598286510394317 7.8049610945322465 15.061352896716375
Li 13.428432286365563 12.43772178276969 15.452554046984224
Li 11.009929721844507 14.301192723446766 14.234819754725354
Li 9.14958846548099 12.420727773008872 12.882889074354141
Li 10.61518482071426 11.073641121410843 15.329630624168688
