35
Energy = -53.11711274 eV
Li 7.81870453641201 13.110153092871386 8.345580197551476
Li 10.75710751192463 13.828795794188471 7.409860428717711
Li 10.085972807568124 10.91476091212685 8.318315381777293
Li 11.066378018560547 8.113250548972296 7.225560939536339
Li 12.678563867531734 10.791629863507735 6.7041582591425355
Li 8.89908059533491 15.871791571739884 9.240123333097623
Li 7.417460472487446 13.84395585639611 11.399740841110109
Li 9.85500348874875 8.471729300791893 10.07145934902578
Li 8.174838143860137 10.922414487346035 10.591942335070065
Li 11.981515043208836 15.407411133885917 9.835713278065574
Li 14.190292051453516 7.996307333403663 7.423333775170171
Li 9.860805260022321 13.425594403703307 10.05242547359908
Li 12.430366078641738 12.300143791732287 9.278885630554
Li 12.567747867525146 9.346087700576353 9.145628730330543
Li 12.212994206179452 6.568650936127173 9.673287128904283
Li 15.007342574345149 10.801638144484736 8.708191723863573
Li 7.263196522222798 8.13400026550653 11.772338295538571
Li 14.750803696971689 8.208087502078907 10.532127620031986
Li 14.57640343136855 13.801390203647824 10.600283874766003
Li 10.024587539365202 15.414742227929425 12.171946614938555
Li 9.872675832240082 6.579302379303911 12.468251214638022
Li 7.05214656812703 10.822751079539735 13.433191556161256
Li 9.428491479138405 9.361240739894884 12.898423122385456
Li 12.101419061261923 13.425751204253045 11.924636544663084
Li 12.107137399999239 8.50976467931043 11.952564996040246
Li 13.12034809400643 15.801622379503263 12.774964909578097
Li 13.754814477974582 10.911625632268198 11.425223839244905
Li 8.01850010952699 8.02754378876672 14.807987908035146
Li 9.546439752339039 12.309446666961005 12.717055792826102
Li 14.260840340627206 9.180743295997841 13.752743507758119
Li 11.228488287323778 13.814578123869321 14.593724911947135
Li 9.44049931649134 10.83191253650801 15.365186544799958
Li 14.1600032654806 12.858060823786241 13.653669654708304
Li 11.174863706047592 8.226014793166955 14.807516611888088
Li 11.889402333971368 10.919421541086205 13.648756537594556
