34
Energy = -50.25740678 eV
Li 12.006623126555686 15.047286698202456 15.097912383839057
Li 9.456678740510831 13.635940965793415 14.060010602113083
Li 7.853772359684631 11.247262212965829 12.778982787051675
Li 11.840013206827448 12.668828906118366 16.649357177264427
Li 10.086507022098756 10.971958176366106 14.875526933327691
Li 8.138795765741037 8.759684680912546 14.117864301491387
Li 5.905530185589805 9.21534858978977 11.943518616106733
Li 14.491797314558152 15.449884531879801 13.773004409519912
Li 12.863492481098167 10.174337836169038 14.780415776086908
Li 14.278720382846862 14.84890642561287 16.996976123650544
Li 11.250511260947965 15.485017248798856 12.133741081563752
Li 9.727123292346855 13.003906739445389 11.006099105007689
Li 11.082091530602804 8.077626355521994 13.634327729005612
Li 7.811332623008414 10.86013277507728 9.922435337558213
Li 14.14962795344373 12.868964033745598 14.972159476074962
Li 10.54017467939941 10.428761177272257 12.164947918143696
Li 12.04889658844026 12.892053436843323 13.077802812338097
Li 15.713713905496224 10.354331329286365 13.951401658923826
Li 8.776228781541073 8.448466964639685 11.31673260885996
Li 13.458841634052757 10.4165124329352 11.990806969384229
Li 12.480472387570169 12.451324546878245 10.124268600126873
Li 11.876783226963376 8.106280844338377 10.839615755409092
Li 10.655309199584313 10.38197428687112 9.301619520409107
Li 14.17774377767668 7.911025882200957 12.927373732679579
Li 11.301201530746594 14.848177717162946 9.052383954389452
Li 9.616794922317501 12.783537520115543 7.946600314508505
Li 13.744752574110358 14.83550419518372 10.90774010722935
Li 15.208151915747505 12.683524964510807 12.179330299852513
Li 13.602926589249263 9.9424199836772 8.986420280940992
Li 13.886325727620536 14.832097974034848 7.870913492449353
Li 15.976752243160554 9.847429448927166 10.949403393446469
Li 15.162442621619173 12.389300159697845 9.207126760945236
Li 12.470016294753611 12.37341680859934 7.330340749145397
Li 11.26829487421364 14.879591537135589 6.120428901109103
