35
Energy = -54.10459639 eV
Li 16.349237090257887 13.253985453381562 10.977777356983065
Li 16.640396460733633 11.118563634642435 13.222504655717982
Li 14.009478744778297 11.268991996059745 15.106412361544782
Li 15.518153362847963 10.213905316002942 10.312564747742234
Li 13.619838810357836 14.804923928563129 11.440750414618288
Li 15.432684597478852 13.903737058529439 13.889831691458195
Li 12.03151907617881 8.75081366335014 15.276672695991365
Li 14.190519152584317 9.055532151860088 12.898728095469414
Li 14.251822383487038 12.043713819679997 12.258741742086315
Li 13.6641425843351 7.608164996958139 10.05279390342575
Li 12.286440632593838 13.62972074245043 14.00244517398787
Li 10.316510736965775 15.168876323582674 12.149018289233327
Li 13.76395553380752 12.578037776512314 9.259689316936104
Li 11.827582485497288 10.727115061541651 13.368046048614676
Li 11.300099101929655 14.463236010358703 8.969810272876853
Li 10.911880644946256 11.555290389891146 8.696221883709208
Li 10.696147834907386 11.623350109367914 15.811227128787502
Li 13.179577370625948 9.870882778308868 7.820263194165139
Li 11.607303126418804 12.722674442911867 11.275015077404131
Li 9.500139173671698 12.56459385908517 13.273254139041647
Li 12.167110627278433 12.64556371709888 6.521960473136483
Li 9.499676338501452 14.54805061175595 15.156464969023318
Li 12.686192688829411 10.118138803732123 10.610982708148436
Li 8.832796362163409 13.124755176321868 10.324367433451568
Li 9.819611244581862 10.430338697542759 11.22496511747162
Li 11.289843584981462 8.013966768243597 12.2124687072979
Li 9.189818916663018 9.592947740753296 13.963539566932988
Li 7.371535689203192 14.243415147646072 12.899259528475504
Li 7.564826466686905 12.110374837481789 15.14913313982069
Li 9.13156026692401 12.993063178087016 7.182405799388552
Li 10.259159807649953 10.190183561864567 6.4228025805776205
Li 7.19746984522785 11.122133654099514 12.086983207596196
Li 10.682700166735591 8.53813954987495 9.15598807294189
Li 8.2089119612763 8.20410057929167 11.21556063769468
Li 8.185452951928362 10.417839008107864 8.895090851345122
