38
Energy = -58.53991691 eV
Li 16.456029360194844 10.137602980123447 14.729821286348633
Li 16.040553870352433 10.298005867843846 11.357501570042274
Li 14.58513345212436 11.52361466965088 13.279076835833502
Li 13.73606374104899 12.464675944750851 10.731163340609125
Li 17.176095931372096 13.03750498155715 13.511512824294524
Li 14.041057404247452 8.691089757141114 13.258958276680724
Li 13.36825013707491 9.580869212604716 10.150015504873117
Li 13.49752057436594 10.38072609742702 15.864716305391465
Li 17.00891561051681 16.01973193746685 11.795180112691094
Li 16.54724260112587 13.140163625381872 10.638883522669376
Li 14.929733904867946 13.121673694183084 15.492498562039822
Li 12.010914588275734 10.577574633435525 12.398799204596259
Li 11.467706702681914 7.838089822018611 11.81856070636022
Li 14.915573858114705 11.83741558396964 8.363316045249036
Li 12.328344087473956 13.03995875617572 16.949201627992515
Li 12.545118278658311 13.36877657122696 13.580971349605786
Li 16.03334592996132 15.915460149967878 14.7061079102566
Li 11.297911325871915 8.713113094070943 14.809640075650956
Li 10.451027839387706 10.581201710383649 17.321657720318736
Li 11.11910797913787 11.550898935324527 14.92103767820141
Li 10.890665542233023 12.289514963978071 10.38634807285701
Li 11.960669059760306 10.974040873075438 7.94775439000789
Li 10.03841154345419 9.773344115054508 9.88541889869887
Li 14.916660629363163 14.465430649388868 12.645660079469998
Li 9.93189154122629 13.216172590005348 12.840378514537266
Li 14.66311812954559 15.200008112255572 9.7718790814919
Li 12.975944659817461 15.561828250032997 15.032799503834385
Li 9.416029425205698 10.120332069971386 12.851483712771273
Li 13.917143337884236 17.004983374728468 12.46081272214201
Li 12.223621699121775 14.848496027040548 11.28120731566309
Li 12.099903338920635 13.919109453875487 8.424572614545047
Li 10.03553874296488 14.323569590530116 15.522544966417074
Li 9.273077233112534 12.469515511840385 8.165286832966295
Li 9.447484100543802 14.846589612422735 10.38781657599502
Li 10.572818995531845 16.108564411226048 13.189302903720098
Li 7.9952668036453725 12.209646945771302 11.144619074025975
Li 8.265740365161335 12.013648415194877 14.915708021566791
Li 7.743504962476374 14.775064881092437 13.2748034740239
