33
Energy = -50.28418537 eV
Li 12.452462739983337 9.461897152737889 7.250477168759241
Li 14.262428010354292 8.603247695003343 9.783751394244227
Li 13.86642707581782 11.619676153835925 9.116553787132771
Li 16.013693434318576 13.655098593310123 9.236100981114433
Li 16.20046628441888 11.008419495239533 10.984828276186269
Li 12.81947527042378 14.4644637752713 9.164368741436812
Li 10.827376256080269 12.091096178727723 8.103989755891872
Li 11.44115767467886 7.187304333485357 9.057209692888286
Li 9.22770957444315 9.430575373470576 8.157349442299425
Li 12.27433300493763 7.871830007712834 12.025283578333509
Li 15.271733257501628 8.614426589606204 12.866662534805563
Li 11.574319186408273 9.783885676276489 9.841916884360794
Li 13.56003731578409 10.496777764799576 11.891884566315788
Li 15.079368466014689 11.695762562461232 14.039321062871805
Li 11.593938092040116 12.502152170142892 10.84158478502423
Li 14.321690520030332 13.38761023668677 11.563440174716582
Li 9.196369086008298 8.430595925279118 11.095616668644585
Li 8.99191022822712 11.299322421340838 10.3686354488146
Li 7.61460471032102 12.276618955934266 8.224181110058089
Li 13.842009009270058 14.682202359849938 14.455031812232829
Li 6.6188203762690305 9.980477940677591 10.097619169427379
Li 10.700419579193692 10.356853899815373 12.54905300045798
Li 12.296024945420378 12.56643265561709 13.63561733203281
Li 9.520523680568656 14.217783217193716 9.894435776209447
Li 12.708906350948082 9.772939358645749 14.583283769494054
Li 7.7679600331665215 10.66303059395371 12.98910739346834
Li 12.841131813676995 12.467036154147328 16.293332359759784
Li 7.436814388243194 13.38805009754075 14.607675717532963
Li 11.688151713051887 15.064393117406242 12.118511017506787
Li 6.891490674813092 12.977950467776093 11.254610713020382
Li 9.93820922816999 11.533215611775463 15.146248763462644
Li 9.449518706209474 13.106780078750171 12.712254110755204
Li 10.646168102385339 14.457991554224396 15.073026542970988
