30
Energy = -44.76520563 eV
Li 12.056014524243094 12.49193752895639 5.995026939538503
Li 11.034761764050312 14.826731895534946 8.012365518398056
Li 13.665474464845316 13.345006010787051 8.455911560260795
Li 11.225629909168887 9.21621812053812 9.781003815463505
Li 13.289595971412215 16.181702528328366 9.793376686397387
Li 13.474947190098424 10.434874121988397 7.935085389686133
Li 11.10106443240539 11.943497371329812 8.604686469483342
Li 15.855291039698717 11.52831257204759 9.624351455503515
Li 8.97335790184384 13.416050193955247 10.075448372482322
Li 10.301753861783975 16.257104164609462 10.725238736457548
Li 13.250284871746116 11.299039923502573 10.712191101807603
Li 11.76494905241791 14.031012259227612 10.635322854600329
Li 10.608831656867546 11.45949673695131 11.516554097168152
Li 14.666048697611386 13.851723065900895 11.310325668586437
Li 13.77640842736405 8.687065988481066 11.971897323409435
Li 10.64712270600052 8.934140464722518 12.832954867957023
Li 8.116028658722536 10.886503928207489 13.060144695948866
Li 9.708597492288476 13.860747581204507 13.05885714863408
Li 12.639554214196563 15.684621375452386 12.945964940160259
Li 12.974846017528028 10.447841381731536 13.90388432629474
Li 12.582350821756702 12.930219650926889 13.091065868292219
Li 10.442792668767282 11.353342119828858 14.365879265494186
Li 15.433556685784966 11.30613878149571 12.769763319482202
Li 9.374557828490957 9.236725192874308 15.59527798208405
Li 11.430335631592174 13.704929944787809 15.580276653349927
Li 8.638142386799826 12.229714082010162 16.09092601889095
Li 14.315598241474175 12.722539307247516 15.248705903828613
Li 15.006467140972939 9.575107543839895 15.396851121199788
Li 12.343877836056905 8.073439015589585 15.090141978350308
Li 12.040944720303148 10.823403964234505 16.5597067370817
