36
Energy = -54.64352067 eV
Li 13.073200969058034 7.717234223509264 8.971082656910392
Li 9.30547016960402 10.764939364818721 9.449575217857722
Li 10.620152262887782 11.806516827882255 11.986710827171194
Li 12.859187239675041 12.707967902776108 6.605221559934925
Li 7.662702363305961 11.692856240305893 11.661804411664244
Li 13.661625173124197 12.103785534016165 11.640242395632361
Li 11.90030983018845 7.445328618710593 11.98736076171612
Li 11.58906971318517 15.010541145020328 8.340788199772978
Li 9.288653348447271 13.661521934512018 10.035124436490998
Li 15.59192208041098 10.538511080389563 13.68710096636225
Li 10.607186032416283 11.118802383031587 17.179066460652088
Li 12.170810364061396 15.009440378856743 14.350939456465653
Li 12.73371444048381 10.051329884063726 13.261470861328778
Li 8.42849442708535 9.659070040965975 7.062880671973905
Li 11.997972395193438 14.403876432211243 11.425769832322135
Li 11.795599345263987 12.390305272933231 9.22315138914466
Li 14.259208961775839 13.826631933611802 9.24749383781247
Li 9.787099502444283 12.55006830819852 7.1185804072243615
Li 13.384051513856281 10.545047797611497 16.064041292467067
Li 9.96397174695683 7.933857902612081 9.367454842266252
Li 11.48853723111814 12.252303955088786 14.726984493719227
Li 14.230313177386432 10.79009190456062 8.772174752163464
Li 10.70944490399076 9.061213036243483 14.830222349447842
Li 11.48383573392778 10.026733255932644 7.483378719966191
Li 14.678400487691334 9.16184391941217 11.188135325184014
Li 14.22141931543978 12.942420468715156 14.29503515778481
Li 9.831258474196188 13.915458567893896 16.270921119420628
Li 16.257807307255078 12.020880110711111 10.997046690773074
Li 14.900741731076407 14.783974316299952 12.063156690447382
Li 12.761971483662462 13.369908931014356 17.04811551862944
Li 9.411264199944933 14.02439752926083 13.228340357377583
Li 9.39224369175849 9.20300373326261 12.117675472098936
Li 8.812108871486748 11.328282038606345 14.522233412508415
Li 7.116668185503963 9.162402593408636 9.856886475557078
Li 11.940898428995267 9.781397845661088 10.405042421470192
Li 7.025248517752905 12.003537640599792 8.562523212253716
