35
Energy = -53.96104928 eV
Li 16.04870109407026 12.590274445665509 13.189723004938815
Li 14.098835993118348 11.159456818729364 11.776635213594336
Li 15.63841358254443 9.365609178484672 13.233971343777398
Li 15.283340002020452 15.68446269128419 12.693786487052146
Li 15.062417383134514 13.546874731154874 10.3515540958657
Li 14.132420227937846 8.524280447435173 10.56915045087231
Li 16.531234597526193 10.721105952513259 10.55973309216717
Li 14.463245036710786 14.396455247887975 15.393275247878217
Li 13.93980661477407 11.088319770349386 8.755727468671065
Li 13.062438020834572 14.147144763991008 7.927046973459363
Li 13.634163494595596 11.417629470493678 14.732042539418751
Li 13.358852360231314 13.84515346999418 12.928161805879313
Li 10.918006304812018 11.706533428045654 8.020814670466121
Li 12.514276041704314 9.007833504550916 13.204803356654283
Li 11.452497226032039 11.813615684048079 12.810396957273637
Li 11.697726781506653 10.146801952009824 10.457014171828042
Li 11.940510610790827 8.575376272570486 8.205946023563113
Li 12.466364377599037 16.32239542872841 13.847278711641227
Li 11.03750353312383 7.471099421272559 11.067557227959599
Li 12.769216153677906 15.776709460429249 10.67113573367974
Li 12.283276286299646 13.018455099289726 10.320855426833788
Li 10.514989317072835 10.431332716088475 15.19210273537027
Li 11.365653580480936 13.628808787536213 15.067454673666024
Li 9.95541877868304 7.50996599192234 14.122742584035214
Li 9.605969157993988 9.749108524414252 12.479828965083593
Li 7.835806188496885 12.290832579956705 8.471627663514507
Li 10.443132087016043 14.599217933703017 12.206146599263853
Li 9.5094191450425 12.161299428276422 10.656178542375997
Li 9.152573023089019 9.527735897651793 9.411931482141071
Li 8.6763848696159 12.45195488619304 13.529221667814111
Li 10.09761680396048 14.539707537215898 9.095860173292388
Li 7.932508626631305 7.80718851908309 11.778498899082257
Li 7.547961595504979 9.575508286187963 14.29639109380599
Li 7.575251441767305 14.1221052456961 10.989814740575888
Li 7.1007294019316 10.914100382652842 11.355515433153183
