37
Energy = -56.56628042 eV
Li 8.972995916059197 12.466483801537514 14.728194478376016
Li 12.688346838917333 9.307505189999763 15.74799948218849
Li 12.137263586899474 11.268784504491524 11.353965713918578
Li 10.84245298281146 11.35681879535152 8.866492977880116
Li 16.187594394692777 9.817057895447581 8.984517776638766
Li 9.544602902957255 9.89853260690703 16.241973950549692
Li 14.416360466609689 15.089716110599804 9.429012080953925
Li 11.90116796210324 13.924768485690613 10.13726781915511
Li 7.817422342661369 14.66656559288682 13.301474567230498
Li 10.880289753511274 10.490845307003477 13.882652202096766
Li 11.515867942331237 13.401227469824407 13.142722190941488
Li 9.864050179635155 15.464240376918687 11.4641922734962
Li 10.23107308019683 9.213889969599792 11.181737919434882
Li 17.685003059591253 9.958205420930963 11.691628221405406
Li 13.65952806522128 11.425517844921954 13.964560308217791
Li 12.73784720492706 15.959542735073766 12.067362738388875
Li 7.8089084381180225 10.975068934669398 9.960771834114622
Li 12.213285833856752 13.906040135758424 7.396866031783308
Li 12.965576403288672 8.739334779388907 12.720827120279038
Li 11.49628125400724 16.46562534531023 9.113744067069543
Li 10.405960413415366 7.7677210086733774 14.063430797872504
Li 15.043522334204207 10.492982701243717 11.444033356077723
Li 13.945091420927735 12.037522803126395 9.090680779637626
Li 15.55466795617081 7.741328847527289 11.265438025001348
Li 10.685560743629214 15.352087981660024 14.68886953839061
Li 16.398400977287903 12.296674486024127 13.440246031014025
Li 9.281336270380645 12.436182981895517 11.658873735611955
Li 13.123699243947442 9.13105830607762 9.679580707478044
Li 14.248066684283026 13.384247856998165 11.802209591423543
Li 13.889750083295983 14.292407624139472 14.580572497995982
Li 7.0705791301251075 14.052570324685254 10.50252241939623
Li 6.491863814439716 12.087728361086597 12.663653820865727
Li 16.64295780963452 12.657832854957196 10.273287931919093
Li 11.66662714681821 12.372630035421064 15.981793406064323
Li 9.448812247704241 13.969572065816898 8.767261102147737
Li 8.225694887277943 9.800022878143425 13.272115228293766
Li 15.614306214993462 9.239957104543462 14.04302006869856
