31
Energy = -46.76281043 eV
Li 12.058313272330546 7.8336083275776565 14.641351771792424
Li 10.192343646450354 10.060132793586636 15.771560330837389
Li 12.91628711731407 8.707372679178654 11.75001618184704
Li 9.002979761724987 7.40236371586371 14.750707369721509
Li 12.655543792199012 10.924750457242217 13.897928109536414
Li 10.778980910356623 6.565659112367802 12.09890784051899
Li 12.611074207628535 7.120524137325518 9.16416447021826
Li 14.316081305415706 11.425042323142854 11.242193231822805
Li 10.211600919494384 9.242064112416745 13.11950754862003
Li 15.209932336806792 8.790866844292179 9.583179242902766
Li 9.897518869955793 12.29317404409706 13.544831182704474
Li 7.6387248306076945 10.314746281831585 13.991523398565368
Li 7.968674196424644 7.992454661659988 11.881967440030495
Li 12.79461072652888 10.024986437137567 8.97178151362596
Li 11.488414695220973 11.223958221741745 11.33229124418964
Li 10.357924974666336 8.766998831510627 10.162811885240577
Li 13.96991023613868 8.920288735314237 6.754180433923288
Li 12.37365011017551 13.71560927605379 12.368459152876428
Li 14.96639029869575 11.51744567384022 8.094590614544227
Li 10.89816870670801 8.873558664474134 7.177343559448802
Li 8.581465033740649 10.879610823352209 11.234635052918762
Li 9.779978062452866 13.55741361966501 10.719264311262068
Li 9.61745787383063 15.354308871517913 12.827161897301094
Li 12.519620101337178 13.090510405995508 9.34575174601466
Li 12.20896606141254 11.699564950516931 6.652074897498737
Li 7.319934685978469 13.332924305391384 12.268533112883768
Li 10.138115173591931 11.349051174119204 8.734479395756244
Li 11.25259887625447 15.855741079448975 10.22471430300217
Li 7.521835440223566 12.800435610780388 9.149101123143403
Li 10.072689430108388 14.177729027254934 7.877605493382936
Li 8.17247538129121 15.67734041823268 10.110966826695845
