38
Energy = -58.05542289 eV
Li 12.922632968753215 17.073080125682036 11.839307655883257
Li 9.83811386584671 17.438933740577458 12.493293034429504
Li 11.502458652025222 15.628942134611258 14.556974186903583
Li 13.161521422727311 14.410877181085128 12.694269712063923
Li 10.739847583223051 16.900230407454355 9.540481626462208
Li 8.661078492377138 14.771814645778825 13.627704494670025
Li 13.103634140705388 12.805819970457668 15.274554601259391
Li 13.0259421258342 14.75903078213259 9.763723038360716
Li 10.686144067755487 15.061424179630018 11.559391308794629
Li 8.067884716928274 15.56549414595877 10.670470956360635
Li 10.88836613893917 12.861272180899984 13.532740796798894
Li 15.706846878462759 14.213859047017488 14.246378159478558
Li 15.645746397877339 15.036632031402085 11.320596464374743
Li 14.74214216719464 12.42944561184923 12.380217000505175
Li 12.179225725704294 12.13686543673811 10.801262339255683
Li 15.143529960694487 12.52620561240151 9.614535918966764
Li 15.705957740453872 10.856042907177244 14.395740334946716
Li 9.99882910901067 13.390281380007321 16.116027014241805
Li 17.394438631579394 12.40277975449881 12.063198878270192
Li 8.139071007556488 11.73255846127456 14.026628133212471
Li 10.171532667387075 13.86284056293367 8.968026318594173
Li 9.024572985624767 12.711578833321076 11.303888320494371
Li 12.890984417471083 10.556410186739202 13.36625025113415
Li 10.567646323915179 10.477496719491 15.3338418778494
Li 10.08527269728528 10.235243329506035 12.422338250748606
Li 15.401734312537462 9.968694577690572 11.375440368758628
Li 12.55819200717687 12.464507385729968 7.843064715198859
Li 12.423948242906906 8.819705123950929 11.147993958090613
Li 7.571142240771665 10.12147423764209 11.182368533849816
Li 10.32753930281299 10.446065951990352 9.410768284531093
Li 14.279949023826806 7.928315148143271 13.184346684296399
Li 13.646168601427624 10.008519307184185 8.964065728814326
Li 8.302981863963149 8.6594235020232 13.901696690436868
Li 11.248203146504663 7.923718969610237 13.758124226487071
Li 9.614785784287118 7.7645254153468715 11.130566341441074
Li 14.5554939783445 7.295829252434873 10.024133884217925
Li 11.693161004930838 7.560784186887809 8.75676007065789
Li 12.19742516262099 6.078849441159343 11.482744752038277
