30
Energy = -44.60814108 eV
Li 13.561184128011375 9.95613743912363 9.284290567652
Li 12.92700102663823 11.264755398214964 6.68395440075026
Li 10.46555712310214 13.177629456892568 6.420657249808157
Li 14.066270467963022 12.664104887601525 10.350134403356378
Li 12.242360686265572 7.861347687250918 7.614927379825536
Li 12.816209306633027 14.207687522611373 8.053796709054007
Li 14.915716749979378 10.42255654625777 12.357234828255836
Li 10.02717720871334 10.098572245156598 7.184990893214986
Li 9.210514915679523 7.116063553000175 7.989841161918281
Li 13.113406538453244 8.020101393376374 11.47650670204246
Li 10.032292947008884 14.696223486840708 9.11290880077006
Li 12.294269510812578 10.777881882977075 11.604384201393088
Li 8.364236373956695 12.348446348324362 8.513774862171937
Li 11.129941956273633 6.168928972050265 10.147130064146731
Li 11.380694908276604 11.999733688775274 8.852056104348776
Li 10.42019696294092 8.724394767828473 12.576473016334255
Li 11.427282040189024 13.588036273595668 11.341400154937885
Li 7.793104755347438 9.530269603934745 9.267211985116356
Li 10.712750007032527 8.86467066486727 9.678227034679441
Li 8.488069698746688 7.292397733536474 11.038079195489214
Li 13.142594817186007 12.690789709855192 13.634346978922318
Li 10.309228292987106 11.684355728576726 13.509504506237375
Li 12.55329203351315 9.843697995894939 14.354336091595599
Li 8.434194040917852 13.396749386049741 11.828325629594056
Li 9.61033054043434 11.137976811348087 10.762286105397289
Li 9.447918993873587 9.659703434723623 15.264426053431981
Li 7.786598035844627 10.225876453737689 12.62764993191924
Li 10.441637725788217 14.441710433215118 14.05881067322685
Li 11.093856226886956 12.169965069556525 16.083440594782495
Li 8.185260734778826 12.48415886089999 14.940240434516605
