34
Energy = -50.60306976 eV
Li 15.467273494589982 12.979535732987733 14.539489626438248
Li 12.93019199007991 14.528346710430736 15.653084572908908
Li 15.008358293984273 10.016924732474289 13.971819002041162
Li 12.721198934036103 11.56309378809197 14.975787743549521
Li 10.45718424796245 14.915051766924956 13.91303712964709
Li 10.241157942663104 12.828460309072165 15.862108986939763
Li 12.840903338988475 13.440659333353326 13.037857234875561
Li 17.66984101809605 10.979017975354397 12.956392212164149
Li 15.198892731938859 11.947464377500852 11.950582639314904
Li 13.320549246328932 7.80547611105554 12.708193522558508
Li 15.652258751544878 9.22252098734364 11.20126947049287
Li 12.777241520746035 10.509935622510518 12.011572693851607
Li 7.760156276260748 13.646349124610033 14.14111609696887
Li 10.973706269613576 9.365672966318172 14.009403032034266
Li 11.75495438375967 15.691870958352489 11.307526335728
Li 10.073882337669522 12.027544201339394 13.119719306818526
Li 14.223363367763504 14.231946645042516 10.429095395227188
Li 11.700544434375335 12.808385533420209 10.457279416782981
Li 14.134461041203776 11.330762087523684 9.35615824104945
Li 8.286869032855723 10.758957088043426 14.908154382768398
Li 10.197049001925054 10.076540757027367 10.721956946214787
Li 10.565745390407892 7.3441016955316 11.330961283273956
Li 9.118006154617401 14.157787803785604 11.39203692466697
Li 12.84943150206528 13.550730877923142 7.762363099682225
Li 12.899188490236265 8.66390910338344 9.82677084919301
Li 10.413770158662247 14.771450471325867 8.71297680958335
Li 7.58583106519442 11.53750046022009 11.828310883835377
Li 11.420519565230006 10.89789739488865 8.040174983662677
Li 8.956306975877457 12.128554733801586 9.026014581080064
Li 8.393895085929923 8.832898575477778 12.640424882762348
Li 10.323544488042378 8.132153840217642 8.453435724841507
Li 7.835845050656459 9.080776926911218 9.681547257638226
Li 10.160343768553343 12.904966659710167 6.282688804237493
Li 8.813224629208989 10.199776877698294 6.820110385236524
