32
Energy = -48.23316051 eV
Li 15.499036212865608 12.741340553566594 9.660572539472636
Li 13.521463442122604 9.630669033276627 14.637514758564885
Li 15.398706098557492 9.697488177147342 10.021566723610128
Li 13.887992866458472 11.387413688402336 12.208346782500907
Li 12.914619147772607 13.974963196986076 11.012044954291053
Li 13.093753193565023 13.588837819013637 7.818983529686399
Li 14.549173575762683 10.858267079583197 7.189209261904837
Li 11.682303952451147 7.196454950367266 14.309743418279437
Li 11.844618312557419 12.403941727108732 14.331858553328567
Li 13.178917598585079 11.279986629726743 9.510829822129688
Li 11.400102426967779 10.904415114359674 7.275822561230441
Li 12.769119575931631 8.446983668329334 8.58545724754374
Li 10.907618121292714 9.901818775123562 10.034384513782333
Li 13.116969151986877 8.617004412240131 11.682454570134214
Li 10.644366538453122 9.78831130499643 15.977040927131593
Li 11.09423969442866 9.675359066783692 13.29023220684769
Li 10.13564381871735 13.761970103106387 6.755009729859724
Li 10.728936902031467 13.099953906217372 9.348346775844673
Li 10.408718050153661 7.31265163356402 11.412871465719995
Li 11.190543651068904 15.771147422429857 9.083281151006515
Li 10.916105390115026 11.904992433355165 11.769233465556042
Li 8.639841483421028 9.585457647853854 11.478246676309219
Li 9.034913869061985 8.273721557134287 8.798953814171503
Li 8.696160504266732 11.366414664093702 8.533487572065416
Li 8.921349154396298 11.453026890127278 13.928840089706663
Li 9.995954350978604 14.514701025429622 11.910329100969324
Li 8.728509281429444 8.239555362581068 14.000078351283776
Li 8.309533690688012 14.436459863664004 9.127663959473763
Li 7.942358148453751 12.275116413811958 11.205180260849145
Li 7.258736281091741 7.234622546276091 11.388885374231078
Li 6.4136070715268705 9.877699426120657 9.847073640325112
Li 6.326725552112266 9.95153881751164 12.911674953647518
