31
Energy = -46.85251311 eV
Li 15.830578075324183 8.45085851726247 13.716922087008943
Li 12.674021879196632 9.029237722501623 13.874564104217773
Li 14.729947539666068 10.681475750382106 15.641477344156538
Li 9.860498666591845 10.485199637712824 13.28780340722685
Li 14.0450646346225 8.629048483891806 11.111174077698426
Li 12.342022100401858 11.980377101564907 14.177068551530494
Li 9.398791569398213 13.001655923569935 14.677427996169897
Li 7.392354220505864 10.41929232314835 14.745199387680072
Li 10.587886958911012 8.374423149712088 11.397895780076293
Li 16.914065183464558 9.945260800670425 11.205513515774507
Li 14.798544021201824 10.86468185105552 12.824725115257833
Li 16.3491661074127 13.105620403937264 11.523748870520562
Li 7.5849588790863045 9.393567062051845 11.79610210888855
Li 14.848448888272745 13.548766669390522 14.26443342922389
Li 12.108919335028316 10.753744815513405 11.497513055782568
Li 8.573414232073391 8.88414732628479 8.863504736084206
Li 13.519507081424896 13.329959911137502 11.704593196984392
Li 7.694660837865394 12.333208529161038 12.344666370092993
Li 11.971700974910503 14.896815963951124 13.702200478115365
Li 9.462451876902186 10.99176807457169 10.27284062327614
Li 14.518818824692497 11.309771667022753 9.832692515026839
Li 6.871125823703907 11.410070559974004 9.449060125050416
Li 14.700870954977464 15.733079014876715 12.105091469390974
Li 11.73328302544157 9.703243845984481 8.842957905250246
Li 10.519053095302796 13.112573319128453 11.998351633920766
Li 11.770313202258832 12.71111481928404 9.275766081324212
Li 9.342808483503497 11.61101854480323 7.565914042016261
Li 8.916230896271358 15.278661999593972 12.423523072335914
Li 14.588465463129898 14.358568885130092 9.326724386080468
Li 8.907426759849377 13.822237315686005 9.740835202868267
Li 11.634089871036783 15.40331631122083 10.626913426400119
