37
Energy = -57.10010365 eV
Li 12.329735921304934 9.059091341152172 16.048804268512882
Li 13.258273950035939 11.769302687604364 15.339372006790708
Li 10.892439064486034 11.925181125775026 16.990446912535507
Li 13.06164419732621 9.528778066171027 13.258151586240109
Li 15.430078640957555 9.821274234919919 15.00997583327598
Li 10.479066252308389 10.651750676459542 14.363756496205799
Li 13.050202942331996 14.441289426625499 16.578065323215203
Li 10.580407590387805 7.85926009641276 13.231470775847496
Li 15.868395387874674 13.110519542157402 15.332922005306342
Li 9.284400460494583 12.604447054816069 12.200224453087625
Li 12.572238665571671 7.956889680823651 10.679715552116607
Li 12.130706836429507 12.190512523286927 12.569280164636382
Li 15.536136385785731 9.11195358154043 11.60866442380288
Li 8.121699008548697 9.856438078575101 12.58654724916175
Li 10.886277404373578 13.735694982991285 14.668686211910916
Li 10.662412698629808 10.022409038295581 11.402261339898118
Li 15.075142946158376 11.772389678806292 12.863413121312236
Li 9.328607051056009 7.9747790230000195 10.244909136245656
Li 8.231243217176743 12.486083521690386 14.849614475585877
Li 13.41855628341874 10.708816883823884 10.555179763991232
Li 14.578018963777469 9.361848862441208 8.547117418453121
Li 16.23682798072844 14.409834404893232 12.127939042432173
Li 13.700165473015101 14.342760451932106 13.730373384381833
Li 11.303191914116235 14.846719739276185 11.866626677549622
Li 11.38749183827167 9.873893006350784 8.582845615765672
Li 13.811551096628795 13.644360672501795 10.840728063444752
Li 8.861306559420914 15.434195528683997 13.119491407018858
Li 8.589926423630786 11.100701612636561 9.706154508546408
Li 16.008637527749123 11.929242586868329 9.988441058654063
Li 9.072358784274696 14.679125612146983 10.045268135831348
Li 11.151778211323172 12.58097798172734 9.888069399683259
Li 13.566410320252633 12.436711509315982 8.144512783582304
Li 15.332975641854265 14.999775490398951 9.101739536155797
Li 11.725974602450302 16.566403997130838 14.07564965999699
Li 13.697913365430102 16.445230273164885 11.50918103746731
Li 12.121633631398227 15.331208498289842 9.11400507583994
Li 10.575530777340678 17.34950654363291 11.149754111836844
