36
Energy = -55.68889226 eV
Li 14.326646959315118 14.882142263350211 8.148352918679501
Li 13.813309927252964 13.51412816950679 12.801500356442403
Li 14.755389415614292 11.105506283912526 11.486050215474584
Li 13.365040868817191 15.882849265146357 11.056479397296508
Li 17.36960878545912 11.148642045855183 11.086647541923092
Li 12.15744829680816 11.266222359423589 16.762101017718386
Li 13.141055553243126 13.118467538296496 9.899917076117923
Li 10.292644472300955 16.72853297085262 11.660300192971288
Li 15.468860460004153 15.592458476900386 13.527830902914024
Li 9.39610987912179 11.848937478663933 12.622201394708679
Li 10.314891797202213 12.055779469723246 9.647065960550382
Li 16.016228166117386 9.292962503138574 13.345676286877017
Li 16.277376033450814 12.53301719553368 13.73263088203067
Li 13.544234881998012 8.42076716775157 15.553268359150723
Li 11.15155921510388 15.002435726739593 8.999910530824733
Li 15.5440095630565 8.818145605209043 10.186728521418024
Li 6.945250199965077 12.651686010599878 13.332740359256613
Li 7.933354600587993 9.705614638999366 13.55491782902581
Li 12.399022771510603 12.511820138601644 7.325635990959167
Li 9.33847992496968 14.671794491706223 13.95012890150528
Li 10.993341400146667 14.301799402297933 16.68788076129729
Li 11.13388477223353 14.130198035958113 11.792436751471914
Li 10.13784538032096 9.335577154709704 11.298799705152948
Li 12.746146736698025 10.136138671265522 9.484002541730227
Li 15.268714462700778 11.740979870261736 8.653488129703314
Li 13.188176202600195 8.709335661567764 12.39578787609699
Li 11.04365938568124 9.822146995168083 14.28824800343534
Li 14.024690785936833 13.688872778194265 15.724641694633887
Li 11.53431197655654 12.840226698861388 14.449176872688504
Li 13.821865072175251 10.946690937304998 14.366753020735784
Li 8.477044943102648 14.158967926111716 10.905682873087787
Li 7.5283853188556575 11.07249651621672 10.74081562134737
Li 12.265198533340547 15.729939323146585 14.03336445533908
Li 15.811746774557047 13.946002389775918 10.834130589453212
Li 9.13857682207063 11.917955365037512 15.57885661059659
Li 12.041459673278974 11.397435777200808 11.965207846985889
