34
Energy = -51.29419684 eV
Li 15.016355135907924 11.959565827315798 12.257527504487882
Li 12.834149872921989 10.98311752697222 14.176842718945434
Li 14.499783414525453 15.108931450256781 11.773540400382226
Li 13.691040830228797 13.093984946334505 9.800730806206007
Li 14.284382517612165 15.368067197746088 8.424959161185782
Li 15.126164295239112 10.421781117200569 9.455130951831007
Li 12.331278301966632 13.30026172502827 12.423868222591762
Li 12.548294075570107 10.704975481445024 11.27501447155843
Li 14.006242926850808 13.538703275924362 14.761225129538639
Li 14.378109274925373 12.277557898820692 6.992117966701345
Li 12.511965350528067 10.971326749700584 8.583865788957164
Li 12.009483662962545 15.72546155434985 13.707130407297791
Li 11.783842621143904 13.717265054102127 7.709194936270716
Li 11.761355873415912 15.178555669355937 10.36650100736899
Li 15.362238576742405 10.63312680507271 15.192036262365438
Li 14.38880979891656 9.036449784322976 12.60237919555079
Li 13.089862599661538 8.291661536186362 9.80148056774821
Li 9.592929233909064 14.099529296786912 12.52097566729757
Li 13.067543463323899 9.176588611779113 6.777378140648406
Li 10.246598607397603 12.311674814432752 9.960709548974766
Li 12.912429427428124 8.604748344476643 15.403588717282068
Li 10.30861605679046 11.040987365902046 6.980362910092561
Li 10.8954094207306 13.173784872794382 15.107108437010215
Li 12.850536627094614 11.376189727113688 16.8623525516691
Li 11.108532321110726 8.703812394454884 12.645008638564276
Li 10.255131387130982 11.355967932761482 12.91785923325348
Li 10.32464472777862 9.326460785773172 9.40874104928687
Li 7.338343391683654 12.774743550277993 10.977874129116794
Li 7.640172937721217 10.84950310289402 8.71917166440622
Li 10.246048445998639 10.184078789442951 15.418385927296193
Li 7.662928050449534 11.811962791766952 13.860300620762088
Li 8.424595823335398 10.280239090455396 11.36108347753327
Li 5.700551446473787 10.346862655130302 11.73991957853168
Li 8.030320090494458 8.863899024361086 13.687079309771661
