37
Energy = -57.19877391 eV
Li 15.608082658077164 12.388257545485608 8.888985948665136
Li 13.735287130212182 13.335293950960349 10.87940623119829
Li 16.319728487312116 13.98532786832202 12.122859600136705
Li 13.649928369924135 15.616742042316655 12.927526091902326
Li 15.639673950326928 14.773842534462176 15.261774796717143
Li 16.693715509741832 11.94132755956121 14.478641740489852
Li 11.381006354720144 15.216192211370922 10.465820918075048
Li 12.431165713068298 14.509994161318637 15.536440102889442
Li 11.64390241386918 13.553044969254042 12.94069260813106
Li 15.521138509423121 11.023460373889788 11.675228150851796
Li 15.660688079580591 9.252019341907186 8.991797787071873
Li 12.550987748616878 13.262889882247439 8.09655538628918
Li 9.25795225040349 13.747887032765533 8.790467224807703
Li 8.421163851263954 16.254945724385635 10.597060381250143
Li 13.391712580448493 10.677783968671164 9.475687272586683
Li 14.296909068397387 12.123751468449493 16.590587776718323
Li 14.275893099430728 12.901379232868033 13.810193230961087
Li 11.105397902949013 12.23338356021566 10.345505840755408
Li 9.066900785849786 13.815673731859123 11.778616433665038
Li 14.271709008293438 9.855204198152688 14.45275983378195
Li 6.627193364568773 13.6979977910837 10.626361270942569
Li 11.88915484023162 11.543296032577873 15.05349812900284
Li 10.800422522082279 10.736149217283575 7.985745409975985
Li 13.872790072944994 10.666441656332273 6.814634445052286
Li 13.814995779297961 8.431239482036231 11.487744243629448
Li 9.44429393908217 13.413984715333628 14.816158431558915
Li 12.74612148329995 10.92102529412432 12.300299555915359
Li 10.377607974084874 16.041922762661237 13.33015136079578
Li 9.893851252392283 11.195488373516874 12.856997824987554
Li 8.40933581328696 11.129524448845238 10.368448737768222
Li 12.303688560529107 9.472058840339386 16.85230996982287
Li 12.779163769725406 8.237791789037782 8.427551201054994
Li 7.218887023883036 11.824830371310389 13.23145325521766
Li 11.441733301485327 8.800772184043856 13.861652035162852
Li 9.2153225459397 10.277303215825757 15.463371570471992
Li 10.911124106907238 9.265765391261354 10.752621007296767
Li 8.323257876950212 8.954917420732208 12.672249232799546
