34
Energy = -51.21749735 eV
Li 12.344809179165518 9.365965756535964 6.94749234535668
Li 10.623524026572461 11.202359727546071 8.558657482894658
Li 13.385494808659134 10.849972267528663 9.413335572950228
Li 12.594817069587148 12.917050533919463 7.288188385105392
Li 11.579640087044977 6.370571918516029 7.889522643193428
Li 14.013226456104752 7.808017093392077 9.133350287789172
Li 9.337626175704775 8.687536231586073 7.557796483538686
Li 7.810297278753763 11.839103787344518 8.269334871619108
Li 14.579302022690127 13.712160626049313 9.649977116086076
Li 9.871865154592378 14.234962177985937 8.19223261687296
Li 11.416032345236172 8.540455438960045 9.560827545885719
Li 11.958540604406496 13.385954528112334 10.064091015579379
Li 13.289390232336643 9.117759993429075 11.883519383004804
Li 12.390422392564377 15.875273744718005 8.890642901873457
Li 12.259532289850851 6.3507329870917895 11.207281979265792
Li 9.4180917253112 6.746132645265041 10.056068021698733
Li 9.191232831066817 12.748381582132167 10.635881158821341
Li 13.07946229176449 15.104674176428405 12.09382745296173
Li 8.79188778271359 9.802950324892667 10.360086234993338
Li 9.964496061571593 9.215310878341544 15.475507181684236
Li 12.597764451965137 7.882102600032585 14.560430316988773
Li 13.669524152401657 12.095277626352727 12.146479106432297
Li 14.55641146338751 10.259574126112643 14.510256876629203
Li 6.719244654935106 11.945075626844403 11.257853016914277
Li 10.154802796792582 15.503801797941707 10.983790410721692
Li 11.876104559198119 10.616256848663394 14.116190352903851
Li 7.369241981774725 14.736855613415297 9.91663925203549
Li 11.064408820914098 13.165118799654959 12.886430057055122
Li 8.304888959736092 14.023957594595112 13.073224974485246
Li 9.063939893633167 11.046122973701022 13.092777138931728
Li 13.15846565713705 13.053552219411303 15.00936169151907
Li 10.451519032449616 8.42829868916339 12.48432397217565
Li 12.477572693576906 10.439512132451002 16.788187156303373
Li 10.154379484030635 12.373311163361123 15.63107579915537
